MODEL 1
REMARK VINA RESULT:      -7.2      0.000      0.000
REMARK  Name = 
REMARK  3 active torsions:
REMARK  status: ('A' for Active; 'I' for Inactive)
REMARK    1  A    between atoms: C_2  and  C_3
REMARK    2  A    between atoms: N_10  and  C_11
REMARK    3  A    between atoms: C_11  and  C_12
REMARK                            x       y       z     vdW  Elec       q    Type
REMARK                         _______ _______ _______ _____ _____    ______ ____
ROOT
ATOM      1  C   UNL     1       5.201   5.278  19.190  0.00  0.00    +0.000 C 
ATOM      2  C   UNL     1       6.697   5.541  19.117  0.00  0.00    +0.000 C 
ATOM      3  C   UNL     1       7.351   4.937  17.885  0.00  0.00    +0.000 C 
ATOM      4  C   UNL     1       6.576   5.253  16.592  0.00  0.00    +0.000 C 
ATOM      5  C   UNL     1       5.063   5.156  16.795  0.00  0.00    +0.000 C 
ATOM      6  C   UNL     1       4.823   3.664  16.652  0.00  0.00    +0.000 C 
ATOM      7  C   UNL     1       5.781   3.259  15.551  0.00  0.00    +0.000 C 
ATOM      8  N   UNL     1       6.911   4.219  15.582  0.00  0.00    +0.000 NA
ATOM      9  O   UNL     1       4.577   5.763  17.991  0.00  0.00    +0.000 OA
ENDROOT
BRANCH   1  11
ATOM     10  O   UNL     1       5.217   2.972  19.960  0.00  0.00    +0.000 OA
ATOM     11  C   UNL     1       4.540   3.978  19.735  0.00  0.00    +0.000 C 
ATOM     12  N   UNL     1       3.172   3.931  19.715  0.00  0.00    +0.000 N 
ATOM     13  C   UNL     1       2.415   2.733  19.986  0.00  0.00    +0.000 C 
ATOM     14  C   UNL     1       1.007   3.240  19.939  0.00  0.00    +0.000 C 
ATOM     15  C   UNL     1       1.176   4.566  20.644  0.00  0.00    +0.000 C 
ATOM     16  O   UNL     1       2.485   5.037  20.277  0.00  0.00    +0.000 OA
ENDBRANCH   1  11
BRANCH   8  17
ATOM     17  C   UNL     1       7.116   4.743  14.224  0.00  0.00    +0.000 C 
BRANCH  17  18
ATOM     18  C   UNL     1       6.345   4.022  13.144  0.00  0.00    +0.000 A 
ATOM     19  C   UNL     1       6.956   3.047  12.341  0.00  0.00    +0.000 A 
ATOM     20  C   UNL     1       6.215   2.377  11.365  0.00  0.00    +0.000 A 
ATOM     21  C   UNL     1       4.867   2.678  11.201  0.00  0.00    +0.000 A 
ATOM     22  F   UNL     1       4.157   2.033  10.267  0.00  0.00    +0.000 F 
ATOM     23  C   UNL     1       4.243   3.633  11.992  0.00  0.00    +0.000 A 
ATOM     24  C   UNL     1       4.981   4.303  12.966  0.00  0.00    +0.000 A 
ENDBRANCH  17  18
ENDBRANCH   8  17
TORSDOF 3
ENDMDL
MODEL 2
REMARK VINA RESULT:      -7.1      0.975      1.429
REMARK  Name = 
REMARK  3 active torsions:
REMARK  status: ('A' for Active; 'I' for Inactive)
REMARK    1  A    between atoms: C_2  and  C_3
REMARK    2  A    between atoms: N_10  and  C_11
REMARK    3  A    between atoms: C_11  and  C_12
REMARK                            x       y       z     vdW  Elec       q    Type
REMARK                         _______ _______ _______ _____ _____    ______ ____
ROOT
ATOM      1  C   UNL     1       4.959   5.898  18.416  0.00  0.00    +0.000 C 
ATOM      2  C   UNL     1       6.265   6.640  18.172  0.00  0.00    +0.000 C 
ATOM      3  C   UNL     1       7.081   6.054  17.031  0.00  0.00    +0.000 C 
ATOM      4  C   UNL     1       6.234   5.804  15.769  0.00  0.00    +0.000 C 
ATOM      5  C   UNL     1       4.856   5.236  16.110  0.00  0.00    +0.000 C 
ATOM      6  C   UNL     1       5.159   3.758  16.279  0.00  0.00    +0.000 C 
ATOM      7  C   UNL     1       6.190   3.487  15.203  0.00  0.00    +0.000 C 
ATOM      8  N   UNL     1       6.906   4.761  14.955  0.00  0.00    +0.000 NA
ATOM      9  O   UNL     1       4.195   5.875  17.201  0.00  0.00    +0.000 OA
ENDROOT
BRANCH   1  11
ATOM     10  O   UNL     1       5.775   3.859  19.459  0.00  0.00    +0.000 OA
ATOM     11  C   UNL     1       4.808   4.595  19.255  0.00  0.00    +0.000 C 
ATOM     12  N   UNL     1       3.529   4.193  19.536  0.00  0.00    +0.000 N 
ATOM     13  C   UNL     1       3.210   2.911  20.117  0.00  0.00    +0.000 C 
ATOM     14  C   UNL     1       1.729   3.020  20.307  0.00  0.00    +0.000 C 
ATOM     15  C   UNL     1       1.623   4.451  20.781  0.00  0.00    +0.000 C 
ATOM     16  O   UNL     1       2.657   5.168  20.083  0.00  0.00    +0.000 OA
ENDBRANCH   1  11
BRANCH   8  17
ATOM     17  C   UNL     1       6.901   5.026  13.509  0.00  0.00    +0.000 C 
BRANCH  17  18
ATOM     18  C   UNL     1       6.610   3.821  12.646  0.00  0.00    +0.000 A 
ATOM     19  C   UNL     1       5.293   3.422  12.373  0.00  0.00    +0.000 A 
ATOM     20  C   UNL     1       5.050   2.319  11.553  0.00  0.00    +0.000 A 
ATOM     21  C   UNL     1       6.121   1.624  11.003  0.00  0.00    +0.000 A 
ATOM     22  F   UNL     1       5.887   0.568  10.213  0.00  0.00    +0.000 F 
ATOM     23  C   UNL     1       7.432   2.009  11.255  0.00  0.00    +0.000 A 
ATOM     24  C   UNL     1       7.676   3.109  12.073  0.00  0.00    +0.000 A 
ENDBRANCH  17  18
ENDBRANCH   8  17
TORSDOF 3
ENDMDL
MODEL 3
REMARK VINA RESULT:      -7.1      4.902      8.456
REMARK  Name = 
REMARK  3 active torsions:
REMARK  status: ('A' for Active; 'I' for Inactive)
REMARK    1  A    between atoms: C_2  and  C_3
REMARK    2  A    between atoms: N_10  and  C_11
REMARK    3  A    between atoms: C_11  and  C_12
REMARK                            x       y       z     vdW  Elec       q    Type
REMARK                         _______ _______ _______ _____ _____    ______ ____
ROOT
ATOM      1  C   UNL     1       3.888   4.037  18.551  0.00  0.00    +0.000 C 
ATOM      2  C   UNL     1       3.231   4.197  19.914  0.00  0.00    +0.000 C 
ATOM      3  C   UNL     1       2.875   5.640  20.240  0.00  0.00    +0.000 C 
ATOM      4  C   UNL     1       2.141   6.341  19.082  0.00  0.00    +0.000 C 
ATOM      5  C   UNL     1       2.740   5.977  17.723  0.00  0.00    +0.000 C 
ATOM      6  C   UNL     1       3.921   6.926  17.636  0.00  0.00    +0.000 C 
ATOM      7  C   UNL     1       3.394   8.200  18.265  0.00  0.00    +0.000 C 
ATOM      8  N   UNL     1       2.336   7.805  19.225  0.00  0.00    +0.000 NA
ATOM      9  O   UNL     1       3.027   4.592  17.544  0.00  0.00    +0.000 OA
ENDROOT
BRANCH   1  11
ATOM     10  O   UNL     1       6.208   4.432  19.163  0.00  0.00    +0.000 OA
ATOM     11  C   UNL     1       5.399   4.257  18.249  0.00  0.00    +0.000 C 
ATOM     12  N   UNL     1       5.735   4.490  16.942  0.00  0.00    +0.000 N 
ATOM     13  C   UNL     1       7.048   4.916  16.523  0.00  0.00    +0.000 C 
ATOM     14  C   UNL     1       6.910   4.921  15.033  0.00  0.00    +0.000 C 
ATOM     15  C   UNL     1       6.093   3.665  14.835  0.00  0.00    +0.000 C 
ATOM     16  O   UNL     1       5.225   3.582  15.978  0.00  0.00    +0.000 OA
ENDBRANCH   1  11
BRANCH   8  17
ATOM     17  C   UNL     1       1.134   8.606  18.951  0.00  0.00    +0.000 C 
BRANCH  17  18
ATOM     18  C   UNL     1       0.518   9.259  20.165  0.00  0.00    +0.000 A 
ATOM     19  C   UNL     1       0.625   8.679  21.438  0.00  0.00    +0.000 A 
ATOM     20  C   UNL     1       0.068   9.315  22.548  0.00  0.00    +0.000 A 
ATOM     21  C   UNL     1      -0.587  10.531  22.385  0.00  0.00    +0.000 A 
ATOM     22  F   UNL     1      -1.119  11.142  23.451  0.00  0.00    +0.000 F 
ATOM     23  C   UNL     1      -0.696  11.125  21.134  0.00  0.00    +0.000 A 
ATOM     24  C   UNL     1      -0.140  10.492  20.025  0.00  0.00    +0.000 A 
ENDBRANCH  17  18
ENDBRANCH   8  17
TORSDOF 3
ENDMDL
MODEL 4
REMARK VINA RESULT:      -7.0      2.847      3.959
REMARK  Name = 
REMARK  3 active torsions:
REMARK  status: ('A' for Active; 'I' for Inactive)
REMARK    1  A    between atoms: C_2  and  C_3
REMARK    2  A    between atoms: N_10  and  C_11
REMARK    3  A    between atoms: C_11  and  C_12
REMARK                            x       y       z     vdW  Elec       q    Type
REMARK                         _______ _______ _______ _____ _____    ______ ____
ROOT
ATOM      1  C   UNL     1       2.391   6.039  19.616  0.00  0.00    +0.000 C 
ATOM      2  C   UNL     1       1.901   4.740  18.994  0.00  0.00    +0.000 C 
ATOM      3  C   UNL     1       2.582   4.414  17.674  0.00  0.00    +0.000 C 
ATOM      4  C   UNL     1       4.113   4.555  17.752  0.00  0.00    +0.000 C 
ATOM      5  C   UNL     1       4.533   5.784  18.560  0.00  0.00    +0.000 C 
ATOM      6  C   UNL     1       4.418   6.892  17.529  0.00  0.00    +0.000 C 
ATOM      7  C   UNL     1       4.903   6.235  16.253  0.00  0.00    +0.000 C 
ATOM      8  N   UNL     1       4.631   4.784  16.380  0.00  0.00    +0.000 NA
ATOM      9  O   UNL     1       3.817   5.976  19.778  0.00  0.00    +0.000 OA
ENDROOT
BRANCH   1  11
ATOM     10  O   UNL     1       1.990   7.891  18.092  0.00  0.00    +0.000 OA
ATOM     11  C   UNL     1       1.884   7.463  19.243  0.00  0.00    +0.000 C 
ATOM     12  N   UNL     1       1.551   8.287  20.286  0.00  0.00    +0.000 N 
ATOM     13  C   UNL     1       1.266   9.692  20.127  0.00  0.00    +0.000 C 
ATOM     14  C   UNL     1       0.870  10.085  21.516  0.00  0.00    +0.000 C 
ATOM     15  C   UNL     1       0.051   8.879  21.913  0.00  0.00    +0.000 C 
ATOM     16  O   UNL     1       0.677   7.756  21.268  0.00  0.00    +0.000 OA
ENDBRANCH   1  11
BRANCH   8  17
ATOM     17  C   UNL     1       5.865   4.049  16.068  0.00  0.00    +0.000 C 
BRANCH  17  18
ATOM     18  C   UNL     1       6.327   4.167  14.635  0.00  0.00    +0.000 A 
ATOM     19  C   UNL     1       5.664   3.494  13.598  0.00  0.00    +0.000 A 
ATOM     20  C   UNL     1       6.097   3.639  12.279  0.00  0.00    +0.000 A 
ATOM     21  C   UNL     1       7.183   4.461  11.999  0.00  0.00    +0.000 A 
ATOM     22  F   UNL     1       7.595   4.602  10.733  0.00  0.00    +0.000 F 
ATOM     23  C   UNL     1       7.847   5.142  13.012  0.00  0.00    +0.000 A 
ATOM     24  C   UNL     1       7.417   4.998  14.329  0.00  0.00    +0.000 A 
ENDBRANCH  17  18
ENDBRANCH   8  17
TORSDOF 3
ENDMDL
MODEL 5
REMARK VINA RESULT:      -7.0      2.152      3.452
REMARK  Name = 
REMARK  3 active torsions:
REMARK  status: ('A' for Active; 'I' for Inactive)
REMARK    1  A    between atoms: C_2  and  C_3
REMARK    2  A    between atoms: N_10  and  C_11
REMARK    3  A    between atoms: C_11  and  C_12
REMARK                            x       y       z     vdW  Elec       q    Type
REMARK                         _______ _______ _______ _____ _____    ______ ____
ROOT
ATOM      1  C   UNL     1       2.199   3.854  19.464  0.00  0.00    +0.000 C 
ATOM      2  C   UNL     1       1.685   3.793  18.033  0.00  0.00    +0.000 C 
ATOM      3  C   UNL     1       2.736   4.176  17.003  0.00  0.00    +0.000 C 
ATOM      4  C   UNL     1       4.079   3.460  17.238  0.00  0.00    +0.000 C 
ATOM      5  C   UNL     1       4.437   3.391  18.724  0.00  0.00    +0.000 C 
ATOM      6  C   UNL     1       5.049   4.759  18.963  0.00  0.00    +0.000 C 
ATOM      7  C   UNL     1       5.824   5.024  17.689  0.00  0.00    +0.000 C 
ATOM      8  N   UNL     1       5.154   4.265  16.606  0.00  0.00    +0.000 NA
ATOM      9  O   UNL     1       3.361   3.020  19.584  0.00  0.00    +0.000 OA
ENDROOT
BRANCH   1  11
ATOM     10  O   UNL     1       2.423   5.068  21.558  0.00  0.00    +0.000 OA
ATOM     11  C   UNL     1       2.282   5.142  20.336  0.00  0.00    +0.000 C 
ATOM     12  N   UNL     1       1.949   6.320  19.722  0.00  0.00    +0.000 N 
ATOM     13  C   UNL     1       1.773   7.563  20.433  0.00  0.00    +0.000 C 
ATOM     14  C   UNL     1       1.528   8.526  19.314  0.00  0.00    +0.000 C 
ATOM     15  C   UNL     1       2.529   8.021  18.301  0.00  0.00    +0.000 C 
ATOM     16  O   UNL     1       2.575   6.594  18.479  0.00  0.00    +0.000 OA
ENDBRANCH   1  11
BRANCH   8  17
ATOM     17  C   UNL     1       6.167   3.472  15.896  0.00  0.00    +0.000 C 
BRANCH  17  18
ATOM     18  C   UNL     1       6.532   3.992  14.526  0.00  0.00    +0.000 A 
ATOM     19  C   UNL     1       7.507   4.988  14.361  0.00  0.00    +0.000 A 
ATOM     20  C   UNL     1       7.843   5.435  13.082  0.00  0.00    +0.000 A 
ATOM     21  C   UNL     1       7.212   4.881  11.974  0.00  0.00    +0.000 A 
ATOM     22  F   UNL     1       7.538   5.308  10.747  0.00  0.00    +0.000 F 
ATOM     23  C   UNL     1       6.251   3.888  12.117  0.00  0.00    +0.000 A 
ATOM     24  C   UNL     1       5.913   3.441  13.392  0.00  0.00    +0.000 A 
ENDBRANCH  17  18
ENDBRANCH   8  17
TORSDOF 3
ENDMDL
MODEL 6
REMARK VINA RESULT:      -6.9      6.773      8.717
REMARK  Name = 
REMARK  3 active torsions:
REMARK  status: ('A' for Active; 'I' for Inactive)
REMARK    1  A    between atoms: C_2  and  C_3
REMARK    2  A    between atoms: N_10  and  C_11
REMARK    3  A    between atoms: C_11  and  C_12
REMARK                            x       y       z     vdW  Elec       q    Type
REMARK                         _______ _______ _______ _____ _____    ______ ____
ROOT
ATOM      1  C   UNL     1      -0.269  12.586  19.517  0.00  0.00    +0.000 C 
ATOM      2  C   UNL     1       0.933  12.763  18.603  0.00  0.00    +0.000 C 
ATOM      3  C   UNL     1       1.839  11.541  18.562  0.00  0.00    +0.000 C 
ATOM      4  C   UNL     1       1.053  10.234  18.350  0.00  0.00    +0.000 C 
ATOM      5  C   UNL     1      -0.247  10.211  19.157  0.00  0.00    +0.000 C 
ATOM      6  C   UNL     1       0.241   9.774  20.526  0.00  0.00    +0.000 C 
ATOM      7  C   UNL     1       1.318   8.757  20.205  0.00  0.00    +0.000 C 
ATOM      8  N   UNL     1       1.867   9.110  18.874  0.00  0.00    +0.000 NA
ATOM      9  O   UNL     1      -1.003  11.420  19.111  0.00  0.00    +0.000 OA
ENDROOT
BRANCH   1  11
ATOM     10  O   UNL     1       0.788  12.982  21.670  0.00  0.00    +0.000 OA
ATOM     11  C   UNL     1      -0.267  12.797  21.060  0.00  0.00    +0.000 C 
ATOM     12  N   UNL     1      -1.437  12.525  21.717  0.00  0.00    +0.000 N 
ATOM     13  C   UNL     1      -1.545  12.467  23.155  0.00  0.00    +0.000 C 
ATOM     14  C   UNL     1      -3.013  12.247  23.345  0.00  0.00    +0.000 C 
ATOM     15  C   UNL     1      -3.563  13.167  22.280  0.00  0.00    +0.000 C 
ATOM     16  O   UNL     1      -2.616  13.118  21.198  0.00  0.00    +0.000 OA
ENDBRANCH   1  11
BRANCH   8  17
ATOM     17  C   UNL     1       1.855   7.907  18.030  0.00  0.00    +0.000 C 
BRANCH  17  18
ATOM     18  C   UNL     1       3.052   7.003  18.198  0.00  0.00    +0.000 A 
ATOM     19  C   UNL     1       3.092   6.027  19.206  0.00  0.00    +0.000 A 
ATOM     20  C   UNL     1       4.200   5.187  19.326  0.00  0.00    +0.000 A 
ATOM     21  C   UNL     1       5.260   5.319  18.435  0.00  0.00    +0.000 A 
ATOM     22  F   UNL     1       6.322   4.510  18.549  0.00  0.00    +0.000 F 
ATOM     23  C   UNL     1       5.235   6.273  17.426  0.00  0.00    +0.000 A 
ATOM     24  C   UNL     1       4.130   7.113  17.305  0.00  0.00    +0.000 A 
ENDBRANCH  17  18
ENDBRANCH   8  17
TORSDOF 3
ENDMDL
MODEL 7
REMARK VINA RESULT:      -6.9      6.702      9.180
REMARK  Name = 
REMARK  3 active torsions:
REMARK  status: ('A' for Active; 'I' for Inactive)
REMARK    1  A    between atoms: C_2  and  C_3
REMARK    2  A    between atoms: N_10  and  C_11
REMARK    3  A    between atoms: C_11  and  C_12
REMARK                            x       y       z     vdW  Elec       q    Type
REMARK                         _______ _______ _______ _____ _____    ______ ____
ROOT
ATOM      1  C   UNL     1      -0.113  11.554  21.688  0.00  0.00    +0.000 C 
ATOM      2  C   UNL     1      -0.642  10.265  22.297  0.00  0.00    +0.000 C 
ATOM      3  C   UNL     1      -0.332   9.035  21.457  0.00  0.00    +0.000 C 
ATOM      4  C   UNL     1       1.142   8.983  21.012  0.00  0.00    +0.000 C 
ATOM      5  C   UNL     1       1.661  10.360  20.595  0.00  0.00    +0.000 C 
ATOM      6  C   UNL     1       1.164  10.464  19.165  0.00  0.00    +0.000 C 
ATOM      7  C   UNL     1       1.329   9.054  18.634  0.00  0.00    +0.000 C 
ATOM      8  N   UNL     1       1.232   8.138  19.795  0.00  0.00    +0.000 NA
ATOM      9  O   UNL     1       1.300  11.428  21.469  0.00  0.00    +0.000 OA
ENDROOT
BRANCH   1  11
ATOM     10  O   UNL     1      -1.788  11.924  19.964  0.00  0.00    +0.000 OA
ATOM     11  C   UNL     1      -0.828  12.388  20.584  0.00  0.00    +0.000 C 
ATOM     12  N   UNL     1      -0.196  13.532  20.174  0.00  0.00    +0.000 N 
ATOM     13  C   UNL     1      -0.612  14.301  19.027  0.00  0.00    +0.000 C 
ATOM     14  C   UNL     1       0.321  15.470  19.085  0.00  0.00    +0.000 C 
ATOM     15  C   UNL     1       0.343  15.722  20.575  0.00  0.00    +0.000 C 
ATOM     16  O   UNL     1       0.229  14.427  21.189  0.00  0.00    +0.000 OA
ENDBRANCH   1  11
BRANCH   8  17
ATOM     17  C   UNL     1       2.389   7.232  19.773  0.00  0.00    +0.000 C 
BRANCH  17  18
ATOM     18  C   UNL     1       2.051   5.780  19.528  0.00  0.00    +0.000 A 
ATOM     19  C   UNL     1       1.568   4.961  20.561  0.00  0.00    +0.000 A 
ATOM     20  C   UNL     1       1.240   3.629  20.304  0.00  0.00    +0.000 A 
ATOM     21  C   UNL     1       1.388   3.122  19.017  0.00  0.00    +0.000 A 
ATOM     22  F   UNL     1       1.069   1.844  18.771  0.00  0.00    +0.000 F 
ATOM     23  C   UNL     1       1.856   3.919  17.981  0.00  0.00    +0.000 A 
ATOM     24  C   UNL     1       2.184   5.249  18.236  0.00  0.00    +0.000 A 
ENDBRANCH  17  18
ENDBRANCH   8  17
TORSDOF 3
ENDMDL
MODEL 8
REMARK VINA RESULT:      -6.8      6.476      8.376
REMARK  Name = 
REMARK  3 active torsions:
REMARK  status: ('A' for Active; 'I' for Inactive)
REMARK    1  A    between atoms: C_2  and  C_3
REMARK    2  A    between atoms: N_10  and  C_11
REMARK    3  A    between atoms: C_11  and  C_12
REMARK                            x       y       z     vdW  Elec       q    Type
REMARK                         _______ _______ _______ _____ _____    ______ ____
ROOT
ATOM      1  C   UNL     1       0.102  12.191  19.340  0.00  0.00    +0.000 C 
ATOM      2  C   UNL     1       1.297  12.393  18.421  0.00  0.00    +0.000 C 
ATOM      3  C   UNL     1       2.188  11.165  18.319  0.00  0.00    +0.000 C 
ATOM      4  C   UNL     1       1.386   9.876  18.061  0.00  0.00    +0.000 C 
ATOM      5  C   UNL     1       0.095   9.833  18.880  0.00  0.00    +0.000 C 
ATOM      6  C   UNL     1       0.593   9.333  20.224  0.00  0.00    +0.000 C 
ATOM      7  C   UNL     1       1.655   8.319  19.849  0.00  0.00    +0.000 C 
ATOM      8  N   UNL     1       2.194   8.722  18.528  0.00  0.00    +0.000 NA
ATOM      9  O   UNL     1      -0.648  11.050  18.894  0.00  0.00    +0.000 OA
ENDROOT
BRANCH   1  11
ATOM     10  O   UNL     1       1.189  12.336  21.510  0.00  0.00    +0.000 OA
ATOM     11  C   UNL     1       0.123  12.336  20.890  0.00  0.00    +0.000 C 
ATOM     12  N   UNL     1      -1.080  12.217  21.533  0.00  0.00    +0.000 N 
ATOM     13  C   UNL     1      -1.207  12.119  22.967  0.00  0.00    +0.000 C 
ATOM     14  C   UNL     1      -2.693  12.114  23.145  0.00  0.00    +0.000 C 
ATOM     15  C   UNL     1      -3.090  13.148  22.117  0.00  0.00    +0.000 C 
ATOM     16  O   UNL     1      -2.152  13.001  21.036  0.00  0.00    +0.000 OA
ENDBRANCH   1  11
BRANCH   8  17
ATOM     17  C   UNL     1       2.160   7.557  17.634  0.00  0.00    +0.000 C 
BRANCH  17  18
ATOM     18  C   UNL     1       2.876   6.335  18.159  0.00  0.00    +0.000 A 
ATOM     19  C   UNL     1       2.188   5.139  18.410  0.00  0.00    +0.000 A 
ATOM     20  C   UNL     1       2.877   4.016  18.872  0.00  0.00    +0.000 A 
ATOM     21  C   UNL     1       4.251   4.090  19.074  0.00  0.00    +0.000 A 
ATOM     22  F   UNL     1       4.912   3.011  19.513  0.00  0.00    +0.000 F 
ATOM     23  C   UNL     1       4.951   5.263  18.822  0.00  0.00    +0.000 A 
ATOM     24  C   UNL     1       4.265   6.384  18.361  0.00  0.00    +0.000 A 
ENDBRANCH  17  18
ENDBRANCH   8  17
TORSDOF 3
ENDMDL
MODEL 9
REMARK VINA RESULT:      -6.8      4.800      8.756
REMARK  Name = 
REMARK  3 active torsions:
REMARK  status: ('A' for Active; 'I' for Inactive)
REMARK    1  A    between atoms: C_2  and  C_3
REMARK    2  A    between atoms: N_10  and  C_11
REMARK    3  A    between atoms: C_11  and  C_12
REMARK                            x       y       z     vdW  Elec       q    Type
REMARK                         _______ _______ _______ _____ _____    ______ ____
ROOT
ATOM      1  C   UNL     1       3.650   3.636  18.918  0.00  0.00    +0.000 C 
ATOM      2  C   UNL     1       3.145   3.253  20.300  0.00  0.00    +0.000 C 
ATOM      3  C   UNL     1       2.534   4.421  21.059  0.00  0.00    +0.000 C 
ATOM      4  C   UNL     1       1.532   5.218  20.204  0.00  0.00    +0.000 C 
ATOM      5  C   UNL     1       2.025   5.398  18.767  0.00  0.00    +0.000 C 
ATOM      6  C   UNL     1       2.958   6.587  18.901  0.00  0.00    +0.000 C 
ATOM      7  C   UNL     1       2.253   7.474  19.908  0.00  0.00    +0.000 C 
ATOM      8  N   UNL     1       1.427   6.589  20.764  0.00  0.00    +0.000 NA
ATOM      9  O   UNL     1       2.576   4.226  18.170  0.00  0.00    +0.000 OA
ENDROOT
BRANCH   1  11
ATOM     10  O   UNL     1       5.738   4.726  19.523  0.00  0.00    +0.000 OA
ATOM     11  C   UNL     1       5.032   4.286  18.613  0.00  0.00    +0.000 C 
ATOM     12  N   UNL     1       5.303   4.560  17.299  0.00  0.00    +0.000 N 
ATOM     13  C   UNL     1       6.437   5.342  16.868  0.00  0.00    +0.000 C 
ATOM     14  C   UNL     1       6.327   5.251  15.379  0.00  0.00    +0.000 C 
ATOM     15  C   UNL     1       5.924   3.802  15.227  0.00  0.00    +0.000 C 
ATOM     16  O   UNL     1       5.102   3.506  16.370  0.00  0.00    +0.000 OA
ENDBRANCH   1  11
BRANCH   8  17
ATOM     17  C   UNL     1       0.059   7.123  20.805  0.00  0.00    +0.000 C 
BRANCH  17  18
ATOM     18  C   UNL     1      -0.048   8.552  21.282  0.00  0.00    +0.000 A 
ATOM     19  C   UNL     1       0.012   9.626  20.381  0.00  0.00    +0.000 A 
ATOM     20  C   UNL     1      -0.114  10.937  20.844  0.00  0.00    +0.000 A 
ATOM     21  C   UNL     1      -0.307  11.170  22.201  0.00  0.00    +0.000 A 
ATOM     22  F   UNL     1      -0.431  12.428  22.644  0.00  0.00    +0.000 F 
ATOM     23  C   UNL     1      -0.377  10.119  23.107  0.00  0.00    +0.000 A 
ATOM     24  C   UNL     1      -0.252   8.810  22.647  0.00  0.00    +0.000 A 
ENDBRANCH  17  18
ENDBRANCH   8  17
TORSDOF 3
ENDMDL
