MODEL 1
REMARK VINA RESULT:      -8.6      0.000      0.000
REMARK  Name = 
REMARK  8 active torsions:
REMARK  status: ('A' for Active; 'I' for Inactive)
REMARK    1  A    between atoms: C_1  and  C_2
REMARK    2  A    between atoms: C_6  and  N_7
REMARK    3  A    between atoms: C_8  and  C_10
REMARK    4  A    between atoms: C_10  and  S_11
REMARK    5  A    between atoms: S_11  and  C_12
REMARK    6  A    between atoms: C_15  and  C_16
REMARK    7  A    between atoms: N_25  and  N_26
REMARK    8  A    between atoms: C_27  and  C_28
REMARK                            x       y       z     vdW  Elec       q    Type
REMARK                         _______ _______ _______ _____ _____    ______ ____
ROOT
ATOM      1  C   UNL     1       2.916   3.113  18.781  0.00  0.00    +0.000 A 
ATOM      2  N   UNL     1       2.038   3.216  17.816  0.00  0.00    +0.000 NA
ATOM      3  N   UNL     1       2.704   3.672  16.700  0.00  0.00    +0.000 NA
ATOM      4  C   UNL     1       3.989   3.821  16.988  0.00  0.00    +0.000 A 
ATOM      5  N   UNL     1       4.158   3.490  18.325  0.00  0.00    +0.000 N 
ENDROOT
BRANCH   4   6
ATOM      6  C   UNL     1       5.050   4.236  16.048  0.00  0.00    +0.000 A 
ATOM      7  C   UNL     1       5.304   3.471  14.895  0.00  0.00    +0.000 A 
ATOM      8  C   UNL     1       6.259   3.866  13.961  0.00  0.00    +0.000 A 
ATOM      9  F   UNL     1       6.414   3.124  12.856  0.00  0.00    +0.000 F 
ATOM     10  C   UNL     1       7.022   5.008  14.164  0.00  0.00    +0.000 A 
ATOM     11 CL   UNL     1       8.200   5.495  13.010  0.00  0.00    +0.000 Cl
ATOM     12  C   UNL     1       6.824   5.766  15.314  0.00  0.00    +0.000 A 
ATOM     13  C   UNL     1       5.844   5.389  16.247  0.00  0.00    +0.000 A 
ATOM     14 CL   UNL     1       5.654   6.447  17.604  0.00  0.00    +0.000 Cl
ENDBRANCH   4   6
BRANCH   5  15
ATOM     15  N   UNL     1       5.382   3.507  19.093  0.00  0.00    +0.000 N 
ATOM     16  H   UNL     1       5.221   3.201  20.051  0.00  0.00    +0.000 HD
ATOM     17  H   UNL     1       5.742   4.460  19.182  0.00  0.00    +0.000 HD
ENDBRANCH   5  15
BRANCH   1  18
ATOM     18  S   UNL     1       2.616   2.442  20.349  0.00  0.00    +0.000 S 
BRANCH  18  19
ATOM     19  C   UNL     1       2.547   3.930  21.386  0.00  0.00    +0.000 C 
BRANCH  19  21
ATOM     20  N   UNL     1       2.546   6.139  20.344  0.00  0.00    +0.000 N 
ATOM     21  C   UNL     1       1.775   5.027  20.657  0.00  0.00    +0.000 C 
ATOM     22  O   UNL     1       0.576   4.872  20.429  0.00  0.00    +0.000 OA
ATOM     23  H   UNL     1       3.530   6.058  20.573  0.00  0.00    +0.000 HD
BRANCH  20  29
ATOM     24  C   UNL     1       0.356  10.675  20.308  0.00  0.00    +0.000 C 
ATOM     25  C   UNL     1       1.085   9.534  19.642  0.00  0.00    +0.000 A 
ATOM     26  C   UNL     1       1.399   9.666  18.284  0.00  0.00    +0.000 A 
ATOM     27  C   UNL     1       2.070   8.653  17.618  0.00  0.00    +0.000 A 
ATOM     28  C   UNL     1       2.436   7.495  18.300  0.00  0.00    +0.000 A 
ATOM     29  C   UNL     1       2.148   7.319  19.662  0.00  0.00    +0.000 A 
ATOM     30  C   UNL     1       1.455   8.354  20.349  0.00  0.00    +0.000 A 
ATOM     31  C   UNL     1       1.072   8.275  21.809  0.00  0.00    +0.000 C 
ENDBRANCH  20  29
ENDBRANCH  19  21
ENDBRANCH  18  19
ENDBRANCH   1  18
TORSDOF 6
ENDMDL
MODEL 2
REMARK VINA RESULT:      -8.4      0.518      1.516
REMARK  Name = 
REMARK  8 active torsions:
REMARK  status: ('A' for Active; 'I' for Inactive)
REMARK    1  A    between atoms: C_1  and  C_2
REMARK    2  A    between atoms: C_6  and  N_7
REMARK    3  A    between atoms: C_8  and  C_10
REMARK    4  A    between atoms: C_10  and  S_11
REMARK    5  A    between atoms: S_11  and  C_12
REMARK    6  A    between atoms: C_15  and  C_16
REMARK    7  A    between atoms: N_25  and  N_26
REMARK    8  A    between atoms: C_27  and  C_28
REMARK                            x       y       z     vdW  Elec       q    Type
REMARK                         _______ _______ _______ _____ _____    ______ ____
ROOT
ATOM      1  C   UNL     1       2.733   2.968  18.621  0.00  0.00    +0.000 A 
ATOM      2  N   UNL     1       1.885   3.250  17.665  0.00  0.00    +0.000 NA
ATOM      3  N   UNL     1       2.608   3.759  16.609  0.00  0.00    +0.000 NA
ATOM      4  C   UNL     1       3.895   3.760  16.921  0.00  0.00    +0.000 A 
ATOM      5  N   UNL     1       4.011   3.277  18.218  0.00  0.00    +0.000 N 
ENDROOT
BRANCH   4   6
ATOM      6  C   UNL     1       5.006   4.174  16.040  0.00  0.00    +0.000 A 
ATOM      7  C   UNL     1       5.197   3.531  14.803  0.00  0.00    +0.000 A 
ATOM      8  C   UNL     1       6.199   3.935  13.925  0.00  0.00    +0.000 A 
ATOM      9  F   UNL     1       6.294   3.318  12.739  0.00  0.00    +0.000 F 
ATOM     10  C   UNL     1       7.071   4.960  14.265  0.00  0.00    +0.000 A 
ATOM     11 CL   UNL     1       8.308   5.459  13.179  0.00  0.00    +0.000 Cl
ATOM     12  C   UNL     1       6.936   5.591  15.497  0.00  0.00    +0.000 A 
ATOM     13  C   UNL     1       5.909   5.209  16.377  0.00  0.00    +0.000 A 
ATOM     14 CL   UNL     1       5.810   6.110  17.852  0.00  0.00    +0.000 Cl
ENDBRANCH   4   6
BRANCH   5  15
ATOM     15  N   UNL     1       5.218   3.105  18.994  0.00  0.00    +0.000 N 
ATOM     16  H   UNL     1       5.103   3.463  19.940  0.00  0.00    +0.000 HD
ATOM     17  H   UNL     1       5.985   3.654  18.600  0.00  0.00    +0.000 HD
ENDBRANCH   5  15
BRANCH   1  18
ATOM     18  S   UNL     1       2.347   2.167  20.107  0.00  0.00    +0.000 S 
BRANCH  18  19
ATOM     19  C   UNL     1       2.486   3.519  21.309  0.00  0.00    +0.000 C 
BRANCH  19  21
ATOM     20  N   UNL     1       2.261   5.930  20.984  0.00  0.00    +0.000 N 
ATOM     21  C   UNL     1       1.630   4.699  20.855  0.00  0.00    +0.000 C 
ATOM     22  O   UNL     1       0.487   4.494  20.448  0.00  0.00    +0.000 OA
ATOM     23  H   UNL     1       3.225   5.888  21.294  0.00  0.00    +0.000 HD
BRANCH  20  29
ATOM     24  C   UNL     1       1.669   9.692  17.687  0.00  0.00    +0.000 C 
ATOM     25  C   UNL     1       1.465   9.048  19.037  0.00  0.00    +0.000 A 
ATOM     26  C   UNL     1       0.720   9.756  19.989  0.00  0.00    +0.000 A 
ATOM     27  C   UNL     1       0.497   9.216  21.245  0.00  0.00    +0.000 A 
ATOM     28  C   UNL     1       1.012   7.962  21.566  0.00  0.00    +0.000 A 
ATOM     29  C   UNL     1       1.759   7.213  20.644  0.00  0.00    +0.000 A 
ATOM     30  C   UNL     1       1.997   7.766  19.355  0.00  0.00    +0.000 A 
ATOM     31  C   UNL     1       2.800   7.066  18.282  0.00  0.00    +0.000 C 
ENDBRANCH  20  29
ENDBRANCH  19  21
ENDBRANCH  18  19
ENDBRANCH   1  18
TORSDOF 6
ENDMDL
MODEL 3
REMARK VINA RESULT:      -7.9      0.951      1.499
REMARK  Name = 
REMARK  8 active torsions:
REMARK  status: ('A' for Active; 'I' for Inactive)
REMARK    1  A    between atoms: C_1  and  C_2
REMARK    2  A    between atoms: C_6  and  N_7
REMARK    3  A    between atoms: C_8  and  C_10
REMARK    4  A    between atoms: C_10  and  S_11
REMARK    5  A    between atoms: S_11  and  C_12
REMARK    6  A    between atoms: C_15  and  C_16
REMARK    7  A    between atoms: N_25  and  N_26
REMARK    8  A    between atoms: C_27  and  C_28
REMARK                            x       y       z     vdW  Elec       q    Type
REMARK                         _______ _______ _______ _____ _____    ______ ____
ROOT
ATOM      1  C   UNL     1       4.169   3.274  19.448  0.00  0.00    +0.000 A 
ATOM      2  N   UNL     1       5.271   3.692  20.020  0.00  0.00    +0.000 NA
ATOM      3  N   UNL     1       6.129   4.091  19.019  0.00  0.00    +0.000 NA
ATOM      4  C   UNL     1       5.534   3.935  17.845  0.00  0.00    +0.000 A 
ATOM      5  N   UNL     1       4.279   3.391  18.082  0.00  0.00    +0.000 N 
ENDROOT
BRANCH   4   6
ATOM      6  C   UNL     1       6.095   4.301  16.529  0.00  0.00    +0.000 A 
ATOM      7  C   UNL     1       5.788   3.527  15.396  0.00  0.00    +0.000 A 
ATOM      8  C   UNL     1       6.255   3.878  14.131  0.00  0.00    +0.000 A 
ATOM      9  F   UNL     1       5.882   3.130  13.084  0.00  0.00    +0.000 F 
ATOM     10  C   UNL     1       7.079   4.982  13.960  0.00  0.00    +0.000 A 
ATOM     11 CL   UNL     1       7.655   5.415  12.398  0.00  0.00    +0.000 Cl
ATOM     12  C   UNL     1       7.436   5.747  15.065  0.00  0.00    +0.000 A 
ATOM     13  C   UNL     1       6.945   5.416  16.340  0.00  0.00    +0.000 A 
ATOM     14 CL   UNL     1       7.412   6.480  17.623  0.00  0.00    +0.000 Cl
ENDBRANCH   4   6
BRANCH   5  15
ATOM     15  N   UNL     1       3.270   3.037  17.109  0.00  0.00    +0.000 N 
ATOM     16  H   UNL     1       2.464   2.602  17.556  0.00  0.00    +0.000 HD
ATOM     17  H   UNL     1       3.622   2.329  16.462  0.00  0.00    +0.000 HD
ENDBRANCH   5  15
BRANCH   1  18
ATOM     18  S   UNL     1       2.722   2.805  20.273  0.00  0.00    +0.000 S 
BRANCH  18  19
ATOM     19  C   UNL     1       2.258   4.341  21.120  0.00  0.00    +0.000 C 
BRANCH  19  21
ATOM     20  N   UNL     1       2.035   6.701  20.529  0.00  0.00    +0.000 N 
ATOM     21  C   UNL     1       1.862   5.396  20.089  0.00  0.00    +0.000 C 
ATOM     22  O   UNL     1       1.415   5.037  19.000  0.00  0.00    +0.000 OA
ATOM     23  H   UNL     1       2.463   6.793  21.444  0.00  0.00    +0.000 HD
BRANCH  20  29
ATOM     24  C   UNL     1      -0.065  11.271  20.238  0.00  0.00    +0.000 C 
ATOM     25  C   UNL     1       0.762  10.138  19.680  0.00  0.00    +0.000 A 
ATOM     26  C   UNL     1       1.320  10.305  18.407  0.00  0.00    +0.000 A 
ATOM     27  C   UNL     1       2.091   9.301  17.843  0.00  0.00    +0.000 A 
ATOM     28  C   UNL     1       2.314   8.118  18.543  0.00  0.00    +0.000 A 
ATOM     29  C   UNL     1       1.781   7.907  19.824  0.00  0.00    +0.000 A 
ATOM     30  C   UNL     1       0.984   8.932  20.405  0.00  0.00    +0.000 A 
ATOM     31  C   UNL     1       0.341   8.817  21.768  0.00  0.00    +0.000 C 
ENDBRANCH  20  29
ENDBRANCH  19  21
ENDBRANCH  18  19
ENDBRANCH   1  18
TORSDOF 6
ENDMDL
MODEL 4
REMARK VINA RESULT:      -7.9      6.603      7.823
REMARK  Name = 
REMARK  8 active torsions:
REMARK  status: ('A' for Active; 'I' for Inactive)
REMARK    1  A    between atoms: C_1  and  C_2
REMARK    2  A    between atoms: C_6  and  N_7
REMARK    3  A    between atoms: C_8  and  C_10
REMARK    4  A    between atoms: C_10  and  S_11
REMARK    5  A    between atoms: S_11  and  C_12
REMARK    6  A    between atoms: C_15  and  C_16
REMARK    7  A    between atoms: N_25  and  N_26
REMARK    8  A    between atoms: C_27  and  C_28
REMARK                            x       y       z     vdW  Elec       q    Type
REMARK                         _______ _______ _______ _____ _____    ______ ____
ROOT
ATOM      1  C   UNL     1       6.931   6.928  17.534  0.00  0.00    +0.000 A 
ATOM      2  N   UNL     1       6.360   7.217  16.391  0.00  0.00    +0.000 NA
ATOM      3  N   UNL     1       5.213   6.461  16.301  0.00  0.00    +0.000 NA
ATOM      4  C   UNL     1       5.080   5.734  17.401  0.00  0.00    +0.000 A 
ATOM      5  N   UNL     1       6.179   5.994  18.208  0.00  0.00    +0.000 N 
ENDROOT
BRANCH   4   6
ATOM      6  C   UNL     1       3.953   4.834  17.720  0.00  0.00    +0.000 A 
ATOM      7  C   UNL     1       4.144   3.441  17.713  0.00  0.00    +0.000 A 
ATOM      8  C   UNL     1       3.117   2.568  18.065  0.00  0.00    +0.000 A 
ATOM      9  F   UNL     1       3.379   1.254  18.092  0.00  0.00    +0.000 F 
ATOM     10  C   UNL     1       1.856   3.049  18.389  0.00  0.00    +0.000 A 
ATOM     11 CL   UNL     1       0.589   1.970  18.823  0.00  0.00    +0.000 Cl
ATOM     12  C   UNL     1       1.621   4.420  18.366  0.00  0.00    +0.000 A 
ATOM     13  C   UNL     1       2.660   5.309  18.041  0.00  0.00    +0.000 A 
ATOM     14 CL   UNL     1       2.256   6.991  18.107  0.00  0.00    +0.000 Cl
ENDBRANCH   4   6
BRANCH   5  15
ATOM     15  N   UNL     1       6.479   5.428  19.504  0.00  0.00    +0.000 N 
ATOM     16  H   UNL     1       5.640   5.359  20.078  0.00  0.00    +0.000 HD
ATOM     17  H   UNL     1       7.105   6.039  20.032  0.00  0.00    +0.000 HD
ENDBRANCH   5  15
BRANCH   1  18
ATOM     18  S   UNL     1       8.324   7.717  18.193  0.00  0.00    +0.000 S 
BRANCH  18  19
ATOM     19  C   UNL     1       7.930   9.467  17.917  0.00  0.00    +0.000 C 
BRANCH  19  21
ATOM     20  N   UNL     1       9.267  11.510  17.864  0.00  0.00    +0.000 N 
ATOM     21  C   UNL     1       8.999  10.342  18.566  0.00  0.00    +0.000 C 
ATOM     22  O   UNL     1       9.543   9.962  19.602  0.00  0.00    +0.000 OA
ATOM     23  H   UNL     1       8.678  11.670  17.054  0.00  0.00    +0.000 HD
BRANCH  20  29
ATOM     24  C   UNL     1      10.586  15.510  20.627  0.00  0.00    +0.000 C 
ATOM     25  C   UNL     1      10.833  14.490  19.542  0.00  0.00    +0.000 A 
ATOM     26  C   UNL     1      12.046  14.562  18.845  0.00  0.00    +0.000 A 
ATOM     27  C   UNL     1      12.332  13.651  17.841  0.00  0.00    +0.000 A 
ATOM     28  C   UNL     1      11.411  12.657  17.520  0.00  0.00    +0.000 A 
ATOM     29  C   UNL     1      10.185  12.541  18.194  0.00  0.00    +0.000 A 
ATOM     30  C   UNL     1       9.885  13.477  19.222  0.00  0.00    +0.000 A 
ATOM     31  C   UNL     1       8.593  13.468  20.007  0.00  0.00    +0.000 C 
ENDBRANCH  20  29
ENDBRANCH  19  21
ENDBRANCH  18  19
ENDBRANCH   1  18
TORSDOF 6
ENDMDL
MODEL 5
REMARK VINA RESULT:      -7.5      6.422      7.694
REMARK  Name = 
REMARK  8 active torsions:
REMARK  status: ('A' for Active; 'I' for Inactive)
REMARK    1  A    between atoms: C_1  and  C_2
REMARK    2  A    between atoms: C_6  and  N_7
REMARK    3  A    between atoms: C_8  and  C_10
REMARK    4  A    between atoms: C_10  and  S_11
REMARK    5  A    between atoms: S_11  and  C_12
REMARK    6  A    between atoms: C_15  and  C_16
REMARK    7  A    between atoms: N_25  and  N_26
REMARK    8  A    between atoms: C_27  and  C_28
REMARK                            x       y       z     vdW  Elec       q    Type
REMARK                         _______ _______ _______ _____ _____    ______ ____
ROOT
ATOM      1  C   UNL     1       6.830   6.851  17.639  0.00  0.00    +0.000 A 
ATOM      2  N   UNL     1       6.270   7.192  16.505  0.00  0.00    +0.000 NA
ATOM      3  N   UNL     1       5.119   6.448  16.373  0.00  0.00    +0.000 NA
ATOM      4  C   UNL     1       4.973   5.675  17.439  0.00  0.00    +0.000 A 
ATOM      5  N   UNL     1       6.068   5.893  18.265  0.00  0.00    +0.000 N 
ENDROOT
BRANCH   4   6
ATOM      6  C   UNL     1       3.838   4.769  17.709  0.00  0.00    +0.000 A 
ATOM      7  C   UNL     1       4.007   3.378  17.589  0.00  0.00    +0.000 A 
ATOM      8  C   UNL     1       2.973   2.495  17.892  0.00  0.00    +0.000 A 
ATOM      9  F   UNL     1       3.214   1.179  17.809  0.00  0.00    +0.000 F 
ATOM     10  C   UNL     1       1.727   2.967  18.280  0.00  0.00    +0.000 A 
ATOM     11 CL   UNL     1       0.451   1.876  18.654  0.00  0.00    +0.000 Cl
ATOM     12  C   UNL     1       1.513   4.339  18.371  0.00  0.00    +0.000 A 
ATOM     13  C   UNL     1       2.559   5.235  18.094  0.00  0.00    +0.000 A 
ATOM     14 CL   UNL     1       2.185   6.912  18.302  0.00  0.00    +0.000 Cl
ENDBRANCH   4   6
BRANCH   5  15
ATOM     15  N   UNL     1       6.353   5.269  19.538  0.00  0.00    +0.000 N 
ATOM     16  H   UNL     1       6.247   5.931  20.304  0.00  0.00    +0.000 HD
ATOM     17  H   UNL     1       7.329   4.970  19.585  0.00  0.00    +0.000 HD
ENDBRANCH   5  15
BRANCH   1  18
ATOM     18  S   UNL     1       8.223   7.601  18.342  0.00  0.00    +0.000 S 
BRANCH  18  19
ATOM     19  C   UNL     1       8.252   9.205  17.494  0.00  0.00    +0.000 C 
BRANCH  19  21
ATOM     20  N   UNL     1       8.769  11.557  17.901  0.00  0.00    +0.000 N 
ATOM     21  C   UNL     1       8.752  10.283  18.452  0.00  0.00    +0.000 C 
ATOM     22  O   UNL     1       9.112   9.964  19.585  0.00  0.00    +0.000 OA
ATOM     23  H   UNL     1       8.387  11.626  16.964  0.00  0.00    +0.000 HD
BRANCH  20  29
ATOM     24  C   UNL     1      12.329  14.656  19.662  0.00  0.00    +0.000 C 
ATOM     25  C   UNL     1      10.893  14.291  19.373  0.00  0.00    +0.000 A 
ATOM     26  C   UNL     1       9.903  15.221  19.716  0.00  0.00    +0.000 A 
ATOM     27  C   UNL     1       8.568  14.944  19.473  0.00  0.00    +0.000 A 
ATOM     28  C   UNL     1       8.204  13.736  18.884  0.00  0.00    +0.000 A 
ATOM     29  C   UNL     1       9.159  12.775  18.517  0.00  0.00    +0.000 A 
ATOM     30  C   UNL     1      10.531  13.052  18.770  0.00  0.00    +0.000 A 
ATOM     31  C   UNL     1      11.651  12.093  18.438  0.00  0.00    +0.000 C 
ENDBRANCH  20  29
ENDBRANCH  19  21
ENDBRANCH  18  19
ENDBRANCH   1  18
TORSDOF 6
ENDMDL
MODEL 6
REMARK VINA RESULT:      -7.5      6.687      7.988
REMARK  Name = 
REMARK  8 active torsions:
REMARK  status: ('A' for Active; 'I' for Inactive)
REMARK    1  A    between atoms: C_1  and  C_2
REMARK    2  A    between atoms: C_6  and  N_7
REMARK    3  A    between atoms: C_8  and  C_10
REMARK    4  A    between atoms: C_10  and  S_11
REMARK    5  A    between atoms: S_11  and  C_12
REMARK    6  A    between atoms: C_15  and  C_16
REMARK    7  A    between atoms: N_25  and  N_26
REMARK    8  A    between atoms: C_27  and  C_28
REMARK                            x       y       z     vdW  Elec       q    Type
REMARK                         _______ _______ _______ _____ _____    ______ ____
ROOT
ATOM      1  C   UNL     1       7.043   6.794  18.267  0.00  0.00    +0.000 A 
ATOM      2  N   UNL     1       7.497   6.036  19.234  0.00  0.00    +0.000 NA
ATOM      3  N   UNL     1       6.506   5.133  19.550  0.00  0.00    +0.000 NA
ATOM      4  C   UNL     1       5.464   5.332  18.757  0.00  0.00    +0.000 A 
ATOM      5  N   UNL     1       5.766   6.408  17.932  0.00  0.00    +0.000 N 
ENDROOT
BRANCH   4   6
ATOM      6  C   UNL     1       4.220   4.536  18.736  0.00  0.00    +0.000 A 
ATOM      7  C   UNL     1       4.259   3.183  18.354  0.00  0.00    +0.000 A 
ATOM      8  C   UNL     1       3.114   2.391  18.379  0.00  0.00    +0.000 A 
ATOM      9  F   UNL     1       3.228   1.095  18.056  0.00  0.00    +0.000 F 
ATOM     10  C   UNL     1       1.886   2.928  18.740  0.00  0.00    +0.000 A 
ATOM     11 CL   UNL     1       0.472   1.949  18.770  0.00  0.00    +0.000 Cl
ATOM     12  C   UNL     1       1.803   4.273  19.084  0.00  0.00    +0.000 A 
ATOM     13  C   UNL     1       2.959   5.073  19.090  0.00  0.00    +0.000 A 
ATOM     14 CL   UNL     1       2.735   6.713  19.594  0.00  0.00    +0.000 Cl
ENDBRANCH   4   6
BRANCH   5  15
ATOM     15  N   UNL     1       4.934   7.000  16.909  0.00  0.00    +0.000 N 
ATOM     16  H   UNL     1       4.747   6.338  16.157  0.00  0.00    +0.000 HD
ATOM     17  H   UNL     1       5.414   7.779  16.456  0.00  0.00    +0.000 HD
ENDBRANCH   5  15
BRANCH   1  18
ATOM     18  S   UNL     1       7.955   7.990  17.411  0.00  0.00    +0.000 S 
BRANCH  18  19
ATOM     19  C   UNL     1       8.749   8.897  18.767  0.00  0.00    +0.000 C 
BRANCH  19  21
ATOM     20  N   UNL     1      10.117  10.918  18.874  0.00  0.00    +0.000 N 
ATOM     21  C   UNL     1       8.959  10.353  18.357  0.00  0.00    +0.000 C 
ATOM     22  O   UNL     1       8.118  10.908  17.651  0.00  0.00    +0.000 OA
ATOM     23  H   UNL     1      10.710  10.283  19.397  0.00  0.00    +0.000 HD
BRANCH  20  29
ATOM     24  C   UNL     1      11.187  15.523  20.615  0.00  0.00    +0.000 C 
ATOM     25  C   UNL     1      11.142  14.478  19.526  0.00  0.00    +0.000 A 
ATOM     26  C   UNL     1      11.641  14.831  18.265  0.00  0.00    +0.000 A 
ATOM     27  C   UNL     1      11.629  13.915  17.226  0.00  0.00    +0.000 A 
ATOM     28  C   UNL     1      11.120  12.635  17.432  0.00  0.00    +0.000 A 
ATOM     29  C   UNL     1      10.615  12.233  18.679  0.00  0.00    +0.000 A 
ATOM     30  C   UNL     1      10.620  13.172  19.747  0.00  0.00    +0.000 A 
ATOM     31  C   UNL     1      10.088  12.867  21.129  0.00  0.00    +0.000 C 
ENDBRANCH  20  29
ENDBRANCH  19  21
ENDBRANCH  18  19
ENDBRANCH   1  18
TORSDOF 6
ENDMDL
MODEL 7
REMARK VINA RESULT:      -7.5      4.559      6.409
REMARK  Name = 
REMARK  8 active torsions:
REMARK  status: ('A' for Active; 'I' for Inactive)
REMARK    1  A    between atoms: C_1  and  C_2
REMARK    2  A    between atoms: C_6  and  N_7
REMARK    3  A    between atoms: C_8  and  C_10
REMARK    4  A    between atoms: C_10  and  S_11
REMARK    5  A    between atoms: S_11  and  C_12
REMARK    6  A    between atoms: C_15  and  C_16
REMARK    7  A    between atoms: N_25  and  N_26
REMARK    8  A    between atoms: C_27  and  C_28
REMARK                            x       y       z     vdW  Elec       q    Type
REMARK                         _______ _______ _______ _____ _____    ______ ____
ROOT
ATOM      1  C   UNL     1       1.428   9.395  19.405  0.00  0.00    +0.000 A 
ATOM      2  N   UNL     1       1.604   9.565  18.119  0.00  0.00    +0.000 NA
ATOM      3  N   UNL     1       2.078   8.377  17.607  0.00  0.00    +0.000 NA
ATOM      4  C   UNL     1       2.165   7.485  18.582  0.00  0.00    +0.000 A 
ATOM      5  N   UNL     1       1.775   8.112  19.758  0.00  0.00    +0.000 N 
ENDROOT
BRANCH   4   6
ATOM      6  C   UNL     1       2.575   6.074  18.438  0.00  0.00    +0.000 A 
ATOM      7  C   UNL     1       1.709   5.045  18.850  0.00  0.00    +0.000 A 
ATOM      8  C   UNL     1       2.042   3.704  18.675  0.00  0.00    +0.000 A 
ATOM      9  F   UNL     1       1.150   2.773  19.039  0.00  0.00    +0.000 F 
ATOM     10  C   UNL     1       3.265   3.342  18.127  0.00  0.00    +0.000 A 
ATOM     11 CL   UNL     1       3.676   1.686  17.911  0.00  0.00    +0.000 Cl
ATOM     12  C   UNL     1       4.163   4.334  17.745  0.00  0.00    +0.000 A 
ATOM     13  C   UNL     1       3.822   5.689  17.892  0.00  0.00    +0.000 A 
ATOM     14 CL   UNL     1       4.999   6.824  17.325  0.00  0.00    +0.000 Cl
ENDBRANCH   4   6
BRANCH   5  15
ATOM     15  N   UNL     1       1.715   7.544  21.086  0.00  0.00    +0.000 N 
ATOM     16  H   UNL     1       2.497   6.913  21.253  0.00  0.00    +0.000 HD
ATOM     17  H   UNL     1       0.883   6.961  21.195  0.00  0.00    +0.000 HD
ENDBRANCH   5  15
BRANCH   1  18
ATOM     18  S   UNL     1       0.709  10.542  20.484  0.00  0.00    +0.000 S 
BRANCH  18  19
ATOM     19  C   UNL     1       0.927  12.098  19.576  0.00  0.00    +0.000 C 
BRANCH  19  21
ATOM     20  N   UNL     1      -1.401  11.555  19.071  0.00  0.00    +0.000 N 
ATOM     21  C   UNL     1      -0.358  12.438  18.824  0.00  0.00    +0.000 C 
ATOM     22  O   UNL     1      -0.376  13.408  18.068  0.00  0.00    +0.000 OA
ATOM     23  H   UNL     1      -1.205  10.842  19.766  0.00  0.00    +0.000 HD
BRANCH  20  29
ATOM     24  C   UNL     1      -6.264  12.802  19.484  0.00  0.00    +0.000 C 
ATOM     25  C   UNL     1      -5.093  12.199  18.747  0.00  0.00    +0.000 A 
ATOM     26  C   UNL     1      -5.330  11.665  17.474  0.00  0.00    +0.000 A 
ATOM     27  C   UNL     1      -4.294  11.100  16.748  0.00  0.00    +0.000 A 
ATOM     28  C   UNL     1      -3.009  11.061  17.282  0.00  0.00    +0.000 A 
ATOM     29  C   UNL     1      -2.721  11.588  18.551  0.00  0.00    +0.000 A 
ATOM     30  C   UNL     1      -3.782  12.164  19.303  0.00  0.00    +0.000 A 
ATOM     31  C   UNL     1      -3.603  12.747  20.686  0.00  0.00    +0.000 C 
ENDBRANCH  20  29
ENDBRANCH  19  21
ENDBRANCH  18  19
ENDBRANCH   1  18
TORSDOF 6
ENDMDL
MODEL 8
REMARK VINA RESULT:      -7.5      4.521      6.488
REMARK  Name = 
REMARK  8 active torsions:
REMARK  status: ('A' for Active; 'I' for Inactive)
REMARK    1  A    between atoms: C_1  and  C_2
REMARK    2  A    between atoms: C_6  and  N_7
REMARK    3  A    between atoms: C_8  and  C_10
REMARK    4  A    between atoms: C_10  and  S_11
REMARK    5  A    between atoms: S_11  and  C_12
REMARK    6  A    between atoms: C_15  and  C_16
REMARK    7  A    between atoms: N_25  and  N_26
REMARK    8  A    between atoms: C_27  and  C_28
REMARK                            x       y       z     vdW  Elec       q    Type
REMARK                         _______ _______ _______ _____ _____    ______ ____
ROOT
ATOM      1  C   UNL     1       1.652   9.241  19.032  0.00  0.00    +0.000 A 
ATOM      2  N   UNL     1       1.896   9.374  17.752  0.00  0.00    +0.000 NA
ATOM      3  N   UNL     1       2.348   8.158  17.290  0.00  0.00    +0.000 NA
ATOM      4  C   UNL     1       2.354   7.286  18.287  0.00  0.00    +0.000 A 
ATOM      5  N   UNL     1       1.932   7.955  19.428  0.00  0.00    +0.000 N 
ENDROOT
BRANCH   4   6
ATOM      6  C   UNL     1       2.717   5.858  18.193  0.00  0.00    +0.000 A 
ATOM      7  C   UNL     1       1.743   4.870  18.422  0.00  0.00    +0.000 A 
ATOM      8  C   UNL     1       2.039   3.516  18.285  0.00  0.00    +0.000 A 
ATOM      9  F   UNL     1       1.053   2.626  18.464  0.00  0.00    +0.000 F 
ATOM     10  C   UNL     1       3.323   3.099  17.961  0.00  0.00    +0.000 A 
ATOM     11 CL   UNL     1       3.688   1.426  17.792  0.00  0.00    +0.000 Cl
ATOM     12  C   UNL     1       4.321   4.048  17.766  0.00  0.00    +0.000 A 
ATOM     13  C   UNL     1       4.023   5.417  17.874  0.00  0.00    +0.000 A 
ATOM     14 CL   UNL     1       5.335   6.498  17.551  0.00  0.00    +0.000 Cl
ENDBRANCH   4   6
BRANCH   5  15
ATOM     15  N   UNL     1       1.787   7.420  20.764  0.00  0.00    +0.000 N 
ATOM     16  H   UNL     1       1.653   8.164  21.446  0.00  0.00    +0.000 HD
ATOM     17  H   UNL     1       2.642   6.946  21.061  0.00  0.00    +0.000 HD
ENDBRANCH   5  15
BRANCH   1  18
ATOM     18  S   UNL     1       0.925  10.438  20.049  0.00  0.00    +0.000 S 
BRANCH  18  19
ATOM     19  C   UNL     1       1.066  11.932  19.029  0.00  0.00    +0.000 C 
BRANCH  19  21
ATOM     20  N   UNL     1      -1.336  11.859  19.470  0.00  0.00    +0.000 N 
ATOM     21  C   UNL     1      -0.309  12.577  18.872  0.00  0.00    +0.000 C 
ATOM     22  O   UNL     1      -0.415  13.625  18.236  0.00  0.00    +0.000 OA
ATOM     23  H   UNL     1      -1.041  11.041  19.992  0.00  0.00    +0.000 HD
BRANCH  20  29
ATOM     24  C   UNL     1      -6.039  11.373  17.732  0.00  0.00    +0.000 C 
ATOM     25  C   UNL     1      -5.013  11.942  18.682  0.00  0.00    +0.000 A 
ATOM     26  C   UNL     1      -5.463  12.818  19.678  0.00  0.00    +0.000 A 
ATOM     27  C   UNL     1      -4.570  13.371  20.581  0.00  0.00    +0.000 A 
ATOM     28  C   UNL     1      -3.215  13.057  20.501  0.00  0.00    +0.000 A 
ATOM     29  C   UNL     1      -2.717  12.181  19.524  0.00  0.00    +0.000 A 
ATOM     30  C   UNL     1      -3.630  11.615  18.591  0.00  0.00    +0.000 A 
ATOM     31  C   UNL     1      -3.215  10.674  17.484  0.00  0.00    +0.000 C 
ENDBRANCH  20  29
ENDBRANCH  19  21
ENDBRANCH  18  19
ENDBRANCH   1  18
TORSDOF 6
ENDMDL
MODEL 9
REMARK VINA RESULT:      -7.4      4.751      6.556
REMARK  Name = 
REMARK  8 active torsions:
REMARK  status: ('A' for Active; 'I' for Inactive)
REMARK    1  A    between atoms: C_1  and  C_2
REMARK    2  A    between atoms: C_6  and  N_7
REMARK    3  A    between atoms: C_8  and  C_10
REMARK    4  A    between atoms: C_10  and  S_11
REMARK    5  A    between atoms: S_11  and  C_12
REMARK    6  A    between atoms: C_15  and  C_16
REMARK    7  A    between atoms: N_25  and  N_26
REMARK    8  A    between atoms: C_27  and  C_28
REMARK                            x       y       z     vdW  Elec       q    Type
REMARK                         _______ _______ _______ _____ _____    ______ ____
ROOT
ATOM      1  C   UNL     1       1.582   9.388  18.938  0.00  0.00    +0.000 A 
ATOM      2  N   UNL     1       1.850   9.512  17.662  0.00  0.00    +0.000 NA
ATOM      3  N   UNL     1       2.340   8.302  17.223  0.00  0.00    +0.000 NA
ATOM      4  C   UNL     1       2.345   7.442  18.230  0.00  0.00    +0.000 A 
ATOM      5  N   UNL     1       1.884   8.113  19.355  0.00  0.00    +0.000 N 
ENDROOT
BRANCH   4   6
ATOM      6  C   UNL     1       2.743   6.021  18.160  0.00  0.00    +0.000 A 
ATOM      7  C   UNL     1       1.792   5.013  18.397  0.00  0.00    +0.000 A 
ATOM      8  C   UNL     1       2.122   3.665  18.283  0.00  0.00    +0.000 A 
ATOM      9  F   UNL     1       1.155   2.755  18.467  0.00  0.00    +0.000 F 
ATOM     10  C   UNL     1       3.418   3.275  17.974  0.00  0.00    +0.000 A 
ATOM     11 CL   UNL     1       3.824   1.609  17.833  0.00  0.00    +0.000 Cl
ATOM     12  C   UNL     1       4.394   4.245  17.773  0.00  0.00    +0.000 A 
ATOM     13  C   UNL     1       4.062   5.608  17.858  0.00  0.00    +0.000 A 
ATOM     14 CL   UNL     1       5.351   6.716  17.528  0.00  0.00    +0.000 Cl
ENDBRANCH   4   6
BRANCH   5  15
ATOM     15  N   UNL     1       1.723   7.590  20.693  0.00  0.00    +0.000 N 
ATOM     16  H   UNL     1       0.827   7.116  20.798  0.00  0.00    +0.000 HD
ATOM     17  H   UNL     1       1.699   8.347  21.379  0.00  0.00    +0.000 HD
ENDBRANCH   5  15
BRANCH   1  18
ATOM     18  S   UNL     1       0.806  10.579  19.926  0.00  0.00    +0.000 S 
BRANCH  18  19
ATOM     19  C   UNL     1      -0.095  11.559  18.693  0.00  0.00    +0.000 C 
BRANCH  19  21
ATOM     20  N   UNL     1      -2.469  12.118  18.814  0.00  0.00    +0.000 N 
ATOM     21  C   UNL     1      -1.548  11.096  18.632  0.00  0.00    +0.000 C 
ATOM     22  O   UNL     1      -1.794   9.903  18.458  0.00  0.00    +0.000 OA
ATOM     23  H   UNL     1      -2.070  13.047  18.896  0.00  0.00    +0.000 HD
BRANCH  20  29
ATOM     24  C   UNL     1      -6.934  12.742  21.062  0.00  0.00    +0.000 C 
ATOM     25  C   UNL     1      -6.066  12.343  19.894  0.00  0.00    +0.000 A 
ATOM     26  C   UNL     1      -6.705  11.889  18.733  0.00  0.00    +0.000 A 
ATOM     27  C   UNL     1      -5.962  11.511  17.627  0.00  0.00    +0.000 A 
ATOM     28  C   UNL     1      -4.572  11.582  17.664  0.00  0.00    +0.000 A 
ATOM     29  C   UNL     1      -3.886  12.036  18.802  0.00  0.00    +0.000 A 
ATOM     30  C   UNL     1      -4.645  12.419  19.943  0.00  0.00    +0.000 A 
ATOM     31  C   UNL     1      -4.024  12.907  21.232  0.00  0.00    +0.000 C 
ENDBRANCH  20  29
ENDBRANCH  19  21
ENDBRANCH  18  19
ENDBRANCH   1  18
TORSDOF 6
ENDMDL
