MODEL 1
REMARK VINA RESULT:      -6.9      0.000      0.000
REMARK  Name = 
REMARK  9 active torsions:
REMARK  status: ('A' for Active; 'I' for Inactive)
REMARK    1  A    between atoms: C_1  and  O_2
REMARK    2  A    between atoms: O_2  and  C_3
REMARK    3  A    between atoms: C_3  and  C_5
REMARK    4  A    between atoms: C_6  and  O_7
REMARK    5  A    between atoms: C_8  and  C_9
REMARK    6  A    between atoms: N_10  and  C_11
REMARK    7  A    between atoms: C_11  and  C_12
REMARK    8  A    between atoms: C_21  and  C_22
REMARK    9  A    between atoms: C_21  and  C_23
REMARK                            x       y       z     vdW  Elec       q    Type
REMARK                         _______ _______ _______ _____ _____    ______ ____
ROOT
ATOM      1  C   UNL     1       3.712   4.479  17.391  0.00  0.00    +0.000 C 
ATOM      2  C   UNL     1       3.413   5.901  17.855  0.00  0.00    +0.000 C 
ATOM      3  C   UNL     1       2.601   6.194  18.892  0.00  0.00    +0.000 C 
ATOM      4  C   UNL     1       1.946   5.091  19.650  0.00  0.00    +0.000 C 
ATOM      5  O   UNL     1       1.308   5.327  20.673  0.00  0.00    +0.000 OA
ATOM      6  C   UNL     1       1.996   3.694  19.064  0.00  0.00    +0.000 C 
ATOM      7  C   UNL     1       3.362   3.370  18.429  0.00  0.00    +0.000 C 
ATOM      8  C   UNL     1       3.252   2.014  17.702  0.00  0.00    +0.000 C 
ATOM      9  C   UNL     1       4.400   3.222  19.565  0.00  0.00    +0.000 C 
ENDROOT
BRANCH   1  10
ATOM     10  C   UNL     1       5.162   4.384  16.906  0.00  0.00    +0.000 C 
ATOM     11  O   UNL     1       5.559   3.669  15.991  0.00  0.00    +0.000 OA
BRANCH  10  13
ATOM     12  C   UNL     1       7.357   4.769  17.631  0.00  0.00    +0.000 C 
ATOM     13  O   UNL     1       5.976   5.140  17.698  0.00  0.00    +0.000 OA
ENDBRANCH  10  13
ENDBRANCH   1  10
BRANCH   2  14
ATOM     14  O   UNL     1       3.994   6.921  17.118  0.00  0.00    +0.000 OA
ATOM     15  H   UNL     1       3.919   6.786  16.161  0.00  0.00    +0.000 HD
ENDBRANCH   2  14
BRANCH   3  16
ATOM     16  C   UNL     1       2.295   7.607  19.274  0.00  0.00    +0.000 C 
ATOM     17  N   UNL     1       1.784   8.458  18.454  0.00  0.00    +0.000 NA
BRANCH  17  18
ATOM     18  C   UNL     1       1.491   9.789  18.973  0.00  0.00    +0.000 C 
BRANCH  18  19
ATOM     19  C   UNL     1       0.060  10.161  18.647  0.00  0.00    +0.000 A 
ATOM     20  C   UNL     1      -0.606   9.585  17.557  0.00  0.00    +0.000 A 
ATOM     21  C   UNL     1      -1.908   9.974  17.236  0.00  0.00    +0.000 A 
ATOM     22  C   UNL     1      -2.561  10.939  18.002  0.00  0.00    +0.000 A 
ATOM     23  C   UNL     1      -1.916  11.506  19.101  0.00  0.00    +0.000 A 
ATOM     24  C   UNL     1      -0.614  11.118  19.421  0.00  0.00    +0.000 A 
ENDBRANCH  18  19
ENDBRANCH  17  18
ENDBRANCH   3  16
TORSDOF 6
ENDMDL
MODEL 2
REMARK VINA RESULT:      -6.9      1.868      3.457
REMARK  Name = 
REMARK  9 active torsions:
REMARK  status: ('A' for Active; 'I' for Inactive)
REMARK    1  A    between atoms: C_1  and  O_2
REMARK    2  A    between atoms: O_2  and  C_3
REMARK    3  A    between atoms: C_3  and  C_5
REMARK    4  A    between atoms: C_6  and  O_7
REMARK    5  A    between atoms: C_8  and  C_9
REMARK    6  A    between atoms: N_10  and  C_11
REMARK    7  A    between atoms: C_11  and  C_12
REMARK    8  A    between atoms: C_21  and  C_22
REMARK    9  A    between atoms: C_21  and  C_23
REMARK                            x       y       z     vdW  Elec       q    Type
REMARK                         _______ _______ _______ _____ _____    ______ ____
ROOT
ATOM      1  C   UNL     1       2.837   5.454  19.985  0.00  0.00    +0.000 C 
ATOM      2  C   UNL     1       2.211   6.839  19.854  0.00  0.00    +0.000 C 
ATOM      3  C   UNL     1       2.435   7.666  18.811  0.00  0.00    +0.000 C 
ATOM      4  C   UNL     1       3.338   7.232  17.708  0.00  0.00    +0.000 C 
ATOM      5  O   UNL     1       3.455   7.912  16.691  0.00  0.00    +0.000 OA
ATOM      6  C   UNL     1       4.186   5.995  17.924  0.00  0.00    +0.000 C 
ATOM      7  C   UNL     1       3.421   4.877  18.660  0.00  0.00    +0.000 C 
ATOM      8  C   UNL     1       4.416   3.747  18.997  0.00  0.00    +0.000 C 
ATOM      9  C   UNL     1       2.354   4.307  17.699  0.00  0.00    +0.000 C 
ENDROOT
BRANCH   1  10
ATOM     10  C   UNL     1       1.844   4.495  20.650  0.00  0.00    +0.000 C 
ATOM     11  O   UNL     1       0.641   4.444  20.415  0.00  0.00    +0.000 OA
BRANCH  10  13
ATOM     12  C   UNL     1       1.873   2.482  21.847  0.00  0.00    +0.000 C 
ATOM     13  O   UNL     1       2.469   3.761  21.615  0.00  0.00    +0.000 OA
ENDBRANCH  10  13
ENDBRANCH   1  10
BRANCH   2  14
ATOM     14  O   UNL     1       1.405   7.250  20.905  0.00  0.00    +0.000 OA
ATOM     15  H   UNL     1       1.822   7.930  21.457  0.00  0.00    +0.000 HD
ENDBRANCH   2  14
BRANCH   3  16
ATOM     16  C   UNL     1       1.841   9.037  18.755  0.00  0.00    +0.000 C 
ATOM     17  N   UNL     1       0.646   9.298  19.155  0.00  0.00    +0.000 NA
BRANCH  17  18
ATOM     18  C   UNL     1       0.210  10.688  19.089  0.00  0.00    +0.000 C 
BRANCH  18  19
ATOM     19  C   UNL     1      -1.186  10.759  18.507  0.00  0.00    +0.000 A 
ATOM     20  C   UNL     1      -1.555   9.960  17.416  0.00  0.00    +0.000 A 
ATOM     21  C   UNL     1      -2.829  10.072  16.854  0.00  0.00    +0.000 A 
ATOM     22  C   UNL     1      -3.749  10.978  17.379  0.00  0.00    +0.000 A 
ATOM     23  C   UNL     1      -3.401  11.765  18.476  0.00  0.00    +0.000 A 
ATOM     24  C   UNL     1      -2.127  11.655  19.036  0.00  0.00    +0.000 A 
ENDBRANCH  18  19
ENDBRANCH  17  18
ENDBRANCH   3  16
TORSDOF 6
ENDMDL
MODEL 3
REMARK VINA RESULT:      -6.8      0.354      1.020
REMARK  Name = 
REMARK  9 active torsions:
REMARK  status: ('A' for Active; 'I' for Inactive)
REMARK    1  A    between atoms: C_1  and  O_2
REMARK    2  A    between atoms: O_2  and  C_3
REMARK    3  A    between atoms: C_3  and  C_5
REMARK    4  A    between atoms: C_6  and  O_7
REMARK    5  A    between atoms: C_8  and  C_9
REMARK    6  A    between atoms: N_10  and  C_11
REMARK    7  A    between atoms: C_11  and  C_12
REMARK    8  A    between atoms: C_21  and  C_22
REMARK    9  A    between atoms: C_21  and  C_23
REMARK                            x       y       z     vdW  Elec       q    Type
REMARK                         _______ _______ _______ _____ _____    ______ ____
ROOT
ATOM      1  C   UNL     1       3.733   4.485  17.364  0.00  0.00    +0.000 C 
ATOM      2  C   UNL     1       3.455   5.912  17.830  0.00  0.00    +0.000 C 
ATOM      3  C   UNL     1       2.661   6.216  18.877  0.00  0.00    +0.000 C 
ATOM      4  C   UNL     1       2.006   5.121  19.647  0.00  0.00    +0.000 C 
ATOM      5  O   UNL     1       1.385   5.366  20.679  0.00  0.00    +0.000 OA
ATOM      6  C   UNL     1       2.032   3.723  19.063  0.00  0.00    +0.000 C 
ATOM      7  C   UNL     1       3.386   3.383  18.410  0.00  0.00    +0.000 C 
ATOM      8  C   UNL     1       3.250   2.026  17.687  0.00  0.00    +0.000 C 
ATOM      9  C   UNL     1       4.438   3.225  19.531  0.00  0.00    +0.000 C 
ENDROOT
BRANCH   1  10
ATOM     10  C   UNL     1       5.174   4.374  16.859  0.00  0.00    +0.000 C 
ATOM     11  O   UNL     1       5.553   3.640  15.951  0.00  0.00    +0.000 OA
BRANCH  10  13
ATOM     12  C   UNL     1       7.362   4.690  17.635  0.00  0.00    +0.000 C 
ATOM     13  O   UNL     1       6.004   5.140  17.623  0.00  0.00    +0.000 OA
ENDBRANCH  10  13
ENDBRANCH   1  10
BRANCH   2  14
ATOM     14  O   UNL     1       4.036   6.924  17.082  0.00  0.00    +0.000 OA
ATOM     15  H   UNL     1       4.218   6.662  16.166  0.00  0.00    +0.000 HD
ENDBRANCH   2  14
BRANCH   3  16
ATOM     16  C   UNL     1       2.376   7.633  19.260  0.00  0.00    +0.000 C 
ATOM     17  N   UNL     1       1.676   8.427  18.529  0.00  0.00    +0.000 NA
BRANCH  17  18
ATOM     18  C   UNL     1       1.434   9.770  19.046  0.00  0.00    +0.000 C 
BRANCH  18  19
ATOM     19  C   UNL     1       0.153  10.320  18.459  0.00  0.00    +0.000 A 
ATOM     20  C   UNL     1      -0.264  11.631  18.733  0.00  0.00    +0.000 A 
ATOM     21  C   UNL     1      -1.474  12.110  18.228  0.00  0.00    +0.000 A 
ATOM     22  C   UNL     1      -2.279  11.289  17.440  0.00  0.00    +0.000 A 
ATOM     23  C   UNL     1      -1.868   9.990  17.144  0.00  0.00    +0.000 A 
ATOM     24  C   UNL     1      -0.659   9.510  17.650  0.00  0.00    +0.000 A 
ENDBRANCH  18  19
ENDBRANCH  17  18
ENDBRANCH   3  16
TORSDOF 6
ENDMDL
MODEL 4
REMARK VINA RESULT:      -6.8      1.316      1.745
REMARK  Name = 
REMARK  9 active torsions:
REMARK  status: ('A' for Active; 'I' for Inactive)
REMARK    1  A    between atoms: C_1  and  O_2
REMARK    2  A    between atoms: O_2  and  C_3
REMARK    3  A    between atoms: C_3  and  C_5
REMARK    4  A    between atoms: C_6  and  O_7
REMARK    5  A    between atoms: C_8  and  C_9
REMARK    6  A    between atoms: N_10  and  C_11
REMARK    7  A    between atoms: C_11  and  C_12
REMARK    8  A    between atoms: C_21  and  C_22
REMARK    9  A    between atoms: C_21  and  C_23
REMARK                            x       y       z     vdW  Elec       q    Type
REMARK                         _______ _______ _______ _____ _____    ______ ____
ROOT
ATOM      1  C   UNL     1       3.999   5.976  17.205  0.00  0.00    +0.000 C 
ATOM      2  C   UNL     1       3.296   7.134  17.906  0.00  0.00    +0.000 C 
ATOM      3  C   UNL     1       2.566   6.996  19.032  0.00  0.00    +0.000 C 
ATOM      4  C   UNL     1       2.421   5.650  19.655  0.00  0.00    +0.000 C 
ATOM      5  O   UNL     1       1.871   5.521  20.746  0.00  0.00    +0.000 OA
ATOM      6  C   UNL     1       2.867   4.442  18.856  0.00  0.00    +0.000 C 
ATOM      7  C   UNL     1       4.175   4.699  18.081  0.00  0.00    +0.000 C 
ATOM      8  C   UNL     1       4.441   3.488  17.161  0.00  0.00    +0.000 C 
ATOM      9  C   UNL     1       5.332   4.789  19.101  0.00  0.00    +0.000 C 
ENDROOT
BRANCH   1  10
ATOM     10  C   UNL     1       5.325   6.457  16.607  0.00  0.00    +0.000 C 
ATOM     11  O   UNL     1       5.805   6.072  15.545  0.00  0.00    +0.000 OA
BRANCH  10  13
ATOM     12  C   UNL     1       7.378   7.258  17.402  0.00  0.00    +0.000 C 
ATOM     13  O   UNL     1       5.950   7.311  17.467  0.00  0.00    +0.000 OA
ENDBRANCH  10  13
ENDBRANCH   1  10
BRANCH   2  14
ATOM     14  O   UNL     1       3.403   8.375  17.296  0.00  0.00    +0.000 OA
ATOM     15  H   UNL     1       2.683   8.552  16.670  0.00  0.00    +0.000 HD
ENDBRANCH   2  14
BRANCH   3  16
ATOM     16  C   UNL     1       1.849   8.153  19.650  0.00  0.00    +0.000 C 
ATOM     17  N   UNL     1       1.261   9.063  18.956  0.00  0.00    +0.000 NA
BRANCH  17  18
ATOM     18  C   UNL     1       0.557  10.110  19.689  0.00  0.00    +0.000 C 
BRANCH  18  19
ATOM     19  C   UNL     1      -0.691  10.513  18.933  0.00  0.00    +0.000 A 
ATOM     20  C   UNL     1      -1.578  11.462  19.458  0.00  0.00    +0.000 A 
ATOM     21  C   UNL     1      -2.753  11.787  18.775  0.00  0.00    +0.000 A 
ATOM     22  C   UNL     1      -3.051  11.173  17.560  0.00  0.00    +0.000 A 
ATOM     23  C   UNL     1      -2.166  10.241  17.018  0.00  0.00    +0.000 A 
ATOM     24  C   UNL     1      -0.993   9.915  17.700  0.00  0.00    +0.000 A 
ENDBRANCH  18  19
ENDBRANCH  17  18
ENDBRANCH   3  16
TORSDOF 6
ENDMDL
MODEL 5
REMARK VINA RESULT:      -6.8      1.210      1.732
REMARK  Name = 
REMARK  9 active torsions:
REMARK  status: ('A' for Active; 'I' for Inactive)
REMARK    1  A    between atoms: C_1  and  O_2
REMARK    2  A    between atoms: O_2  and  C_3
REMARK    3  A    between atoms: C_3  and  C_5
REMARK    4  A    between atoms: C_6  and  O_7
REMARK    5  A    between atoms: C_8  and  C_9
REMARK    6  A    between atoms: N_10  and  C_11
REMARK    7  A    between atoms: C_11  and  C_12
REMARK    8  A    between atoms: C_21  and  C_22
REMARK    9  A    between atoms: C_21  and  C_23
REMARK                            x       y       z     vdW  Elec       q    Type
REMARK                         _______ _______ _______ _____ _____    ______ ____
ROOT
ATOM      1  C   UNL     1       3.840   5.725  17.373  0.00  0.00    +0.000 C 
ATOM      2  C   UNL     1       3.222   6.909  18.112  0.00  0.00    +0.000 C 
ATOM      3  C   UNL     1       2.484   6.788  19.234  0.00  0.00    +0.000 C 
ATOM      4  C   UNL     1       2.242   5.437  19.814  0.00  0.00    +0.000 C 
ATOM      5  O   UNL     1       1.683   5.314  20.902  0.00  0.00    +0.000 OA
ATOM      6  C   UNL     1       2.599   4.226  18.977  0.00  0.00    +0.000 C 
ATOM      7  C   UNL     1       3.922   4.411  18.208  0.00  0.00    +0.000 C 
ATOM      8  C   UNL     1       4.100   3.215  17.249  0.00  0.00    +0.000 C 
ATOM      9  C   UNL     1       5.083   4.386  19.228  0.00  0.00    +0.000 C 
ENDROOT
BRANCH   1  10
ATOM     10  C   UNL     1       5.197   6.128  16.788  0.00  0.00    +0.000 C 
ATOM     11  O   UNL     1       6.061   6.771  17.376  0.00  0.00    +0.000 OA
BRANCH  10  13
ATOM     12  C   UNL     1       6.481   5.050  15.151  0.00  0.00    +0.000 C 
ATOM     13  O   UNL     1       5.278   5.751  15.479  0.00  0.00    +0.000 OA
ENDBRANCH  10  13
ENDBRANCH   1  10
BRANCH   2  14
ATOM     14  O   UNL     1       3.419   8.157  17.541  0.00  0.00    +0.000 OA
ATOM     15  H   UNL     1       2.597   8.559  17.220  0.00  0.00    +0.000 HD
ENDBRANCH   2  14
BRANCH   3  16
ATOM     16  C   UNL     1       1.853   7.974  19.890  0.00  0.00    +0.000 C 
ATOM     17  N   UNL     1       1.338   8.949  19.226  0.00  0.00    +0.000 NA
BRANCH  17  18
ATOM     18  C   UNL     1       0.712  10.020  19.993  0.00  0.00    +0.000 C 
BRANCH  18  19
ATOM     19  C   UNL     1      -0.502  10.537  19.252  0.00  0.00    +0.000 A 
ATOM     20  C   UNL     1      -1.339  11.506  19.822  0.00  0.00    +0.000 A 
ATOM     21  C   UNL     1      -2.485  11.937  19.150  0.00  0.00    +0.000 A 
ATOM     22  C   UNL     1      -2.806  11.408  17.901  0.00  0.00    +0.000 A 
ATOM     23  C   UNL     1      -1.972  10.457  17.314  0.00  0.00    +0.000 A 
ATOM     24  C   UNL     1      -0.827  10.025  17.986  0.00  0.00    +0.000 A 
ENDBRANCH  18  19
ENDBRANCH  17  18
ENDBRANCH   3  16
TORSDOF 6
ENDMDL
MODEL 6
REMARK VINA RESULT:      -6.7      2.193      3.987
REMARK  Name = 
REMARK  9 active torsions:
REMARK  status: ('A' for Active; 'I' for Inactive)
REMARK    1  A    between atoms: C_1  and  O_2
REMARK    2  A    between atoms: O_2  and  C_3
REMARK    3  A    between atoms: C_3  and  C_5
REMARK    4  A    between atoms: C_6  and  O_7
REMARK    5  A    between atoms: C_8  and  C_9
REMARK    6  A    between atoms: N_10  and  C_11
REMARK    7  A    between atoms: C_11  and  C_12
REMARK    8  A    between atoms: C_21  and  C_22
REMARK    9  A    between atoms: C_21  and  C_23
REMARK                            x       y       z     vdW  Elec       q    Type
REMARK                         _______ _______ _______ _____ _____    ______ ____
ROOT
ATOM      1  C   UNL     1       2.757   5.415  19.993  0.00  0.00    +0.000 C 
ATOM      2  C   UNL     1       2.165   6.821  19.969  0.00  0.00    +0.000 C 
ATOM      3  C   UNL     1       2.361   7.699  18.963  0.00  0.00    +0.000 C 
ATOM      4  C   UNL     1       3.195   7.304  17.793  0.00  0.00    +0.000 C 
ATOM      5  O   UNL     1       3.282   8.036  16.810  0.00  0.00    +0.000 OA
ATOM      6  C   UNL     1       4.017   6.035  17.898  0.00  0.00    +0.000 C 
ATOM      7  C   UNL     1       3.258   4.899  18.610  0.00  0.00    +0.000 C 
ATOM      8  C   UNL     1       4.235   3.725  18.833  0.00  0.00    +0.000 C 
ATOM      9  C   UNL     1       2.129   4.411  17.674  0.00  0.00    +0.000 C 
ENDROOT
BRANCH   1  10
ATOM     10  C   UNL     1       1.771   4.447  20.653  0.00  0.00    +0.000 C 
ATOM     11  O   UNL     1       0.576   4.359  20.387  0.00  0.00    +0.000 OA
BRANCH  10  13
ATOM     12  C   UNL     1       1.978   2.385  21.748  0.00  0.00    +0.000 C 
ATOM     13  O   UNL     1       2.388   3.753  21.653  0.00  0.00    +0.000 OA
ENDBRANCH  10  13
ENDBRANCH   1  10
BRANCH   2  14
ATOM     14  O   UNL     1       1.424   7.194  21.080  0.00  0.00    +0.000 OA
ATOM     15  H   UNL     1       0.885   6.470  21.435  0.00  0.00    +0.000 HD
ENDBRANCH   2  14
BRANCH   3  16
ATOM     16  C   UNL     1       1.805   9.086  19.012  0.00  0.00    +0.000 C 
ATOM     17  N   UNL     1       0.591   9.340  19.355  0.00  0.00    +0.000 NA
BRANCH  17  18
ATOM     18  C   UNL     1       0.193  10.743  19.406  0.00  0.00    +0.000 C 
BRANCH  18  19
ATOM     19  C   UNL     1      -0.462  11.039  20.738  0.00  0.00    +0.000 A 
ATOM     20  C   UNL     1      -0.278  10.191  21.839  0.00  0.00    +0.000 A 
ATOM     21  C   UNL     1      -0.929  10.446  23.048  0.00  0.00    +0.000 A 
ATOM     22  C   UNL     1      -1.767  11.554  23.172  0.00  0.00    +0.000 A 
ATOM     23  C   UNL     1      -1.944  12.416  22.091  0.00  0.00    +0.000 A 
ATOM     24  C   UNL     1      -1.295  12.160  20.882  0.00  0.00    +0.000 A 
ENDBRANCH  18  19
ENDBRANCH  17  18
ENDBRANCH   3  16
TORSDOF 6
ENDMDL
MODEL 7
REMARK VINA RESULT:      -6.7      2.219      4.034
REMARK  Name = 
REMARK  9 active torsions:
REMARK  status: ('A' for Active; 'I' for Inactive)
REMARK    1  A    between atoms: C_1  and  O_2
REMARK    2  A    between atoms: O_2  and  C_3
REMARK    3  A    between atoms: C_3  and  C_5
REMARK    4  A    between atoms: C_6  and  O_7
REMARK    5  A    between atoms: C_8  and  C_9
REMARK    6  A    between atoms: N_10  and  C_11
REMARK    7  A    between atoms: C_11  and  C_12
REMARK    8  A    between atoms: C_21  and  C_22
REMARK    9  A    between atoms: C_21  and  C_23
REMARK                            x       y       z     vdW  Elec       q    Type
REMARK                         _______ _______ _______ _____ _____    ______ ____
ROOT
ATOM      1  C   UNL     1       2.738   5.508  19.990  0.00  0.00    +0.000 C 
ATOM      2  C   UNL     1       2.136   6.910  19.978  0.00  0.00    +0.000 C 
ATOM      3  C   UNL     1       2.304   7.788  18.967  0.00  0.00    +0.000 C 
ATOM      4  C   UNL     1       3.114   7.396  17.780  0.00  0.00    +0.000 C 
ATOM      5  O   UNL     1       3.173   8.128  16.794  0.00  0.00    +0.000 OA
ATOM      6  C   UNL     1       3.946   6.133  17.867  0.00  0.00    +0.000 C 
ATOM      7  C   UNL     1       3.210   4.993  18.598  0.00  0.00    +0.000 C 
ATOM      8  C   UNL     1       4.200   3.826  18.801  0.00  0.00    +0.000 C 
ATOM      9  C   UNL     1       2.064   4.496  17.688  0.00  0.00    +0.000 C 
ENDROOT
BRANCH   1  10
ATOM     10  C   UNL     1       1.773   4.534  20.674  0.00  0.00    +0.000 C 
ATOM     11  O   UNL     1       0.573   4.437  20.435  0.00  0.00    +0.000 OA
BRANCH  10  13
ATOM     12  C   UNL     1       2.020   2.476  21.767  0.00  0.00    +0.000 C 
ATOM     13  O   UNL     1       2.416   3.846  21.661  0.00  0.00    +0.000 OA
ENDBRANCH  10  13
ENDBRANCH   1  10
BRANCH   2  14
ATOM     14  O   UNL     1       1.418   7.279  21.106  0.00  0.00    +0.000 OA
ATOM     15  H   UNL     1       1.513   8.219  21.323  0.00  0.00    +0.000 HD
ENDBRANCH   2  14
BRANCH   3  16
ATOM     16  C   UNL     1       1.739   9.171  19.027  0.00  0.00    +0.000 C 
ATOM     17  N   UNL     1       0.528   9.416  19.385  0.00  0.00    +0.000 NA
BRANCH  17  18
ATOM     18  C   UNL     1       0.122  10.817  19.446  0.00  0.00    +0.000 C 
BRANCH  18  19
ATOM     19  C   UNL     1      -0.610  11.080  20.744  0.00  0.00    +0.000 A 
ATOM     20  C   UNL     1      -1.530  12.133  20.854  0.00  0.00    +0.000 A 
ATOM     21  C   UNL     1      -2.160  12.399  22.072  0.00  0.00    +0.000 A 
ATOM     22  C   UNL     1      -1.883  11.614  23.190  0.00  0.00    +0.000 A 
ATOM     23  C   UNL     1      -0.985  10.553  23.089  0.00  0.00    +0.000 A 
ATOM     24  C   UNL     1      -0.353  10.288  21.873  0.00  0.00    +0.000 A 
ENDBRANCH  18  19
ENDBRANCH  17  18
ENDBRANCH   3  16
TORSDOF 6
ENDMDL
MODEL 8
REMARK VINA RESULT:      -6.7      1.348      3.382
REMARK  Name = 
REMARK  9 active torsions:
REMARK  status: ('A' for Active; 'I' for Inactive)
REMARK    1  A    between atoms: C_1  and  O_2
REMARK    2  A    between atoms: O_2  and  C_3
REMARK    3  A    between atoms: C_3  and  C_5
REMARK    4  A    between atoms: C_6  and  O_7
REMARK    5  A    between atoms: C_8  and  C_9
REMARK    6  A    between atoms: N_10  and  C_11
REMARK    7  A    between atoms: C_11  and  C_12
REMARK    8  A    between atoms: C_21  and  C_22
REMARK    9  A    between atoms: C_21  and  C_23
REMARK                            x       y       z     vdW  Elec       q    Type
REMARK                         _______ _______ _______ _____ _____    ______ ____
ROOT
ATOM      1  C   UNL     1       3.077   4.678  20.039  0.00  0.00    +0.000 C 
ATOM      2  C   UNL     1       2.774   6.099  19.572  0.00  0.00    +0.000 C 
ATOM      3  C   UNL     1       3.273   6.637  18.440  0.00  0.00    +0.000 C 
ATOM      4  C   UNL     1       4.171   5.824  17.572  0.00  0.00    +0.000 C 
ATOM      5  O   UNL     1       4.532   6.246  16.475  0.00  0.00    +0.000 OA
ATOM      6  C   UNL     1       4.712   4.521  18.125  0.00  0.00    +0.000 C 
ATOM      7  C   UNL     1       3.657   3.743  18.936  0.00  0.00    +0.000 C 
ATOM      8  C   UNL     1       4.351   2.539  19.608  0.00  0.00    +0.000 C 
ATOM      9  C   UNL     1       2.597   3.197  17.953  0.00  0.00    +0.000 C 
ENDROOT
BRANCH   1  10
ATOM     10  C   UNL     1       1.842   4.080  20.719  0.00  0.00    +0.000 C 
ATOM     11  O   UNL     1       0.686   4.201  20.325  0.00  0.00    +0.000 OA
BRANCH  10  13
ATOM     12  C   UNL     1       1.458   2.271  22.158  0.00  0.00    +0.000 C 
ATOM     13  O   UNL     1       2.194   3.467  21.886  0.00  0.00    +0.000 OA
ENDBRANCH  10  13
ENDBRANCH   1  10
BRANCH   2  14
ATOM     14  O   UNL     1       1.972   6.861  20.407  0.00  0.00    +0.000 OA
ATOM     15  H   UNL     1       1.064   6.954  20.078  0.00  0.00    +0.000 HD
ENDBRANCH   2  14
BRANCH   3  16
ATOM     16  C   UNL     1       2.991   8.053  18.053  0.00  0.00    +0.000 C 
ATOM     17  N   UNL     1       1.877   8.641  18.316  0.00  0.00    +0.000 NA
BRANCH  17  18
ATOM     18  C   UNL     1       1.753  10.041  17.925  0.00  0.00    +0.000 C 
BRANCH  18  19
ATOM     19  C   UNL     1       0.447  10.603  18.443  0.00  0.00    +0.000 A 
ATOM     20  C   UNL     1      -0.783  10.147  17.948  0.00  0.00    +0.000 A 
ATOM     21  C   UNL     1      -1.980  10.711  18.396  0.00  0.00    +0.000 A 
ATOM     22  C   UNL     1      -1.962  11.730  19.346  0.00  0.00    +0.000 A 
ATOM     23  C   UNL     1      -0.747  12.180  19.861  0.00  0.00    +0.000 A 
ATOM     24  C   UNL     1       0.450  11.618  19.412  0.00  0.00    +0.000 A 
ENDBRANCH  18  19
ENDBRANCH  17  18
ENDBRANCH   3  16
TORSDOF 6
ENDMDL
MODEL 9
REMARK VINA RESULT:      -6.7      0.846      1.087
REMARK  Name = 
REMARK  9 active torsions:
REMARK  status: ('A' for Active; 'I' for Inactive)
REMARK    1  A    between atoms: C_1  and  O_2
REMARK    2  A    between atoms: O_2  and  C_3
REMARK    3  A    between atoms: C_3  and  C_5
REMARK    4  A    between atoms: C_6  and  O_7
REMARK    5  A    between atoms: C_8  and  C_9
REMARK    6  A    between atoms: N_10  and  C_11
REMARK    7  A    between atoms: C_11  and  C_12
REMARK    8  A    between atoms: C_21  and  C_22
REMARK    9  A    between atoms: C_21  and  C_23
REMARK                            x       y       z     vdW  Elec       q    Type
REMARK                         _______ _______ _______ _____ _____    ______ ____
ROOT
ATOM      1  C   UNL     1       3.820   5.228  17.422  0.00  0.00    +0.000 C 
ATOM      2  C   UNL     1       3.329   6.519  18.070  0.00  0.00    +0.000 C 
ATOM      3  C   UNL     1       2.527   6.555  19.154  0.00  0.00    +0.000 C 
ATOM      4  C   UNL     1       2.081   5.279  19.781  0.00  0.00    +0.000 C 
ATOM      5  O   UNL     1       1.459   5.287  20.841  0.00  0.00    +0.000 OA
ATOM      6  C   UNL     1       2.315   3.989  19.022  0.00  0.00    +0.000 C 
ATOM      7  C   UNL     1       3.686   3.961  18.318  0.00  0.00    +0.000 C 
ATOM      8  C   UNL     1       3.750   2.702  17.427  0.00  0.00    +0.000 C 
ATOM      9  C   UNL     1       4.782   3.838  19.401  0.00  0.00    +0.000 C 
ENDROOT
BRANCH   1  10
ATOM     10  C   UNL     1       5.245   5.420  16.894  0.00  0.00    +0.000 C 
ATOM     11  O   UNL     1       6.141   6.024  17.474  0.00  0.00    +0.000 OA
BRANCH  10  13
ATOM     12  C   UNL     1       6.664   4.410  15.327  0.00  0.00    +0.000 C 
ATOM     13  O   UNL     1       5.357   4.902  15.637  0.00  0.00    +0.000 OA
ENDBRANCH  10  13
ENDBRANCH   1  10
BRANCH   2  14
ATOM     14  O   UNL     1       3.717   7.700  17.454  0.00  0.00    +0.000 OA
ATOM     15  H   UNL     1       3.608   8.477  18.025  0.00  0.00    +0.000 HD
ENDBRANCH   2  14
BRANCH   3  16
ATOM     16  C   UNL     1       2.028   7.846  19.719  0.00  0.00    +0.000 C 
ATOM     17  N   UNL     1       1.442   8.741  19.005  0.00  0.00    +0.000 NA
BRANCH  17  18
ATOM     18  C   UNL     1       0.961   9.934  19.695  0.00  0.00    +0.000 C 
BRANCH  18  19
ATOM     19  C   UNL     1      -0.327  10.408  19.057  0.00  0.00    +0.000 A 
ATOM     20  C   UNL     1      -0.755   9.896  17.825  0.00  0.00    +0.000 A 
ATOM     21  C   UNL     1      -1.918  10.380  17.221  0.00  0.00    +0.000 A 
ATOM     22  C   UNL     1      -2.668  11.376  17.844  0.00  0.00    +0.000 A 
ATOM     23  C   UNL     1      -2.264  11.881  19.079  0.00  0.00    +0.000 A 
ATOM     24  C   UNL     1      -1.101  11.399  19.681  0.00  0.00    +0.000 A 
ENDBRANCH  18  19
ENDBRANCH  17  18
ENDBRANCH   3  16
TORSDOF 6
ENDMDL
