MODEL 1
REMARK VINA RESULT:      -8.5      0.000      0.000
REMARK  Name = 
REMARK  6 active torsions:
REMARK  status: ('A' for Active; 'I' for Inactive)
REMARK    1  A    between atoms: C_1  and  O_2
REMARK    2  A    between atoms: O_2  and  C_3
REMARK    3  A    between atoms: C_6  and  C_7
REMARK    4  A    between atoms: C_10  and  C_12
REMARK    5  A    between atoms: C_12  and  N_13
REMARK    6  A    between atoms: C_24  and  C_25
REMARK                            x       y       z     vdW  Elec       q    Type
REMARK                         _______ _______ _______ _____ _____    ______ ____
ROOT
ATOM      1  C   UNL     1       4.508   5.695  17.187  0.00  0.00    +0.000 C 
ATOM      2  N   UNL     1       3.542   6.583  17.178  0.00  0.00    +0.000 NA
ATOM      3  N   UNL     1       3.025   6.636  18.473  0.00  0.00    +0.000 N 
ATOM      4  C   UNL     1       2.239   7.678  18.981  0.00  0.00    +0.000 C 
ATOM      5  O   UNL     1       2.073   7.823  20.197  0.00  0.00    +0.000 OA
ATOM      6  C   UNL     1       3.668   5.671  19.375  0.00  0.00    +0.000 C 
ATOM      7  C   UNL     1       4.752   5.034  18.520  0.00  0.00    +0.000 C 
ENDROOT
BRANCH   6   8
ATOM      8  C   UNL     1       2.737   4.608  19.949  0.00  0.00    +0.000 A 
ATOM      9  C   UNL     1       2.810   4.254  21.314  0.00  0.00    +0.000 A 
ATOM     10  C   UNL     1       1.909   3.345  21.880  0.00  0.00    +0.000 A 
ATOM     11  C   UNL     1       0.923   2.758  21.094  0.00  0.00    +0.000 A 
ATOM     12  C   UNL     1       0.833   3.088  19.745  0.00  0.00    +0.000 A 
ATOM     13  C   UNL     1       1.722   4.010  19.177  0.00  0.00    +0.000 A 
ATOM     14 CL   UNL     1       1.470   4.402  17.512  0.00  0.00    +0.000 Cl
ENDBRANCH   6   8
BRANCH   1  18
ATOM     15  C   UNL     1       6.911   4.627  13.741  0.00  0.00    +0.000 A 
ATOM     16  C   UNL     1       5.579   4.233  13.838  0.00  0.00    +0.000 A 
ATOM     17  C   UNL     1       4.808   4.576  14.956  0.00  0.00    +0.000 A 
ATOM     18  C   UNL     1       5.365   5.299  16.023  0.00  0.00    +0.000 A 
ATOM     19  C   UNL     1       6.712   5.670  15.934  0.00  0.00    +0.000 A 
ATOM     20  C   UNL     1       7.476   5.345  14.798  0.00  0.00    +0.000 A 
BRANCH  15  22
ATOM     21  C   UNL     1       6.876   3.249  11.803  0.00  0.00    +0.000 C 
ATOM     22  O   UNL     1       7.548   4.206  12.612  0.00  0.00    +0.000 OA
ENDBRANCH  15  22
ENDBRANCH   1  18
BRANCH   4  23
ATOM     23  C   UNL     1       1.510   8.605  18.001  0.00  0.00    +0.000 C 
BRANCH  23  24
ATOM     24  N   UNL     1       0.923   9.898  18.292  0.00  0.00    +0.000 N 
ATOM     25  C   UNL     1       1.756  11.013  18.306  0.00  0.00    +0.000 A 
ATOM     26  O   UNL     1       2.944  11.025  18.006  0.00  0.00    +0.000 OA
ATOM     27  O   UNL     1       1.070  12.166  18.682  0.00  0.00    +0.000 OA
ATOM     28  C   UNL     1      -0.243  11.732  18.673  0.00  0.00    +0.000 A 
ATOM     29  C   UNL     1      -1.309  12.592  18.867  0.00  0.00    +0.000 A 
ATOM     30  C   UNL     1      -2.580  12.070  18.655  0.00  0.00    +0.000 A 
ATOM     31  C   UNL     1      -2.731  10.727  18.271  0.00  0.00    +0.000 A 
ATOM     32 CL   UNL     1      -4.317  10.180  17.871  0.00  0.00    +0.000 Cl
ATOM     33  C   UNL     1      -1.631   9.849  18.150  0.00  0.00    +0.000 A 
ATOM     34  C   UNL     1      -0.376  10.380  18.370  0.00  0.00    +0.000 A 
ENDBRANCH  23  24
ENDBRANCH   4  23
TORSDOF 5
ENDMDL
MODEL 2
REMARK VINA RESULT:      -8.3      3.894      7.542
REMARK  Name = 
REMARK  6 active torsions:
REMARK  status: ('A' for Active; 'I' for Inactive)
REMARK    1  A    between atoms: C_1  and  O_2
REMARK    2  A    between atoms: O_2  and  C_3
REMARK    3  A    between atoms: C_6  and  C_7
REMARK    4  A    between atoms: C_10  and  C_12
REMARK    5  A    between atoms: C_12  and  N_13
REMARK    6  A    between atoms: C_24  and  C_25
REMARK                            x       y       z     vdW  Elec       q    Type
REMARK                         _______ _______ _______ _____ _____    ______ ____
ROOT
ATOM      1  C   UNL     1       0.837   9.728  19.035  0.00  0.00    +0.000 C 
ATOM      2  N   UNL     1       1.196  10.979  18.864  0.00  0.00    +0.000 NA
ATOM      3  N   UNL     1       0.038  11.752  18.957  0.00  0.00    +0.000 N 
ATOM      4  C   UNL     1       0.012  13.134  19.183  0.00  0.00    +0.000 C 
ATOM      5  O   UNL     1      -1.019  13.704  19.558  0.00  0.00    +0.000 OA
ATOM      6  C   UNL     1      -1.169  10.937  19.146  0.00  0.00    +0.000 C 
ATOM      7  C   UNL     1      -0.639   9.516  19.262  0.00  0.00    +0.000 C 
ENDROOT
BRANCH   6   8
ATOM      8  C   UNL     1      -2.198  11.040  18.025  0.00  0.00    +0.000 A 
ATOM      9  C   UNL     1      -1.943  10.460  16.763  0.00  0.00    +0.000 A 
ATOM     10  C   UNL     1      -2.907  10.468  15.750  0.00  0.00    +0.000 A 
ATOM     11  C   UNL     1      -4.144  11.066  15.967  0.00  0.00    +0.000 A 
ATOM     12  C   UNL     1      -4.418  11.648  17.201  0.00  0.00    +0.000 A 
ATOM     13  C   UNL     1      -3.463  11.628  18.225  0.00  0.00    +0.000 A 
ATOM     14 CL   UNL     1      -3.939  12.311  19.741  0.00  0.00    +0.000 Cl
ENDBRANCH   6   8
BRANCH   1  18
ATOM     15  C   UNL     1       3.346   6.194  19.012  0.00  0.00    +0.000 A 
ATOM     16  C   UNL     1       2.532   6.491  20.103  0.00  0.00    +0.000 A 
ATOM     17  C   UNL     1       1.727   7.637  20.108  0.00  0.00    +0.000 A 
ATOM     18  C   UNL     1       1.741   8.534  19.028  0.00  0.00    +0.000 A 
ATOM     19  C   UNL     1       2.581   8.246  17.944  0.00  0.00    +0.000 A 
ATOM     20  C   UNL     1       3.369   7.081  17.933  0.00  0.00    +0.000 A 
BRANCH  15  22
ATOM     21  C   UNL     1       5.507   5.204  19.106  0.00  0.00    +0.000 C 
ATOM     22  O   UNL     1       4.093   5.062  19.152  0.00  0.00    +0.000 OA
ENDBRANCH  15  22
ENDBRANCH   1  18
BRANCH   4  23
ATOM     23  C   UNL     1       1.268  13.961  18.881  0.00  0.00    +0.000 C 
BRANCH  23  24
ATOM     24  N   UNL     1       2.375  14.230  19.778  0.00  0.00    +0.000 N 
ATOM     25  C   UNL     1       2.226  13.917  21.125  0.00  0.00    +0.000 A 
ATOM     26  O   UNL     1       1.266  13.344  21.626  0.00  0.00    +0.000 OA
ATOM     27  O   UNL     1       3.333  14.309  21.873  0.00  0.00    +0.000 OA
ATOM     28  C   UNL     1       4.234  14.663  20.885  0.00  0.00    +0.000 A 
ATOM     29  C   UNL     1       5.545  15.003  21.165  0.00  0.00    +0.000 A 
ATOM     30  C   UNL     1       6.395  15.162  20.076  0.00  0.00    +0.000 A 
ATOM     31  C   UNL     1       5.904  14.984  18.772  0.00  0.00    +0.000 A 
ATOM     32 CL   UNL     1       7.039  15.039  17.473  0.00  0.00    +0.000 Cl
ATOM     33  C   UNL     1       4.545  14.707  18.509  0.00  0.00    +0.000 A 
ATOM     34  C   UNL     1       3.711  14.560  19.599  0.00  0.00    +0.000 A 
ENDBRANCH  23  24
ENDBRANCH   4  23
TORSDOF 5
ENDMDL
MODEL 3
REMARK VINA RESULT:      -8.3      3.989      7.567
REMARK  Name = 
REMARK  6 active torsions:
REMARK  status: ('A' for Active; 'I' for Inactive)
REMARK    1  A    between atoms: C_1  and  O_2
REMARK    2  A    between atoms: O_2  and  C_3
REMARK    3  A    between atoms: C_6  and  C_7
REMARK    4  A    between atoms: C_10  and  C_12
REMARK    5  A    between atoms: C_12  and  N_13
REMARK    6  A    between atoms: C_24  and  C_25
REMARK                            x       y       z     vdW  Elec       q    Type
REMARK                         _______ _______ _______ _____ _____    ______ ____
ROOT
ATOM      1  C   UNL     1       0.982   9.838  19.008  0.00  0.00    +0.000 C 
ATOM      2  N   UNL     1       1.366  11.044  18.661  0.00  0.00    +0.000 NA
ATOM      3  N   UNL     1       0.271  11.890  18.847  0.00  0.00    +0.000 N 
ATOM      4  C   UNL     1       0.342  13.285  18.935  0.00  0.00    +0.000 C 
ATOM      5  O   UNL     1      -0.593  13.947  19.401  0.00  0.00    +0.000 OA
ATOM      6  C   UNL     1      -0.927  11.168  19.295  0.00  0.00    +0.000 C 
ATOM      7  C   UNL     1      -0.448   9.735  19.473  0.00  0.00    +0.000 C 
ENDROOT
BRANCH   6   8
ATOM      8  C   UNL     1      -2.111  11.227  18.335  0.00  0.00    +0.000 A 
ATOM      9  C   UNL     1      -2.039  10.605  17.070  0.00  0.00    +0.000 A 
ATOM     10  C   UNL     1      -3.142  10.573  16.210  0.00  0.00    +0.000 A 
ATOM     11  C   UNL     1      -4.339  11.173  16.587  0.00  0.00    +0.000 A 
ATOM     12  C   UNL     1      -4.434  11.796  17.828  0.00  0.00    +0.000 A 
ATOM     13  C   UNL     1      -3.338  11.816  18.700  0.00  0.00    +0.000 A 
ATOM     14 CL   UNL     1      -3.592  12.550  20.245  0.00  0.00    +0.000 Cl
ENDBRANCH   6   8
BRANCH   1  18
ATOM     15  C   UNL     1       3.298   6.174  18.943  0.00  0.00    +0.000 A 
ATOM     16  C   UNL     1       2.516   6.511  20.046  0.00  0.00    +0.000 A 
ATOM     17  C   UNL     1       1.774   7.699  20.064  0.00  0.00    +0.000 A 
ATOM     18  C   UNL     1       1.821   8.597  18.985  0.00  0.00    +0.000 A 
ATOM     19  C   UNL     1       2.629   8.268  17.890  0.00  0.00    +0.000 A 
ATOM     20  C   UNL     1       3.354   7.062  17.866  0.00  0.00    +0.000 A 
BRANCH  15  22
ATOM     21  C   UNL     1       5.404   5.080  19.094  0.00  0.00    +0.000 C 
ATOM     22  O   UNL     1       3.984   5.004  19.070  0.00  0.00    +0.000 OA
ENDBRANCH  15  22
ENDBRANCH   1  18
BRANCH   4  23
ATOM     23  C   UNL     1       1.571  14.006  18.368  0.00  0.00    +0.000 C 
BRANCH  23  24
ATOM     24  N   UNL     1       2.297  15.105  18.972  0.00  0.00    +0.000 N 
ATOM     25  C   UNL     1       1.885  16.404  18.691  0.00  0.00    +0.000 A 
ATOM     26  O   UNL     1       0.895  16.717  18.040  0.00  0.00    +0.000 OA
ATOM     27  O   UNL     1       2.725  17.351  19.271  0.00  0.00    +0.000 OA
ATOM     28  C   UNL     1       3.519  16.566  20.088  0.00  0.00    +0.000 A 
ATOM     29  C   UNL     1       4.436  17.106  20.970  0.00  0.00    +0.000 A 
ATOM     30  C   UNL     1       5.039  16.225  21.861  0.00  0.00    +0.000 A 
ATOM     31  C   UNL     1       4.711  14.860  21.828  0.00  0.00    +0.000 A 
ATOM     32 CL   UNL     1       5.371  13.845  23.057  0.00  0.00    +0.000 Cl
ATOM     33  C   UNL     1       3.825  14.320  20.869  0.00  0.00    +0.000 A 
ATOM     34  C   UNL     1       3.239  15.206  19.986  0.00  0.00    +0.000 A 
ENDBRANCH  23  24
ENDBRANCH   4  23
TORSDOF 5
ENDMDL
MODEL 4
REMARK VINA RESULT:      -8.3      4.309      7.683
REMARK  Name = 
REMARK  6 active torsions:
REMARK  status: ('A' for Active; 'I' for Inactive)
REMARK    1  A    between atoms: C_1  and  O_2
REMARK    2  A    between atoms: O_2  and  C_3
REMARK    3  A    between atoms: C_6  and  C_7
REMARK    4  A    between atoms: C_10  and  C_12
REMARK    5  A    between atoms: C_12  and  N_13
REMARK    6  A    between atoms: C_24  and  C_25
REMARK                            x       y       z     vdW  Elec       q    Type
REMARK                         _______ _______ _______ _____ _____    ______ ____
ROOT
ATOM      1  C   UNL     1       0.695  10.531  20.481  0.00  0.00    +0.000 C 
ATOM      2  N   UNL     1       1.149  11.761  20.426  0.00  0.00    +0.000 NA
ATOM      3  N   UNL     1       0.294  12.546  21.200  0.00  0.00    +0.000 N 
ATOM      4  C   UNL     1       0.601  13.821  21.691  0.00  0.00    +0.000 C 
ATOM      5  O   UNL     1      -0.053  14.330  22.609  0.00  0.00    +0.000 OA
ATOM      6  C   UNL     1      -0.829  11.778  21.753  0.00  0.00    +0.000 C 
ATOM      7  C   UNL     1      -0.547  10.349  21.316  0.00  0.00    +0.000 C 
ENDROOT
BRANCH   6   8
ATOM      8  C   UNL     1      -2.209  12.225  21.283  0.00  0.00    +0.000 A 
ATOM      9  C   UNL     1      -2.535  12.216  19.909  0.00  0.00    +0.000 A 
ATOM     10  C   UNL     1      -3.822  12.540  19.464  0.00  0.00    +0.000 A 
ATOM     11  C   UNL     1      -4.810  12.893  20.378  0.00  0.00    +0.000 A 
ATOM     12  C   UNL     1      -4.511  12.912  21.737  0.00  0.00    +0.000 A 
ATOM     13  C   UNL     1      -3.230  12.573  22.190  0.00  0.00    +0.000 A 
ATOM     14 CL   UNL     1      -2.994  12.557  23.903  0.00  0.00    +0.000 Cl
ENDBRANCH   6   8
BRANCH   1  18
ATOM     15  C   UNL     1       2.532   7.128  18.521  0.00  0.00    +0.000 A 
ATOM     16  C   UNL     1       2.222   8.286  17.811  0.00  0.00    +0.000 A 
ATOM     17  C   UNL     1       1.623   9.381  18.448  0.00  0.00    +0.000 A 
ATOM     18  C   UNL     1       1.292   9.331  19.811  0.00  0.00    +0.000 A 
ATOM     19  C   UNL     1       1.580   8.155  20.516  0.00  0.00    +0.000 A 
ATOM     20  C   UNL     1       2.203   7.067  19.878  0.00  0.00    +0.000 A 
BRANCH  15  22
ATOM     21  C   UNL     1       3.859   5.156  18.458  0.00  0.00    +0.000 C 
ATOM     22  O   UNL     1       3.089   6.135  17.773  0.00  0.00    +0.000 OA
ENDBRANCH  15  22
ENDBRANCH   1  18
BRANCH   4  23
ATOM     23  C   UNL     1       1.720  14.627  21.021  0.00  0.00    +0.000 C 
BRANCH  23  24
ATOM     24  N   UNL     1       1.593  15.534  19.896  0.00  0.00    +0.000 N 
ATOM     25  C   UNL     1       2.556  15.482  18.893  0.00  0.00    +0.000 A 
ATOM     26  O   UNL     1       3.471  14.671  18.819  0.00  0.00    +0.000 OA
ATOM     27  O   UNL     1       2.350  16.464  17.928  0.00  0.00    +0.000 OA
ATOM     28  C   UNL     1       1.105  16.954  18.279  0.00  0.00    +0.000 A 
ATOM     29  C   UNL     1       0.427  17.879  17.506  0.00  0.00    +0.000 A 
ATOM     30  C   UNL     1      -0.887  18.154  17.870  0.00  0.00    +0.000 A 
ATOM     31  C   UNL     1      -1.457  17.507  18.979  0.00  0.00    +0.000 A 
ATOM     32 CL   UNL     1      -3.135  17.770  19.286  0.00  0.00    +0.000 Cl
ATOM     33  C   UNL     1      -0.722  16.620  19.795  0.00  0.00    +0.000 A 
ATOM     34  C   UNL     1       0.583  16.363  19.427  0.00  0.00    +0.000 A 
ENDBRANCH  23  24
ENDBRANCH   4  23
TORSDOF 5
ENDMDL
MODEL 5
REMARK VINA RESULT:      -8.3      4.309      7.215
REMARK  Name = 
REMARK  6 active torsions:
REMARK  status: ('A' for Active; 'I' for Inactive)
REMARK    1  A    between atoms: C_1  and  O_2
REMARK    2  A    between atoms: O_2  and  C_3
REMARK    3  A    between atoms: C_6  and  C_7
REMARK    4  A    between atoms: C_10  and  C_12
REMARK    5  A    between atoms: C_12  and  N_13
REMARK    6  A    between atoms: C_24  and  C_25
REMARK                            x       y       z     vdW  Elec       q    Type
REMARK                         _______ _______ _______ _____ _____    ______ ____
ROOT
ATOM      1  C   UNL     1       0.918   9.762  19.793  0.00  0.00    +0.000 C 
ATOM      2  N   UNL     1       0.059  10.219  18.913  0.00  0.00    +0.000 NA
ATOM      3  N   UNL     1      -0.194  11.550  19.243  0.00  0.00    +0.000 N 
ATOM      4  C   UNL     1      -0.764  12.496  18.382  0.00  0.00    +0.000 C 
ATOM      5  O   UNL     1      -0.681  13.708  18.613  0.00  0.00    +0.000 OA
ATOM      6  C   UNL     1       0.512  11.972  20.460  0.00  0.00    +0.000 C 
ATOM      7  C   UNL     1       1.347  10.759  20.840  0.00  0.00    +0.000 C 
ENDROOT
BRANCH   6   8
ATOM      8  C   UNL     1      -0.391  12.391  21.616  0.00  0.00    +0.000 A 
ATOM      9  C   UNL     1      -1.330  11.485  22.156  0.00  0.00    +0.000 A 
ATOM     10  C   UNL     1      -2.106  11.820  23.271  0.00  0.00    +0.000 A 
ATOM     11  C   UNL     1      -1.974  13.070  23.865  0.00  0.00    +0.000 A 
ATOM     12  C   UNL     1      -1.057  13.982  23.348  0.00  0.00    +0.000 A 
ATOM     13  C   UNL     1      -0.265  13.646  22.243  0.00  0.00    +0.000 A 
ATOM     14 CL   UNL     1       0.892  14.826  21.735  0.00  0.00    +0.000 Cl
ENDBRANCH   6   8
BRANCH   1  18
ATOM     15  C   UNL     1       2.464   5.714  19.924  0.00  0.00    +0.000 A 
ATOM     16  C   UNL     1       1.712   6.231  20.977  0.00  0.00    +0.000 A 
ATOM     17  C   UNL     1       1.220   7.542  20.933  0.00  0.00    +0.000 A 
ATOM     18  C   UNL     1       1.495   8.380  19.840  0.00  0.00    +0.000 A 
ATOM     19  C   UNL     1       2.273   7.865  18.795  0.00  0.00    +0.000 A 
ATOM     20  C   UNL     1       2.746   6.541  18.833  0.00  0.00    +0.000 A 
BRANCH  15  22
ATOM     21  C   UNL     1       1.945   3.482  20.561  0.00  0.00    +0.000 C 
ATOM     22  O   UNL     1       2.898   4.436  20.110  0.00  0.00    +0.000 OA
ENDBRANCH  15  22
ENDBRANCH   1  18
BRANCH   4  23
ATOM     23  C   UNL     1      -1.574  12.009  17.174  0.00  0.00    +0.000 C 
BRANCH  23  24
ATOM     24  N   UNL     1      -2.990  11.698  17.137  0.00  0.00    +0.000 N 
ATOM     25  C   UNL     1      -3.467  10.914  16.092  0.00  0.00    +0.000 A 
ATOM     26  O   UNL     1      -2.784  10.376  15.228  0.00  0.00    +0.000 OA
ATOM     27  O   UNL     1      -4.852  10.771  16.143  0.00  0.00    +0.000 OA
ATOM     28  C   UNL     1      -5.149  11.313  17.380  0.00  0.00    +0.000 A 
ATOM     29  C   UNL     1      -6.421  11.270  17.922  0.00  0.00    +0.000 A 
ATOM     30  C   UNL     1      -6.552  11.685  19.243  0.00  0.00    +0.000 A 
ATOM     31  C   UNL     1      -5.423  12.126  19.954  0.00  0.00    +0.000 A 
ATOM     32 CL   UNL     1      -5.619  12.477  21.632  0.00  0.00    +0.000 Cl
ATOM     33  C   UNL     1      -4.147  12.228  19.357  0.00  0.00    +0.000 A 
ATOM     34  C   UNL     1      -4.035  11.820  18.043  0.00  0.00    +0.000 A 
ENDBRANCH  23  24
ENDBRANCH   4  23
TORSDOF 5
ENDMDL
MODEL 6
REMARK VINA RESULT:      -8.2      5.039      9.353
REMARK  Name = 
REMARK  6 active torsions:
REMARK  status: ('A' for Active; 'I' for Inactive)
REMARK    1  A    between atoms: C_1  and  O_2
REMARK    2  A    between atoms: O_2  and  C_3
REMARK    3  A    between atoms: C_6  and  C_7
REMARK    4  A    between atoms: C_10  and  C_12
REMARK    5  A    between atoms: C_12  and  N_13
REMARK    6  A    between atoms: C_24  and  C_25
REMARK                            x       y       z     vdW  Elec       q    Type
REMARK                         _______ _______ _______ _____ _____    ______ ____
ROOT
ATOM      1  C   UNL     1      -1.804  12.122  19.304  0.00  0.00    +0.000 C 
ATOM      2  N   UNL     1      -0.771  12.893  19.552  0.00  0.00    +0.000 NA
ATOM      3  N   UNL     1       0.369  12.176  19.188  0.00  0.00    +0.000 N 
ATOM      4  C   UNL     1       1.631  12.738  18.959  0.00  0.00    +0.000 C 
ATOM      5  O   UNL     1       2.510  12.118  18.350  0.00  0.00    +0.000 OA
ATOM      6  C   UNL     1       0.055  10.819  18.720  0.00  0.00    +0.000 C 
ATOM      7  C   UNL     1      -1.465  10.768  18.735  0.00  0.00    +0.000 C 
ENDROOT
BRANCH   6   8
ATOM      8  C   UNL     1       0.643   9.694  19.566  0.00  0.00    +0.000 A 
ATOM      9  C   UNL     1       0.196   9.486  20.889  0.00  0.00    +0.000 A 
ATOM     10  C   UNL     1       0.659   8.408  21.652  0.00  0.00    +0.000 A 
ATOM     11  C   UNL     1       1.587   7.520  21.117  0.00  0.00    +0.000 A 
ATOM     12  C   UNL     1       2.045   7.708  19.816  0.00  0.00    +0.000 A 
ATOM     13  C   UNL     1       1.572   8.775  19.042  0.00  0.00    +0.000 A 
ATOM     14 CL   UNL     1       2.151   8.866  17.415  0.00  0.00    +0.000 Cl
ENDBRANCH   6   8
BRANCH   1  18
ATOM     15  C   UNL     1      -5.997  12.992  19.981  0.00  0.00    +0.000 A 
ATOM     16  C   UNL     1      -5.594  12.166  18.934  0.00  0.00    +0.000 A 
ATOM     17  C   UNL     1      -4.237  11.892  18.716  0.00  0.00    +0.000 A 
ATOM     18  C   UNL     1      -3.245  12.466  19.527  0.00  0.00    +0.000 A 
ATOM     19  C   UNL     1      -3.653  13.318  20.562  0.00  0.00    +0.000 A 
ATOM     20  C   UNL     1      -5.017  13.571  20.792  0.00  0.00    +0.000 A 
BRANCH  15  22
ATOM     21  C   UNL     1      -7.876  13.533  21.335  0.00  0.00    +0.000 C 
ATOM     22  O   UNL     1      -7.343  13.191  20.062  0.00  0.00    +0.000 OA
ENDBRANCH  15  22
ENDBRANCH   1  18
BRANCH   4  23
ATOM     23  C   UNL     1       1.948  14.119  19.548  0.00  0.00    +0.000 C 
BRANCH  23  24
ATOM     24  N   UNL     1       1.862  15.399  18.872  0.00  0.00    +0.000 N 
ATOM     25  C   UNL     1       2.869  15.742  17.976  0.00  0.00    +0.000 A 
ATOM     26  O   UNL     1       3.795  15.019  17.626  0.00  0.00    +0.000 OA
ATOM     27  O   UNL     1       2.697  17.029  17.472  0.00  0.00    +0.000 OA
ATOM     28  C   UNL     1       1.433  17.349  17.933  0.00  0.00    +0.000 A 
ATOM     29  C   UNL     1       0.782  18.511  17.562  0.00  0.00    +0.000 A 
ATOM     30  C   UNL     1      -0.550  18.631  17.946  0.00  0.00    +0.000 A 
ATOM     31  C   UNL     1      -1.163  17.601  18.679  0.00  0.00    +0.000 A 
ATOM     32 CL   UNL     1      -2.855  17.734  18.989  0.00  0.00    +0.000 Cl
ATOM     33  C   UNL     1      -0.456  16.456  19.107  0.00  0.00    +0.000 A 
ATOM     34  C   UNL     1       0.867  16.355  18.726  0.00  0.00    +0.000 A 
ENDBRANCH  23  24
ENDBRANCH   4  23
TORSDOF 5
ENDMDL
MODEL 7
REMARK VINA RESULT:      -8.2      3.371      9.241
REMARK  Name = 
REMARK  6 active torsions:
REMARK  status: ('A' for Active; 'I' for Inactive)
REMARK    1  A    between atoms: C_1  and  O_2
REMARK    2  A    between atoms: O_2  and  C_3
REMARK    3  A    between atoms: C_6  and  C_7
REMARK    4  A    between atoms: C_10  and  C_12
REMARK    5  A    between atoms: C_12  and  N_13
REMARK    6  A    between atoms: C_24  and  C_25
REMARK                            x       y       z     vdW  Elec       q    Type
REMARK                         _______ _______ _______ _____ _____    ______ ____
ROOT
ATOM      1  C   UNL     1       1.163  13.508  19.072  0.00  0.00    +0.000 C 
ATOM      2  N   UNL     1       1.323  12.263  19.456  0.00  0.00    +0.000 NA
ATOM      3  N   UNL     1       0.081  11.638  19.341  0.00  0.00    +0.000 N 
ATOM      4  C   UNL     1      -0.120  10.253  19.310  0.00  0.00    +0.000 C 
ATOM      5  O   UNL     1      -1.182   9.767  18.903  0.00  0.00    +0.000 OA
ATOM      6  C   UNL     1      -0.975  12.561  18.902  0.00  0.00    +0.000 C 
ATOM      7  C   UNL     1      -0.239  13.867  18.649  0.00  0.00    +0.000 C 
ENDROOT
BRANCH   6   8
ATOM      8  C   UNL     1      -2.109  12.763  19.902  0.00  0.00    +0.000 A 
ATOM      9  C   UNL     1      -1.864  13.382  21.147  0.00  0.00    +0.000 A 
ATOM     10  C   UNL     1      -2.905  13.655  22.041  0.00  0.00    +0.000 A 
ATOM     11  C   UNL     1      -4.213  13.306  21.720  0.00  0.00    +0.000 A 
ATOM     12  C   UNL     1      -4.479  12.693  20.499  0.00  0.00    +0.000 A 
ATOM     13  C   UNL     1      -3.443  12.432  19.593  0.00  0.00    +0.000 A 
ATOM     14 CL   UNL     1      -3.899  11.737  18.077  0.00  0.00    +0.000 Cl
ENDBRANCH   6   8
BRANCH   1  18
ATOM     15  C   UNL     1       4.186  16.602  18.788  0.00  0.00    +0.000 A 
ATOM     16  C   UNL     1       4.198  15.504  17.930  0.00  0.00    +0.000 A 
ATOM     17  C   UNL     1       3.222  14.503  18.030  0.00  0.00    +0.000 A 
ATOM     18  C   UNL     1       2.223  14.565  19.014  0.00  0.00    +0.000 A 
ATOM     19  C   UNL     1       2.230  15.656  19.892  0.00  0.00    +0.000 A 
ATOM     20  C   UNL     1       3.197  16.670  19.773  0.00  0.00    +0.000 A 
BRANCH  15  22
ATOM     21  C   UNL     1       6.243  17.505  19.567  0.00  0.00    +0.000 C 
ATOM     22  O   UNL     1       5.206  17.484  18.595  0.00  0.00    +0.000 OA
ENDBRANCH  15  22
ENDBRANCH   1  18
BRANCH   4  23
ATOM     23  C   UNL     1       0.971   9.330  19.866  0.00  0.00    +0.000 C 
BRANCH  23  24
ATOM     24  N   UNL     1       1.691   8.295  19.150  0.00  0.00    +0.000 N 
ATOM     25  C   UNL     1       2.441   8.661  18.037  0.00  0.00    +0.000 A 
ATOM     26  O   UNL     1       2.629   9.806  17.644  0.00  0.00    +0.000 OA
ATOM     27  O   UNL     1       3.005   7.555  17.406  0.00  0.00    +0.000 OA
ATOM     28  C   UNL     1       2.743   6.545  18.314  0.00  0.00    +0.000 A 
ATOM     29  C   UNL     1       3.241   5.264  18.161  0.00  0.00    +0.000 A 
ATOM     30  C   UNL     1       3.060   4.391  19.228  0.00  0.00    +0.000 A 
ATOM     31  C   UNL     1       2.392   4.828  20.385  0.00  0.00    +0.000 A 
ATOM     32 CL   UNL     1       2.336   3.753  21.734  0.00  0.00    +0.000 Cl
ATOM     33  C   UNL     1       1.830   6.119  20.489  0.00  0.00    +0.000 A 
ATOM     34  C   UNL     1       2.011   6.971  19.418  0.00  0.00    +0.000 A 
ENDBRANCH  23  24
ENDBRANCH   4  23
TORSDOF 5
ENDMDL
MODEL 8
REMARK VINA RESULT:      -8.2      3.654      7.045
REMARK  Name = 
REMARK  6 active torsions:
REMARK  status: ('A' for Active; 'I' for Inactive)
REMARK    1  A    between atoms: C_1  and  O_2
REMARK    2  A    between atoms: O_2  and  C_3
REMARK    3  A    between atoms: C_6  and  C_7
REMARK    4  A    between atoms: C_10  and  C_12
REMARK    5  A    between atoms: C_12  and  N_13
REMARK    6  A    between atoms: C_24  and  C_25
REMARK                            x       y       z     vdW  Elec       q    Type
REMARK                         _______ _______ _______ _____ _____    ______ ____
ROOT
ATOM      1  C   UNL     1       0.997   9.747  19.309  0.00  0.00    +0.000 C 
ATOM      2  N   UNL     1       1.396  10.996  19.266  0.00  0.00    +0.000 NA
ATOM      3  N   UNL     1       0.292  11.789  19.584  0.00  0.00    +0.000 N 
ATOM      4  C   UNL     1       0.356  13.127  19.990  0.00  0.00    +0.000 C 
ATOM      5  O   UNL     1      -0.603  13.676  20.547  0.00  0.00    +0.000 OA
ATOM      6  C   UNL     1      -0.927  10.996  19.795  0.00  0.00    +0.000 C 
ATOM      7  C   UNL     1      -0.456   9.556  19.666  0.00  0.00    +0.000 C 
ENDROOT
BRANCH   6   8
ATOM      8  C   UNL     1      -2.060  11.285  18.815  0.00  0.00    +0.000 A 
ATOM      9  C   UNL     1      -1.959  10.882  17.465  0.00  0.00    +0.000 A 
ATOM     10  C   UNL     1      -3.021  11.060  16.572  0.00  0.00    +0.000 A 
ATOM     11  C   UNL     1      -4.203  11.655  17.000  0.00  0.00    +0.000 A 
ATOM     12  C   UNL     1      -4.325  12.063  18.325  0.00  0.00    +0.000 A 
ATOM     13  C   UNL     1      -3.271  11.873  19.229  0.00  0.00    +0.000 A 
ATOM     14 CL   UNL     1      -3.561  12.348  20.866  0.00  0.00    +0.000 Cl
ENDBRANCH   6   8
BRANCH   1  18
ATOM     15  C   UNL     1       3.535   6.315  18.555  0.00  0.00    +0.000 A 
ATOM     16  C   UNL     1       3.411   7.337  17.617  0.00  0.00    +0.000 A 
ATOM     17  C   UNL     1       2.585   8.442  17.863  0.00  0.00    +0.000 A 
ATOM     18  C   UNL     1       1.837   8.534  19.048  0.00  0.00    +0.000 A 
ATOM     19  C   UNL     1       1.943   7.492  19.977  0.00  0.00    +0.000 A 
ATOM     20  C   UNL     1       2.792   6.396  19.736  0.00  0.00    +0.000 A 
BRANCH  15  22
ATOM     21  C   UNL     1       3.829   4.348  17.252  0.00  0.00    +0.000 C 
ATOM     22  O   UNL     1       4.352   5.292  18.177  0.00  0.00    +0.000 OA
ENDBRANCH  15  22
ENDBRANCH   1  18
BRANCH   4  23
ATOM     23  C   UNL     1       1.612  13.944  19.665  0.00  0.00    +0.000 C 
BRANCH  23  24
ATOM     24  N   UNL     1       1.679  15.189  18.925  0.00  0.00    +0.000 N 
ATOM     25  C   UNL     1       2.733  15.374  18.036  0.00  0.00    +0.000 A 
ATOM     26  O   UNL     1       3.579  14.538  17.743  0.00  0.00    +0.000 OA
ATOM     27  O   UNL     1       2.712  16.644  17.465  0.00  0.00    +0.000 OA
ATOM     28  C   UNL     1       1.482  17.124  17.881  0.00  0.00    +0.000 A 
ATOM     29  C   UNL     1       0.969  18.329  17.439  0.00  0.00    +0.000 A 
ATOM     30  C   UNL     1      -0.347  18.613  17.787  0.00  0.00    +0.000 A 
ATOM     31  C   UNL     1      -1.082  17.695  18.556  0.00  0.00    +0.000 A 
ATOM     32 CL   UNL     1      -2.754  18.028  18.822  0.00  0.00    +0.000 Cl
ATOM     33  C   UNL     1      -0.513  16.503  19.057  0.00  0.00    +0.000 A 
ATOM     34  C   UNL     1       0.797  16.239  18.710  0.00  0.00    +0.000 A 
ENDBRANCH  23  24
ENDBRANCH   4  23
TORSDOF 5
ENDMDL
MODEL 9
REMARK VINA RESULT:      -8.0      4.288      7.395
REMARK  Name = 
REMARK  6 active torsions:
REMARK  status: ('A' for Active; 'I' for Inactive)
REMARK    1  A    between atoms: C_1  and  O_2
REMARK    2  A    between atoms: O_2  and  C_3
REMARK    3  A    between atoms: C_6  and  C_7
REMARK    4  A    between atoms: C_10  and  C_12
REMARK    5  A    between atoms: C_12  and  N_13
REMARK    6  A    between atoms: C_24  and  C_25
REMARK                            x       y       z     vdW  Elec       q    Type
REMARK                         _______ _______ _______ _____ _____    ______ ____
ROOT
ATOM      1  C   UNL     1       0.943  10.103  20.084  0.00  0.00    +0.000 C 
ATOM      2  N   UNL     1       1.410  11.324  19.967  0.00  0.00    +0.000 NA
ATOM      3  N   UNL     1       0.513  12.168  20.622  0.00  0.00    +0.000 N 
ATOM      4  C   UNL     1       0.798  13.475  21.036  0.00  0.00    +0.000 C 
ATOM      5  O   UNL     1       0.090  14.054  21.869  0.00  0.00    +0.000 OA
ATOM      6  C   UNL     1      -0.650  11.447  21.156  0.00  0.00    +0.000 C 
ATOM      7  C   UNL     1      -0.353   9.988  20.846  0.00  0.00    +0.000 C 
ENDROOT
BRANCH   6   8
ATOM      8  C   UNL     1      -1.993  11.864  20.564  0.00  0.00    +0.000 A 
ATOM      9  C   UNL     1      -2.291  11.599  19.210  0.00  0.00    +0.000 A 
ATOM     10  C   UNL     1      -3.548  11.894  18.670  0.00  0.00    +0.000 A 
ATOM     11  C   UNL     1      -4.532  12.472  19.465  0.00  0.00    +0.000 A 
ATOM     12  C   UNL     1      -4.260  12.746  20.802  0.00  0.00    +0.000 A 
ATOM     13  C   UNL     1      -3.010  12.437  21.353  0.00  0.00    +0.000 A 
ATOM     14 CL   UNL     1      -2.810  12.750  23.041  0.00  0.00    +0.000 Cl
ENDBRANCH   6   8
BRANCH   1  18
ATOM     15  C   UNL     1       2.648   6.426  18.546  0.00  0.00    +0.000 A 
ATOM     16  C   UNL     1       2.261   6.536  19.880  0.00  0.00    +0.000 A 
ATOM     17  C   UNL     1       1.716   7.729  20.374  0.00  0.00    +0.000 A 
ATOM     18  C   UNL     1       1.572   8.854  19.546  0.00  0.00    +0.000 A 
ATOM     19  C   UNL     1       1.987   8.748  18.213  0.00  0.00    +0.000 A 
ATOM     20  C   UNL     1       2.512   7.541  17.715  0.00  0.00    +0.000 A 
BRANCH  15  22
ATOM     21  C   UNL     1       2.520   4.055  18.682  0.00  0.00    +0.000 C 
ATOM     22  O   UNL     1       3.184   5.220  18.207  0.00  0.00    +0.000 OA
ENDBRANCH  15  22
ENDBRANCH   1  18
BRANCH   4  23
ATOM     23  C   UNL     1       1.966  14.224  20.383  0.00  0.00    +0.000 C 
BRANCH  23  24
ATOM     24  N   UNL     1       1.883  15.300  19.415  0.00  0.00    +0.000 N 
ATOM     25  C   UNL     1       2.851  15.369  18.418  0.00  0.00    +0.000 A 
ATOM     26  O   UNL     1       3.736  14.545  18.220  0.00  0.00    +0.000 OA
ATOM     27  O   UNL     1       2.691  16.498  17.619  0.00  0.00    +0.000 OA
ATOM     28  C   UNL     1       1.463  16.975  18.040  0.00  0.00    +0.000 A 
ATOM     29  C   UNL     1       0.828  18.036  17.421  0.00  0.00    +0.000 A 
ATOM     30  C   UNL     1      -0.478  18.302  17.821  0.00  0.00    +0.000 A 
ATOM     31  C   UNL     1      -1.081  17.511  18.813  0.00  0.00    +0.000 A 
ATOM     32 CL   UNL     1      -2.750  17.787  19.153  0.00  0.00    +0.000 Cl
ATOM     33  C   UNL     1      -0.387  16.479  19.481  0.00  0.00    +0.000 A 
ATOM     34  C   UNL     1       0.910  16.232  19.079  0.00  0.00    +0.000 A 
ENDBRANCH  23  24
ENDBRANCH   4  23
TORSDOF 5
ENDMDL
