MODEL 1
REMARK VINA RESULT:      -7.4      0.000      0.000
REMARK  Name = 
REMARK  8 active torsions:
REMARK  status: ('A' for Active; 'I' for Inactive)
REMARK    1  A    between atoms: C_1  and  C_2
REMARK    2  A    between atoms: C_2  and  C_3
REMARK    3  A    between atoms: C_3  and  O_4
REMARK    4  A    between atoms: O_4  and  C_5
REMARK    5  A    between atoms: C_8  and  C_9
REMARK    6  A    between atoms: C_9  and  C_10
REMARK    7  A    between atoms: C_10  and  N_11
REMARK    8  A    between atoms: C_20  and  C_21
REMARK                            x       y       z     vdW  Elec       q    Type
REMARK                         _______ _______ _______ _____ _____    ______ ____
ROOT
ATOM      1  C   UNL     1       1.908   8.374  19.087  0.00  0.00    +0.000 A 
ATOM      2  C   UNL     1       2.528   7.919  17.921  0.00  0.00    +0.000 A 
ATOM      3  C   UNL     1       3.036   6.623  17.841  0.00  0.00    +0.000 A 
ATOM      4  C   UNL     1       2.959   5.756  18.932  0.00  0.00    +0.000 A 
ATOM      5  C   UNL     1       2.300   6.199  20.089  0.00  0.00    +0.000 A 
ATOM      6  C   UNL     1       1.780   7.503  20.182  0.00  0.00    +0.000 A 
ATOM      7  C   UNL     1       1.103   7.948  21.449  0.00  0.00    +0.000 C 
ENDROOT
BRANCH   1   8
ATOM      8  O   UNL     1       1.401   9.639  19.246  0.00  0.00    +0.000 OA
BRANCH   8   9
ATOM      9  C   UNL     1       0.516  10.088  18.218  0.00  0.00    +0.000 C 
BRANCH   9  11
ATOM     10  C   UNL     1      -1.948  10.177  17.772  0.00  0.00    +0.000 C 
ATOM     11  C   UNL     1      -0.860  10.337  18.820  0.00  0.00    +0.000 C 
ENDBRANCH   9  11
ENDBRANCH   8   9
ENDBRANCH   1   8
BRANCH   4  12
ATOM     12  C   UNL     1       3.522   4.353  18.879  0.00  0.00    +0.000 C 
BRANCH  12  13
ATOM     13  C   UNL     1       5.046   4.277  19.051  0.00  0.00    +0.000 C 
BRANCH  13  14
ATOM     14  N   UNL     1       5.749   4.444  17.785  0.00  0.00    +0.000 N 
ATOM     15  C   UNL     1       5.087   4.035  16.561  0.00  0.00    +0.000 C 
ATOM     16  C   UNL     1       5.528   4.904  15.406  0.00  0.00    +0.000 C 
ATOM     17  C   UNL     1       7.028   4.939  15.349  0.00  0.00    +0.000 C 
ATOM     18  O   UNL     1       7.640   5.193  14.315  0.00  0.00    +0.000 OA
ATOM     19  N   UNL     1       7.681   4.781  16.542  0.00  0.00    +0.000 N 
ATOM     20  C   UNL     1       7.100   4.733  17.779  0.00  0.00    +0.000 C 
ATOM     21  O   UNL     1       7.760   4.957  18.786  0.00  0.00    +0.000 OA
ATOM     22  H   UNL     1       8.676   4.954  16.532  0.00  0.00    +0.000 HD
ENDBRANCH  13  14
ENDBRANCH  12  13
ENDBRANCH   4  12
TORSDOF 6
ENDMDL
MODEL 2
REMARK VINA RESULT:      -7.2      1.025      1.778
REMARK  Name = 
REMARK  8 active torsions:
REMARK  status: ('A' for Active; 'I' for Inactive)
REMARK    1  A    between atoms: C_1  and  C_2
REMARK    2  A    between atoms: C_2  and  C_3
REMARK    3  A    between atoms: C_3  and  O_4
REMARK    4  A    between atoms: O_4  and  C_5
REMARK    5  A    between atoms: C_8  and  C_9
REMARK    6  A    between atoms: C_9  and  C_10
REMARK    7  A    between atoms: C_10  and  N_11
REMARK    8  A    between atoms: C_20  and  C_21
REMARK                            x       y       z     vdW  Elec       q    Type
REMARK                         _______ _______ _______ _____ _____    ______ ____
ROOT
ATOM      1  C   UNL     1       1.669   8.084  20.046  0.00  0.00    +0.000 A 
ATOM      2  C   UNL     1       1.715   6.886  20.762  0.00  0.00    +0.000 A 
ATOM      3  C   UNL     1       2.184   5.715  20.167  0.00  0.00    +0.000 A 
ATOM      4  C   UNL     1       2.598   5.707  18.833  0.00  0.00    +0.000 A 
ATOM      5  C   UNL     1       2.589   6.920  18.127  0.00  0.00    +0.000 A 
ATOM      6  C   UNL     1       2.121   8.108  18.717  0.00  0.00    +0.000 A 
ATOM      7  C   UNL     1       2.105   9.382  17.918  0.00  0.00    +0.000 C 
ENDROOT
BRANCH   1   8
ATOM      8  O   UNL     1       1.204   9.269  20.559  0.00  0.00    +0.000 OA
BRANCH   8   9
ATOM      9  C   UNL     1      -0.196   9.321  20.837  0.00  0.00    +0.000 C 
BRANCH   9  11
ATOM     10  C   UNL     1      -1.129  11.483  19.984  0.00  0.00    +0.000 C 
ATOM     11  C   UNL     1      -0.579  10.750  21.195  0.00  0.00    +0.000 C 
ENDBRANCH   9  11
ENDBRANCH   8   9
ENDBRANCH   1   8
BRANCH   4  12
ATOM     12  C   UNL     1       3.090   4.447  18.157  0.00  0.00    +0.000 C 
BRANCH  12  13
ATOM     13  C   UNL     1       4.549   4.089  18.473  0.00  0.00    +0.000 C 
BRANCH  13  14
ATOM     14  N   UNL     1       5.435   4.358  17.346  0.00  0.00    +0.000 N 
ATOM     15  C   UNL     1       4.938   4.137  16.002  0.00  0.00    +0.000 C 
ATOM     16  C   UNL     1       5.580   5.104  15.035  0.00  0.00    +0.000 C 
ATOM     17  C   UNL     1       7.072   5.053  15.191  0.00  0.00    +0.000 C 
ATOM     18  O   UNL     1       7.838   5.386  14.290  0.00  0.00    +0.000 OA
ATOM     19  N   UNL     1       7.539   4.716  16.433  0.00  0.00    +0.000 N 
ATOM     20  C   UNL     1       6.784   4.561  17.563  0.00  0.00    +0.000 C 
ATOM     21  O   UNL     1       7.301   4.625  18.671  0.00  0.00    +0.000 OA
ATOM     22  H   UNL     1       8.531   4.828  16.581  0.00  0.00    +0.000 HD
ENDBRANCH  13  14
ENDBRANCH  12  13
ENDBRANCH   4  12
TORSDOF 6
ENDMDL
MODEL 3
REMARK VINA RESULT:      -7.1      3.738      6.495
REMARK  Name = 
REMARK  8 active torsions:
REMARK  status: ('A' for Active; 'I' for Inactive)
REMARK    1  A    between atoms: C_1  and  C_2
REMARK    2  A    between atoms: C_2  and  C_3
REMARK    3  A    between atoms: C_3  and  O_4
REMARK    4  A    between atoms: O_4  and  C_5
REMARK    5  A    between atoms: C_8  and  C_9
REMARK    6  A    between atoms: C_9  and  C_10
REMARK    7  A    between atoms: C_10  and  N_11
REMARK    8  A    between atoms: C_20  and  C_21
REMARK                            x       y       z     vdW  Elec       q    Type
REMARK                         _______ _______ _______ _____ _____    ______ ____
ROOT
ATOM      1  C   UNL     1       7.067   6.883  17.566  0.00  0.00    +0.000 A 
ATOM      2  C   UNL     1       6.132   7.060  16.544  0.00  0.00    +0.000 A 
ATOM      3  C   UNL     1       5.065   6.175  16.391  0.00  0.00    +0.000 A 
ATOM      4  C   UNL     1       4.919   5.077  17.240  0.00  0.00    +0.000 A 
ATOM      5  C   UNL     1       5.837   4.922  18.291  0.00  0.00    +0.000 A 
ATOM      6  C   UNL     1       6.915   5.810  18.459  0.00  0.00    +0.000 A 
ATOM      7  C   UNL     1       7.890   5.595  19.583  0.00  0.00    +0.000 C 
ENDROOT
BRANCH   1   8
ATOM      8  O   UNL     1       8.150   7.702  17.768  0.00  0.00    +0.000 OA
BRANCH   8   9
ATOM      9  C   UNL     1       7.865   9.099  17.860  0.00  0.00    +0.000 C 
BRANCH   9  11
ATOM     10  C   UNL     1       9.299  11.121  18.219  0.00  0.00    +0.000 C 
ATOM     11  C   UNL     1       8.900   9.759  18.761  0.00  0.00    +0.000 C 
ENDBRANCH   9  11
ENDBRANCH   8   9
ENDBRANCH   1   8
BRANCH   4  12
ATOM     12  C   UNL     1       3.785   4.089  17.081  0.00  0.00    +0.000 C 
BRANCH  12  13
ATOM     13  C   UNL     1       2.421   4.613  17.550  0.00  0.00    +0.000 C 
BRANCH  13  14
ATOM     14  N   UNL     1       2.048   4.081  18.855  0.00  0.00    +0.000 N 
ATOM     15  C   UNL     1       1.199   2.906  18.912  0.00  0.00    +0.000 C 
ATOM     16  C   UNL     1       1.520   2.080  20.135  0.00  0.00    +0.000 C 
ATOM     17  C   UNL     1       1.494   2.957  21.354  0.00  0.00    +0.000 C 
ATOM     18  O   UNL     1       1.297   2.509  22.480  0.00  0.00    +0.000 OA
ATOM     19  N   UNL     1       1.812   4.274  21.157  0.00  0.00    +0.000 N 
ATOM     20  C   UNL     1       2.278   4.826  19.995  0.00  0.00    +0.000 C 
ATOM     21  O   UNL     1       2.872   5.897  20.010  0.00  0.00    +0.000 OA
ATOM     22  H   UNL     1       1.943   4.830  21.990  0.00  0.00    +0.000 HD
ENDBRANCH  13  14
ENDBRANCH  12  13
ENDBRANCH   4  12
TORSDOF 6
ENDMDL
MODEL 4
REMARK VINA RESULT:      -7.0      3.880      6.377
REMARK  Name = 
REMARK  8 active torsions:
REMARK  status: ('A' for Active; 'I' for Inactive)
REMARK    1  A    between atoms: C_1  and  C_2
REMARK    2  A    between atoms: C_2  and  C_3
REMARK    3  A    between atoms: C_3  and  O_4
REMARK    4  A    between atoms: O_4  and  C_5
REMARK    5  A    between atoms: C_8  and  C_9
REMARK    6  A    between atoms: C_9  and  C_10
REMARK    7  A    between atoms: C_10  and  N_11
REMARK    8  A    between atoms: C_20  and  C_21
REMARK                            x       y       z     vdW  Elec       q    Type
REMARK                         _______ _______ _______ _____ _____    ______ ____
ROOT
ATOM      1  C   UNL     1       7.569   6.951  18.058  0.00  0.00    +0.000 A 
ATOM      2  C   UNL     1       6.808   7.155  16.905  0.00  0.00    +0.000 A 
ATOM      3  C   UNL     1       5.985   6.146  16.405  0.00  0.00    +0.000 A 
ATOM      4  C   UNL     1       5.920   4.900  17.031  0.00  0.00    +0.000 A 
ATOM      5  C   UNL     1       6.654   4.710  18.212  0.00  0.00    +0.000 A 
ATOM      6  C   UNL     1       7.485   5.721  18.729  0.00  0.00    +0.000 A 
ATOM      7  C   UNL     1       8.275   5.468  19.983  0.00  0.00    +0.000 C 
ENDROOT
BRANCH   1   8
ATOM      8  O   UNL     1       8.413   7.890  18.598  0.00  0.00    +0.000 OA
BRANCH   8   9
ATOM      9  C   UNL     1       8.313   9.206  18.051  0.00  0.00    +0.000 C 
BRANCH   9  11
ATOM     10  C   UNL     1       9.271  11.513  18.224  0.00  0.00    +0.000 C 
ATOM     11  C   UNL     1       9.131  10.163  18.905  0.00  0.00    +0.000 C 
ENDBRANCH   9  11
ENDBRANCH   8   9
ENDBRANCH   1   8
BRANCH   4  12
ATOM     12  C   UNL     1       5.053   3.782  16.496  0.00  0.00    +0.000 C 
BRANCH  12  13
ATOM     13  C   UNL     1       3.562   3.921  16.835  0.00  0.00    +0.000 C 
BRANCH  13  14
ATOM     14  N   UNL     1       3.273   3.523  18.208  0.00  0.00    +0.000 N 
ATOM     15  C   UNL     1       3.652   2.192  18.642  0.00  0.00    +0.000 C 
ATOM     16  C   UNL     1       3.999   2.193  20.112  0.00  0.00    +0.000 C 
ATOM     17  C   UNL     1       2.886   2.835  20.890  0.00  0.00    +0.000 C 
ATOM     18  O   UNL     1       2.697   2.600  22.080  0.00  0.00    +0.000 OA
ATOM     19  N   UNL     1       2.156   3.784  20.226  0.00  0.00    +0.000 N 
ATOM     20  C   UNL     1       2.431   4.292  18.987  0.00  0.00    +0.000 C 
ATOM     21  O   UNL     1       1.960   5.367  18.636  0.00  0.00    +0.000 OA
ATOM     22  H   UNL     1       1.511   4.322  20.787  0.00  0.00    +0.000 HD
ENDBRANCH  13  14
ENDBRANCH  12  13
ENDBRANCH   4  12
TORSDOF 6
ENDMDL
MODEL 5
REMARK VINA RESULT:      -7.0      3.876      6.395
REMARK  Name = 
REMARK  8 active torsions:
REMARK  status: ('A' for Active; 'I' for Inactive)
REMARK    1  A    between atoms: C_1  and  C_2
REMARK    2  A    between atoms: C_2  and  C_3
REMARK    3  A    between atoms: C_3  and  O_4
REMARK    4  A    between atoms: O_4  and  C_5
REMARK    5  A    between atoms: C_8  and  C_9
REMARK    6  A    between atoms: C_9  and  C_10
REMARK    7  A    between atoms: C_10  and  N_11
REMARK    8  A    between atoms: C_20  and  C_21
REMARK                            x       y       z     vdW  Elec       q    Type
REMARK                         _______ _______ _______ _____ _____    ______ ____
ROOT
ATOM      1  C   UNL     1       7.354   6.973  17.862  0.00  0.00    +0.000 A 
ATOM      2  C   UNL     1       6.484   7.117  16.780  0.00  0.00    +0.000 A 
ATOM      3  C   UNL     1       5.613   6.089  16.421  0.00  0.00    +0.000 A 
ATOM      4  C   UNL     1       5.606   4.881  17.121  0.00  0.00    +0.000 A 
ATOM      5  C   UNL     1       6.453   4.752  18.234  0.00  0.00    +0.000 A 
ATOM      6  C   UNL     1       7.333   5.784  18.608  0.00  0.00    +0.000 A 
ATOM      7  C   UNL     1       8.241   5.596  19.792  0.00  0.00    +0.000 C 
ENDROOT
BRANCH   1   8
ATOM      8  O   UNL     1       8.249   7.934  18.263  0.00  0.00    +0.000 OA
BRANCH   8   9
ATOM      9  C   UNL     1       7.943   9.273  17.869  0.00  0.00    +0.000 C 
BRANCH   9  11
ATOM     10  C   UNL     1       9.293  10.340  19.690  0.00  0.00    +0.000 C 
ATOM     11  C   UNL     1       9.131  10.169  18.189  0.00  0.00    +0.000 C 
ENDBRANCH   9  11
ENDBRANCH   8   9
ENDBRANCH   1   8
BRANCH   4  12
ATOM     12  C   UNL     1       4.688   3.741  16.740  0.00  0.00    +0.000 C 
BRANCH  12  13
ATOM     13  C   UNL     1       3.216   3.965  17.112  0.00  0.00    +0.000 C 
BRANCH  13  14
ATOM     14  N   UNL     1       2.972   3.755  18.534  0.00  0.00    +0.000 N 
ATOM     15  C   UNL     1       2.841   4.914  19.396  0.00  0.00    +0.000 C 
ATOM     16  C   UNL     1       1.899   4.619  20.540  0.00  0.00    +0.000 C 
ATOM     17  C   UNL     1       2.320   3.348  21.221  0.00  0.00    +0.000 C 
ATOM     18  O   UNL     1       2.025   3.100  22.387  0.00  0.00    +0.000 OA
ATOM     19  N   UNL     1       2.961   2.426  20.438  0.00  0.00    +0.000 N 
ATOM     20  C   UNL     1       3.126   2.496  19.082  0.00  0.00    +0.000 C 
ATOM     21  O   UNL     1       3.372   1.488  18.432  0.00  0.00    +0.000 OA
ATOM     22  H   UNL     1       3.108   1.517  20.851  0.00  0.00    +0.000 HD
ENDBRANCH  13  14
ENDBRANCH  12  13
ENDBRANCH   4  12
TORSDOF 6
ENDMDL
MODEL 6
REMARK VINA RESULT:      -6.9      4.291      6.345
REMARK  Name = 
REMARK  8 active torsions:
REMARK  status: ('A' for Active; 'I' for Inactive)
REMARK    1  A    between atoms: C_1  and  C_2
REMARK    2  A    between atoms: C_2  and  C_3
REMARK    3  A    between atoms: C_3  and  O_4
REMARK    4  A    between atoms: O_4  and  C_5
REMARK    5  A    between atoms: C_8  and  C_9
REMARK    6  A    between atoms: C_9  and  C_10
REMARK    7  A    between atoms: C_10  and  N_11
REMARK    8  A    between atoms: C_20  and  C_21
REMARK                            x       y       z     vdW  Elec       q    Type
REMARK                         _______ _______ _______ _____ _____    ______ ____
ROOT
ATOM      1  C   UNL     1       7.059   7.011  17.923  0.00  0.00    +0.000 A 
ATOM      2  C   UNL     1       6.098   7.284  16.947  0.00  0.00    +0.000 A 
ATOM      3  C   UNL     1       5.084   6.369  16.666  0.00  0.00    +0.000 A 
ATOM      4  C   UNL     1       5.017   5.147  17.338  0.00  0.00    +0.000 A 
ATOM      5  C   UNL     1       5.959   4.890  18.347  0.00  0.00    +0.000 A 
ATOM      6  C   UNL     1       6.985   5.807  18.641  0.00  0.00    +0.000 A 
ATOM      7  C   UNL     1       7.989   5.483  19.713  0.00  0.00    +0.000 C 
ENDROOT
BRANCH   1   8
ATOM      8  O   UNL     1       8.094   7.854  18.240  0.00  0.00    +0.000 OA
BRANCH   8   9
ATOM      9  C   UNL     1       8.246   8.998  17.397  0.00  0.00    +0.000 C 
BRANCH   9  11
ATOM     10  C   UNL     1       9.342   9.934  19.446  0.00  0.00    +0.000 C 
ATOM     11  C   UNL     1       8.433  10.233  18.266  0.00  0.00    +0.000 C 
ENDBRANCH   9  11
ENDBRANCH   8   9
ENDBRANCH   1   8
BRANCH   4  12
ATOM     12  C   UNL     1       3.941   4.127  17.038  0.00  0.00    +0.000 C 
BRANCH  12  13
ATOM     13  C   UNL     1       4.079   2.814  17.821  0.00  0.00    +0.000 C 
BRANCH  13  14
ATOM     14  N   UNL     1       3.301   2.826  19.054  0.00  0.00    +0.000 N 
ATOM     15  C   UNL     1       2.029   3.522  19.066  0.00  0.00    +0.000 C 
ATOM     16  C   UNL     1       1.069   2.854  20.023  0.00  0.00    +0.000 C 
ATOM     17  C   UNL     1       1.730   2.687  21.361  0.00  0.00    +0.000 C 
ATOM     18  O   UNL     1       1.087   2.580  22.402  0.00  0.00    +0.000 OA
ATOM     19  N   UNL     1       3.092   2.552  21.349  0.00  0.00    +0.000 N 
ATOM     20  C   UNL     1       3.879   2.417  20.239  0.00  0.00    +0.000 C 
ATOM     21  O   UNL     1       5.005   1.943  20.328  0.00  0.00    +0.000 OA
ATOM     22  H   UNL     1       3.521   2.290  22.225  0.00  0.00    +0.000 HD
ENDBRANCH  13  14
ENDBRANCH  12  13
ENDBRANCH   4  12
TORSDOF 6
ENDMDL
MODEL 7
REMARK VINA RESULT:      -6.9      2.132      3.169
REMARK  Name = 
REMARK  8 active torsions:
REMARK  status: ('A' for Active; 'I' for Inactive)
REMARK    1  A    between atoms: C_1  and  C_2
REMARK    2  A    between atoms: C_2  and  C_3
REMARK    3  A    between atoms: C_3  and  O_4
REMARK    4  A    between atoms: O_4  and  C_5
REMARK    5  A    between atoms: C_8  and  C_9
REMARK    6  A    between atoms: C_9  and  C_10
REMARK    7  A    between atoms: C_10  and  N_11
REMARK    8  A    between atoms: C_20  and  C_21
REMARK                            x       y       z     vdW  Elec       q    Type
REMARK                         _______ _______ _______ _____ _____    ______ ____
ROOT
ATOM      1  C   UNL     1       1.997   6.225  20.006  0.00  0.00    +0.000 A 
ATOM      2  C   UNL     1       2.415   6.965  18.898  0.00  0.00    +0.000 A 
ATOM      3  C   UNL     1       3.064   6.348  17.830  0.00  0.00    +0.000 A 
ATOM      4  C   UNL     1       3.332   4.978  17.851  0.00  0.00    +0.000 A 
ATOM      5  C   UNL     1       2.876   4.228  18.946  0.00  0.00    +0.000 A 
ATOM      6  C   UNL     1       2.217   4.839  20.029  0.00  0.00    +0.000 A 
ATOM      7  C   UNL     1       1.765   4.003  21.194  0.00  0.00    +0.000 C 
ENDROOT
BRANCH   1   8
ATOM      8  O   UNL     1       1.369   6.766  21.100  0.00  0.00    +0.000 OA
BRANCH   8   9
ATOM      9  C   UNL     1       1.230   8.188  21.098  0.00  0.00    +0.000 C 
BRANCH   9  11
ATOM     10  C   UNL     1      -0.009   9.475  22.854  0.00  0.00    +0.000 C 
ATOM     11  C   UNL     1      -0.140   8.554  21.653  0.00  0.00    +0.000 C 
ENDBRANCH   9  11
ENDBRANCH   8   9
ENDBRANCH   1   8
BRANCH   4  12
ATOM     12  C   UNL     1       4.054   4.287  16.715  0.00  0.00    +0.000 C 
BRANCH  12  13
ATOM     13  C   UNL     1       5.518   3.940  17.016  0.00  0.00    +0.000 C 
BRANCH  13  14
ATOM     14  N   UNL     1       6.281   5.106  17.445  0.00  0.00    +0.000 N 
ATOM     15  C   UNL     1       6.478   5.325  18.865  0.00  0.00    +0.000 C 
ATOM     16  C   UNL     1       7.800   6.013  19.116  0.00  0.00    +0.000 C 
ATOM     17  C   UNL     1       7.900   7.237  18.252  0.00  0.00    +0.000 C 
ATOM     18  O   UNL     1       8.628   8.184  18.538  0.00  0.00    +0.000 OA
ATOM     19  N   UNL     1       7.217   7.196  17.066  0.00  0.00    +0.000 N 
ATOM     20  C   UNL     1       6.577   6.108  16.542  0.00  0.00    +0.000 C 
ATOM     21  O   UNL     1       6.319   6.054  15.345  0.00  0.00    +0.000 OA
ATOM     22  H   UNL     1       7.403   7.949  16.419  0.00  0.00    +0.000 HD
ENDBRANCH  13  14
ENDBRANCH  12  13
ENDBRANCH   4  12
TORSDOF 6
ENDMDL
MODEL 8
REMARK VINA RESULT:      -6.8      3.739      6.176
REMARK  Name = 
REMARK  8 active torsions:
REMARK  status: ('A' for Active; 'I' for Inactive)
REMARK    1  A    between atoms: C_1  and  C_2
REMARK    2  A    between atoms: C_2  and  C_3
REMARK    3  A    between atoms: C_3  and  O_4
REMARK    4  A    between atoms: O_4  and  C_5
REMARK    5  A    between atoms: C_8  and  C_9
REMARK    6  A    between atoms: C_9  and  C_10
REMARK    7  A    between atoms: C_10  and  N_11
REMARK    8  A    between atoms: C_20  and  C_21
REMARK                            x       y       z     vdW  Elec       q    Type
REMARK                         _______ _______ _______ _____ _____    ______ ____
ROOT
ATOM      1  C   UNL     1       5.743   5.342  17.633  0.00  0.00    +0.000 A 
ATOM      2  C   UNL     1       4.945   5.818  18.676  0.00  0.00    +0.000 A 
ATOM      3  C   UNL     1       3.585   5.516  18.730  0.00  0.00    +0.000 A 
ATOM      4  C   UNL     1       2.982   4.750  17.730  0.00  0.00    +0.000 A 
ATOM      5  C   UNL     1       3.792   4.239  16.704  0.00  0.00    +0.000 A 
ATOM      6  C   UNL     1       5.167   4.533  16.641  0.00  0.00    +0.000 A 
ATOM      7  C   UNL     1       5.995   3.986  15.511  0.00  0.00    +0.000 C 
ENDROOT
BRANCH   1   8
ATOM      8  O   UNL     1       7.083   5.612  17.505  0.00  0.00    +0.000 OA
BRANCH   8   9
ATOM      9  C   UNL     1       7.417   6.958  17.165  0.00  0.00    +0.000 C 
BRANCH   9  11
ATOM     10  C   UNL     1       8.319   9.092  18.118  0.00  0.00    +0.000 C 
ATOM     11  C   UNL     1       8.160   7.596  18.330  0.00  0.00    +0.000 C 
ENDBRANCH   9  11
ENDBRANCH   8   9
ENDBRANCH   1   8
BRANCH   4  12
ATOM     12  C   UNL     1       1.505   4.428  17.752  0.00  0.00    +0.000 C 
BRANCH  12  13
ATOM     13  C   UNL     1       1.160   3.091  18.424  0.00  0.00    +0.000 C 
BRANCH  13  14
ATOM     14  N   UNL     1       2.248   2.604  19.264  0.00  0.00    +0.000 N 
ATOM     15  C   UNL     1       3.151   1.606  18.725  0.00  0.00    +0.000 C 
ATOM     16  C   UNL     1       4.533   1.769  19.314  0.00  0.00    +0.000 C 
ATOM     17  C   UNL     1       4.437   1.814  20.812  0.00  0.00    +0.000 C 
ATOM     18  O   UNL     1       5.382   1.518  21.539  0.00  0.00    +0.000 OA
ATOM     19  N   UNL     1       3.270   2.310  21.328  0.00  0.00    +0.000 N 
ATOM     20  C   UNL     1       2.255   2.887  20.616  0.00  0.00    +0.000 C 
ATOM     21  O   UNL     1       1.442   3.616  21.171  0.00  0.00    +0.000 OA
ATOM     22  H   UNL     1       3.261   2.482  22.323  0.00  0.00    +0.000 HD
ENDBRANCH  13  14
ENDBRANCH  12  13
ENDBRANCH   4  12
TORSDOF 6
ENDMDL
MODEL 9
REMARK VINA RESULT:      -6.8      4.049      8.108
REMARK  Name = 
REMARK  8 active torsions:
REMARK  status: ('A' for Active; 'I' for Inactive)
REMARK    1  A    between atoms: C_1  and  C_2
REMARK    2  A    between atoms: C_2  and  C_3
REMARK    3  A    between atoms: C_3  and  O_4
REMARK    4  A    between atoms: O_4  and  C_5
REMARK    5  A    between atoms: C_8  and  C_9
REMARK    6  A    between atoms: C_9  and  C_10
REMARK    7  A    between atoms: C_10  and  N_11
REMARK    8  A    between atoms: C_20  and  C_21
REMARK                            x       y       z     vdW  Elec       q    Type
REMARK                         _______ _______ _______ _____ _____    ______ ____
ROOT
ATOM      1  C   UNL     1       2.628   5.842  19.788  0.00  0.00    +0.000 A 
ATOM      2  C   UNL     1       1.987   6.805  20.571  0.00  0.00    +0.000 A 
ATOM      3  C   UNL     1       1.656   8.052  20.042  0.00  0.00    +0.000 A 
ATOM      4  C   UNL     1       1.980   8.378  18.724  0.00  0.00    +0.000 A 
ATOM      5  C   UNL     1       2.588   7.396  17.926  0.00  0.00    +0.000 A 
ATOM      6  C   UNL     1       2.923   6.133  18.447  0.00  0.00    +0.000 A 
ATOM      7  C   UNL     1       3.597   5.118  17.565  0.00  0.00    +0.000 C 
ENDROOT
BRANCH   1   8
ATOM      8  O   UNL     1       2.999   4.602  20.244  0.00  0.00    +0.000 OA
BRANCH   8   9
ATOM      9  C   UNL     1       2.178   4.046  21.273  0.00  0.00    +0.000 C 
BRANCH   9  11
ATOM     10  C   UNL     1       1.677   2.321  19.528  0.00  0.00    +0.000 C 
ATOM     11  C   UNL     1       1.098   3.184  20.636  0.00  0.00    +0.000 C 
ENDBRANCH   9  11
ENDBRANCH   8   9
ENDBRANCH   1   8
BRANCH   4  12
ATOM     12  C   UNL     1       1.653   9.731  18.133  0.00  0.00    +0.000 C 
BRANCH  12  13
ATOM     13  C   UNL     1       0.761  10.610  19.021  0.00  0.00    +0.000 C 
BRANCH  13  14
ATOM     14  N   UNL     1      -0.527  10.891  18.396  0.00  0.00    +0.000 N 
ATOM     15  C   UNL     1      -1.142   9.865  17.577  0.00  0.00    +0.000 C 
ATOM     16  C   UNL     1      -2.648   9.960  17.652  0.00  0.00    +0.000 C 
ATOM     17  C   UNL     1      -3.077  11.368  17.357  0.00  0.00    +0.000 C 
ATOM     18  O   UNL     1      -4.200  11.638  16.938  0.00  0.00    +0.000 OA
ATOM     19  N   UNL     1      -2.183  12.353  17.683  0.00  0.00    +0.000 N 
ATOM     20  C   UNL     1      -1.013  12.184  18.370  0.00  0.00    +0.000 C 
ATOM     21  O   UNL     1      -0.475  13.133  18.926  0.00  0.00    +0.000 OA
ATOM     22  H   UNL     1      -2.525  13.301  17.627  0.00  0.00    +0.000 HD
ENDBRANCH  13  14
ENDBRANCH  12  13
ENDBRANCH   4  12
TORSDOF 6
ENDMDL
