MODEL 1
REMARK VINA RESULT:      -8.5      0.000      0.000
REMARK  Name = 
REMARK  7 active torsions:
REMARK  status: ('A' for Active; 'I' for Inactive)
REMARK    1  A    between atoms: C_1  and  C_2
REMARK    2  A    between atoms: C_2  and  C_3
REMARK    3  A    between atoms: C_2  and  C_4
REMARK    4  A    between atoms: C_2  and  C_5
REMARK    5  A    between atoms: C_5  and  O_6
REMARK    6  A    between atoms: N_9  and  C_10
REMARK    7  A    between atoms: C_10  and  C_11
REMARK                            x       y       z     vdW  Elec       q    Type
REMARK                         _______ _______ _______ _____ _____    ______ ____
ROOT
ATOM      1  C   UNL     1       2.946   5.889  18.745  0.00  0.00    +0.000 C 
ATOM      2  C   UNL     1       2.625   4.643  19.570  0.00  0.00    +0.000 A 
ATOM      3  C   UNL     1       1.373   4.478  20.197  0.00  0.00    +0.000 A 
ATOM      4  C   UNL     1       1.135   3.398  21.052  0.00  0.00    +0.000 A 
ATOM      5  C   UNL     1       2.124   2.441  21.258  0.00  0.00    +0.000 A 
ATOM      6  C   UNL     1       3.342   2.558  20.593  0.00  0.00    +0.000 A 
ATOM      7  C   UNL     1       3.592   3.654  19.759  0.00  0.00    +0.000 A 
ATOM      8  O   UNL     1       4.834   3.676  19.184  0.00  0.00    +0.000 OA
ATOM      9  C   UNL     1       5.184   4.750  18.407  0.00  0.00    +0.000 A 
ATOM     10  C   UNL     1       6.482   4.703  17.882  0.00  0.00    +0.000 A 
ATOM     11  C   UNL     1       6.964   5.742  17.090  0.00  0.00    +0.000 A 
ATOM     12  C   UNL     1       6.138   6.820  16.803  0.00  0.00    +0.000 A 
ATOM     13  C   UNL     1       4.839   6.849  17.313  0.00  0.00    +0.000 A 
ATOM     14  C   UNL     1       4.344   5.832  18.148  0.00  0.00    +0.000 A 
ENDROOT
BRANCH   1  15
ATOM     15  C   UNL     1       2.727   7.147  19.656  0.00  0.00    +0.000 C 
BRANCH  15  19
ATOM     16  C   UNL     1       0.213  10.652  19.173  0.00  0.00    +0.000 C 
ATOM     17  C   UNL     1      -0.049   9.652  20.323  0.00  0.00    +0.000 C 
ATOM     18  C   UNL     1       1.184   8.790  20.599  0.00  0.00    +0.000 C 
ATOM     19  N   UNL     1       1.542   8.004  19.412  0.00  0.00    +0.000 NA
ATOM     20  C   UNL     1       1.811   8.885  18.262  0.00  0.00    +0.000 C 
ATOM     21  C   UNL     1       0.636   9.818  17.946  0.00  0.00    +0.000 C 
BRANCH  16  23
ATOM     22  C   UNL     1      -1.962  11.025  17.858  0.00  0.00    +0.000 C 
ATOM     23  C   UNL     1      -0.989  11.635  18.895  0.00  0.00    +0.000 C 
ATOM     24  C   UNL     1      -0.494  12.975  18.297  0.00  0.00    +0.000 C 
ATOM     25  C   UNL     1      -1.795  11.961  20.169  0.00  0.00    +0.000 C 
ENDBRANCH  16  23
BRANCH  16  26
ATOM     26  O   UNL     1       1.354  11.453  19.541  0.00  0.00    +0.000 OA
ATOM     27  H   UNL     1       1.814  11.009  20.272  0.00  0.00    +0.000 HD
ENDBRANCH  16  26
ENDBRANCH  15  19
ENDBRANCH   1  15
TORSDOF 4
ENDMDL
MODEL 2
REMARK VINA RESULT:      -8.4      1.483      3.969
REMARK  Name = 
REMARK  7 active torsions:
REMARK  status: ('A' for Active; 'I' for Inactive)
REMARK    1  A    between atoms: C_1  and  C_2
REMARK    2  A    between atoms: C_2  and  C_3
REMARK    3  A    between atoms: C_2  and  C_4
REMARK    4  A    between atoms: C_2  and  C_5
REMARK    5  A    between atoms: C_5  and  O_6
REMARK    6  A    between atoms: N_9  and  C_10
REMARK    7  A    between atoms: C_10  and  C_11
REMARK                            x       y       z     vdW  Elec       q    Type
REMARK                         _______ _______ _______ _____ _____    ______ ____
ROOT
ATOM      1  C   UNL     1       3.334   6.040  18.738  0.00  0.00    +0.000 C 
ATOM      2  C   UNL     1       4.198   5.700  17.524  0.00  0.00    +0.000 A 
ATOM      3  C   UNL     1       4.791   6.708  16.737  0.00  0.00    +0.000 A 
ATOM      4  C   UNL     1       5.472   6.391  15.558  0.00  0.00    +0.000 A 
ATOM      5  C   UNL     1       5.613   5.063  15.170  0.00  0.00    +0.000 A 
ATOM      6  C   UNL     1       5.088   4.053  15.973  0.00  0.00    +0.000 A 
ATOM      7  C   UNL     1       4.381   4.370  17.139  0.00  0.00    +0.000 A 
ATOM      8  O   UNL     1       3.887   3.296  17.830  0.00  0.00    +0.000 OA
ATOM      9  C   UNL     1       3.126   3.523  18.946  0.00  0.00    +0.000 A 
ATOM     10  C   UNL     1       2.638   2.369  19.575  0.00  0.00    +0.000 A 
ATOM     11  C   UNL     1       1.837   2.465  20.710  0.00  0.00    +0.000 A 
ATOM     12  C   UNL     1       1.541   3.717  21.232  0.00  0.00    +0.000 A 
ATOM     13  C   UNL     1       2.048   4.861  20.612  0.00  0.00    +0.000 A 
ATOM     14  C   UNL     1       2.825   4.791  19.442  0.00  0.00    +0.000 A 
ENDROOT
BRANCH   1  15
ATOM     15  C   UNL     1       2.175   6.983  18.263  0.00  0.00    +0.000 C 
BRANCH  15  19
ATOM     16  C   UNL     1       0.471  10.638  19.869  0.00  0.00    +0.000 C 
ATOM     17  C   UNL     1       1.359  10.678  18.605  0.00  0.00    +0.000 C 
ATOM     18  C   UNL     1       1.456   9.297  17.952  0.00  0.00    +0.000 C 
ATOM     19  N   UNL     1       2.057   8.328  18.876  0.00  0.00    +0.000 NA
ATOM     20  C   UNL     1       1.266   8.226  20.115  0.00  0.00    +0.000 C 
ATOM     21  C   UNL     1       1.083   9.580  20.812  0.00  0.00    +0.000 C 
BRANCH  16  23
ATOM     22  C   UNL     1      -0.671  12.931  19.672  0.00  0.00    +0.000 C 
ATOM     23  C   UNL     1       0.254  12.047  20.544  0.00  0.00    +0.000 C 
ATOM     24  C   UNL     1       1.591  12.816  20.685  0.00  0.00    +0.000 C 
ATOM     25  C   UNL     1      -0.375  11.941  21.948  0.00  0.00    +0.000 C 
ENDBRANCH  16  23
BRANCH  16  26
ATOM     26  O   UNL     1      -0.826  10.140  19.477  0.00  0.00    +0.000 OA
ATOM     27  H   UNL     1      -0.704   9.271  19.061  0.00  0.00    +0.000 HD
ENDBRANCH  16  26
ENDBRANCH  15  19
ENDBRANCH   1  15
TORSDOF 4
ENDMDL
MODEL 3
REMARK VINA RESULT:      -8.3      1.014      1.335
REMARK  Name = 
REMARK  7 active torsions:
REMARK  status: ('A' for Active; 'I' for Inactive)
REMARK    1  A    between atoms: C_1  and  C_2
REMARK    2  A    between atoms: C_2  and  C_3
REMARK    3  A    between atoms: C_2  and  C_4
REMARK    4  A    between atoms: C_2  and  C_5
REMARK    5  A    between atoms: C_5  and  O_6
REMARK    6  A    between atoms: N_9  and  C_10
REMARK    7  A    between atoms: C_10  and  C_11
REMARK                            x       y       z     vdW  Elec       q    Type
REMARK                         _______ _______ _______ _____ _____    ______ ____
ROOT
ATOM      1  C   UNL     1       3.192   5.866  18.088  0.00  0.00    +0.000 C 
ATOM      2  C   UNL     1       2.687   4.446  18.344  0.00  0.00    +0.000 A 
ATOM      3  C   UNL     1       1.334   4.190  18.649  0.00  0.00    +0.000 A 
ATOM      4  C   UNL     1       0.909   2.907  19.006  0.00  0.00    +0.000 A 
ATOM      5  C   UNL     1       1.814   1.851  19.018  0.00  0.00    +0.000 A 
ATOM      6  C   UNL     1       3.140   2.079  18.657  0.00  0.00    +0.000 A 
ATOM      7  C   UNL     1       3.573   3.368  18.327  0.00  0.00    +0.000 A 
ATOM      8  O   UNL     1       4.903   3.473  18.017  0.00  0.00    +0.000 OA
ATOM      9  C   UNL     1       5.422   4.712  17.748  0.00  0.00    +0.000 A 
ATOM     10  C   UNL     1       6.796   4.731  17.469  0.00  0.00    +0.000 A 
ATOM     11  C   UNL     1       7.447   5.931  17.196  0.00  0.00    +0.000 A 
ATOM     12  C   UNL     1       6.720   7.113  17.180  0.00  0.00    +0.000 A 
ATOM     13  C   UNL     1       5.349   7.084  17.439  0.00  0.00    +0.000 A 
ATOM     14  C   UNL     1       4.676   5.890  17.757  0.00  0.00    +0.000 A 
ENDROOT
BRANCH   1  15
ATOM     15  C   UNL     1       2.836   6.743  19.339  0.00  0.00    +0.000 C 
BRANCH  15  19
ATOM     16  C   UNL     1       0.455  10.371  19.283  0.00  0.00    +0.000 C 
ATOM     17  C   UNL     1       0.257   9.322  20.401  0.00  0.00    +0.000 C 
ATOM     18  C   UNL     1       1.469   8.395  20.510  0.00  0.00    +0.000 C 
ATOM     19  N   UNL     1       1.674   7.661  19.256  0.00  0.00    +0.000 NA
ATOM     20  C   UNL     1       1.874   8.592  18.132  0.00  0.00    +0.000 C 
ATOM     21  C   UNL     1       0.720   9.590  17.979  0.00  0.00    +0.000 C 
BRANCH  16  23
ATOM     22  C   UNL     1      -1.282  11.753  20.576  0.00  0.00    +0.000 C 
ATOM     23  C   UNL     1      -0.720  11.418  19.174  0.00  0.00    +0.000 C 
ATOM     24  C   UNL     1      -1.904  10.855  18.350  0.00  0.00    +0.000 C 
ATOM     25  C   UNL     1      -0.277  12.739  18.512  0.00  0.00    +0.000 C 
ENDBRANCH  16  23
BRANCH  16  26
ATOM     26  O   UNL     1       1.663  11.103  19.578  0.00  0.00    +0.000 OA
ATOM     27  H   UNL     1       2.033  11.426  18.741  0.00  0.00    +0.000 HD
ENDBRANCH  16  26
ENDBRANCH  15  19
ENDBRANCH   1  15
TORSDOF 4
ENDMDL
MODEL 4
REMARK VINA RESULT:      -8.1      1.409      1.919
REMARK  Name = 
REMARK  7 active torsions:
REMARK  status: ('A' for Active; 'I' for Inactive)
REMARK    1  A    between atoms: C_1  and  C_2
REMARK    2  A    between atoms: C_2  and  C_3
REMARK    3  A    between atoms: C_2  and  C_4
REMARK    4  A    between atoms: C_2  and  C_5
REMARK    5  A    between atoms: C_5  and  O_6
REMARK    6  A    between atoms: N_9  and  C_10
REMARK    7  A    between atoms: C_10  and  C_11
REMARK                            x       y       z     vdW  Elec       q    Type
REMARK                         _______ _______ _______ _____ _____    ______ ____
ROOT
ATOM      1  C   UNL     1       2.985   5.768  18.072  0.00  0.00    +0.000 C 
ATOM      2  C   UNL     1       2.514   4.319  18.197  0.00  0.00    +0.000 A 
ATOM      3  C   UNL     1       1.175   4.004  18.507  0.00  0.00    +0.000 A 
ATOM      4  C   UNL     1       0.784   2.683  18.744  0.00  0.00    +0.000 A 
ATOM      5  C   UNL     1       1.710   1.651  18.631  0.00  0.00    +0.000 A 
ATOM      6  C   UNL     1       3.022   1.943  18.263  0.00  0.00    +0.000 A 
ATOM      7  C   UNL     1       3.421   3.267  18.053  0.00  0.00    +0.000 A 
ATOM      8  O   UNL     1       4.740   3.432  17.724  0.00  0.00    +0.000 OA
ATOM      9  C   UNL     1       5.228   4.703  17.568  0.00  0.00    +0.000 A 
ATOM     10  C   UNL     1       6.593   4.780  17.259  0.00  0.00    +0.000 A 
ATOM     11  C   UNL     1       7.214   6.014  17.093  0.00  0.00    +0.000 A 
ATOM     12  C   UNL     1       6.464   7.176  17.210  0.00  0.00    +0.000 A 
ATOM     13  C   UNL     1       5.100   7.091  17.497  0.00  0.00    +0.000 A 
ATOM     14  C   UNL     1       4.459   5.857  17.710  0.00  0.00    +0.000 A 
ENDROOT
BRANCH   1  15
ATOM     15  C   UNL     1       2.644   6.509  19.412  0.00  0.00    +0.000 C 
BRANCH  15  19
ATOM     16  C   UNL     1       0.523  10.284  19.111  0.00  0.00    +0.000 C 
ATOM     17  C   UNL     1       1.565   9.884  18.042  0.00  0.00    +0.000 C 
ATOM     18  C   UNL     1       1.830   8.377  18.064  0.00  0.00    +0.000 C 
ATOM     19  N   UNL     1       2.364   7.965  19.367  0.00  0.00    +0.000 NA
ATOM     20  C   UNL     1       1.426   8.309  20.450  0.00  0.00    +0.000 C 
ATOM     21  C   UNL     1       1.070   9.800  20.471  0.00  0.00    +0.000 C 
BRANCH  16  23
ATOM     22  C   UNL     1      -0.220  12.308  20.509  0.00  0.00    +0.000 C 
ATOM     23  C   UNL     1       0.134  11.813  19.085  0.00  0.00    +0.000 C 
ATOM     24  C   UNL     1      -1.118  12.062  18.210  0.00  0.00    +0.000 C 
ATOM     25  C   UNL     1       1.270  12.703  18.542  0.00  0.00    +0.000 C 
ENDBRANCH  16  23
BRANCH  16  26
ATOM     26  O   UNL     1      -0.678   9.526  18.857  0.00  0.00    +0.000 OA
ATOM     27  H   UNL     1      -1.241  10.042  18.258  0.00  0.00    +0.000 HD
ENDBRANCH  16  26
ENDBRANCH  15  19
ENDBRANCH   1  15
TORSDOF 4
ENDMDL
MODEL 5
REMARK VINA RESULT:      -8.0      0.942      1.033
REMARK  Name = 
REMARK  7 active torsions:
REMARK  status: ('A' for Active; 'I' for Inactive)
REMARK    1  A    between atoms: C_1  and  C_2
REMARK    2  A    between atoms: C_2  and  C_3
REMARK    3  A    between atoms: C_2  and  C_4
REMARK    4  A    between atoms: C_2  and  C_5
REMARK    5  A    between atoms: C_5  and  O_6
REMARK    6  A    between atoms: N_9  and  C_10
REMARK    7  A    between atoms: C_10  and  C_11
REMARK                            x       y       z     vdW  Elec       q    Type
REMARK                         _______ _______ _______ _____ _____    ______ ____
ROOT
ATOM      1  C   UNL     1       2.499   5.913  18.797  0.00  0.00    +0.000 C 
ATOM      2  C   UNL     1       2.363   4.640  19.631  0.00  0.00    +0.000 A 
ATOM      3  C   UNL     1       1.320   4.479  20.565  0.00  0.00    +0.000 A 
ATOM      4  C   UNL     1       1.279   3.368  21.412  0.00  0.00    +0.000 A 
ATOM      5  C   UNL     1       2.249   2.376  21.308  0.00  0.00    +0.000 A 
ATOM      6  C   UNL     1       3.249   2.492  20.345  0.00  0.00    +0.000 A 
ATOM      7  C   UNL     1       3.308   3.618  19.516  0.00  0.00    +0.000 A 
ATOM      8  O   UNL     1       4.351   3.633  18.629  0.00  0.00    +0.000 OA
ATOM      9  C   UNL     1       4.520   4.732  17.828  0.00  0.00    +0.000 A 
ATOM     10  C   UNL     1       5.628   4.674  16.971  0.00  0.00    +0.000 A 
ATOM     11  C   UNL     1       5.919   5.735  16.118  0.00  0.00    +0.000 A 
ATOM     12  C   UNL     1       5.088   6.847  16.103  0.00  0.00    +0.000 A 
ATOM     13  C   UNL     1       3.975   6.888  16.945  0.00  0.00    +0.000 A 
ATOM     14  C   UNL     1       3.683   5.846  17.844  0.00  0.00    +0.000 A 
ENDROOT
BRANCH   1  15
ATOM     15  C   UNL     1       2.579   7.133  19.779  0.00  0.00    +0.000 C 
BRANCH  15  19
ATOM     16  C   UNL     1       0.255  10.742  20.423  0.00  0.00    +0.000 C 
ATOM     17  C   UNL     1      -0.053   9.458  21.227  0.00  0.00    +0.000 C 
ATOM     18  C   UNL     1       1.133   8.492  21.204  0.00  0.00    +0.000 C 
ATOM     19  N   UNL     1       1.440   8.082  19.829  0.00  0.00    +0.000 NA
ATOM     20  C   UNL     1       1.750   9.253  18.990  0.00  0.00    +0.000 C 
ATOM     21  C   UNL     1       0.626  10.296  18.993  0.00  0.00    +0.000 C 
BRANCH  16  23
ATOM     22  C   UNL     1      -1.936  11.565  19.365  0.00  0.00    +0.000 C 
ATOM     23  C   UNL     1      -0.893  11.822  20.479  0.00  0.00    +0.000 C 
ATOM     24  C   UNL     1      -0.338  13.248  20.239  0.00  0.00    +0.000 C 
ATOM     25  C   UNL     1      -1.634  11.830  21.831  0.00  0.00    +0.000 C 
ENDBRANCH  16  23
BRANCH  16  26
ATOM     26  O   UNL     1       1.441  11.338  20.989  0.00  0.00    +0.000 OA
ATOM     27  H   UNL     1       1.165  11.977  21.667  0.00  0.00    +0.000 HD
ENDBRANCH  16  26
ENDBRANCH  15  19
ENDBRANCH   1  15
TORSDOF 4
ENDMDL
MODEL 6
REMARK VINA RESULT:      -7.7      2.836      6.011
REMARK  Name = 
REMARK  7 active torsions:
REMARK  status: ('A' for Active; 'I' for Inactive)
REMARK    1  A    between atoms: C_1  and  C_2
REMARK    2  A    between atoms: C_2  and  C_3
REMARK    3  A    between atoms: C_2  and  C_4
REMARK    4  A    between atoms: C_2  and  C_5
REMARK    5  A    between atoms: C_5  and  O_6
REMARK    6  A    between atoms: N_9  and  C_10
REMARK    7  A    between atoms: C_10  and  C_11
REMARK                            x       y       z     vdW  Elec       q    Type
REMARK                         _______ _______ _______ _____ _____    ______ ____
ROOT
ATOM      1  C   UNL     1       0.962  10.125  19.308  0.00  0.00    +0.000 C 
ATOM      2  C   UNL     1       1.724   8.821  19.072  0.00  0.00    +0.000 A 
ATOM      3  C   UNL     1       2.376   8.561  17.849  0.00  0.00    +0.000 A 
ATOM      4  C   UNL     1       2.960   7.315  17.597  0.00  0.00    +0.000 A 
ATOM      5  C   UNL     1       2.944   6.328  18.577  0.00  0.00    +0.000 A 
ATOM      6  C   UNL     1       2.360   6.595  19.812  0.00  0.00    +0.000 A 
ATOM      7  C   UNL     1       1.750   7.830  20.056  0.00  0.00    +0.000 A 
ATOM      8  O   UNL     1       1.184   7.965  21.296  0.00  0.00    +0.000 OA
ATOM      9  C   UNL     1       0.508   9.120  21.590  0.00  0.00    +0.000 A 
ATOM     10  C   UNL     1      -0.063   9.162  22.870  0.00  0.00    +0.000 A 
ATOM     11  C   UNL     1      -0.791  10.274  23.285  0.00  0.00    +0.000 A 
ATOM     12  C   UNL     1      -0.930  11.357  22.428  0.00  0.00    +0.000 A 
ATOM     13  C   UNL     1      -0.341  11.317  21.163  0.00  0.00    +0.000 A 
ATOM     14  C   UNL     1       0.364  10.188  20.705  0.00  0.00    +0.000 A 
ENDROOT
BRANCH   1  15
ATOM     15  C   UNL     1      -0.117  10.270  18.180  0.00  0.00    +0.000 C 
BRANCH  15  19
ATOM     16  C   UNL     1      -4.271  11.517  18.002  0.00  0.00    +0.000 C 
ATOM     17  C   UNL     1      -3.282  12.225  18.955  0.00  0.00    +0.000 C 
ATOM     18  C   UNL     1      -1.832  11.975  18.533  0.00  0.00    +0.000 C 
ATOM     19  N   UNL     1      -1.522  10.541  18.572  0.00  0.00    +0.000 NA
ATOM     20  C   UNL     1      -2.424   9.786  17.684  0.00  0.00    +0.000 C 
ATOM     21  C   UNL     1      -3.904  10.018  18.011  0.00  0.00    +0.000 C 
BRANCH  16  23
ATOM     22  C   UNL     1      -6.444  12.612  17.178  0.00  0.00    +0.000 C 
ATOM     23  C   UNL     1      -5.788  11.806  18.325  0.00  0.00    +0.000 C 
ATOM     24  C   UNL     1      -5.939  12.663  19.605  0.00  0.00    +0.000 C 
ATOM     25  C   UNL     1      -6.607  10.515  18.528  0.00  0.00    +0.000 C 
ENDBRANCH  16  23
BRANCH  16  26
ATOM     26  O   UNL     1      -4.012  11.996  16.666  0.00  0.00    +0.000 OA
ATOM     27  H   UNL     1      -3.115  12.367  16.645  0.00  0.00    +0.000 HD
ENDBRANCH  16  26
ENDBRANCH  15  19
ENDBRANCH   1  15
TORSDOF 4
ENDMDL
MODEL 7
REMARK VINA RESULT:      -7.5      1.267      1.589
REMARK  Name = 
REMARK  7 active torsions:
REMARK  status: ('A' for Active; 'I' for Inactive)
REMARK    1  A    between atoms: C_1  and  C_2
REMARK    2  A    between atoms: C_2  and  C_3
REMARK    3  A    between atoms: C_2  and  C_4
REMARK    4  A    between atoms: C_2  and  C_5
REMARK    5  A    between atoms: C_5  and  O_6
REMARK    6  A    between atoms: N_9  and  C_10
REMARK    7  A    between atoms: C_10  and  C_11
REMARK                            x       y       z     vdW  Elec       q    Type
REMARK                         _______ _______ _______ _____ _____    ______ ____
ROOT
ATOM      1  C   UNL     1       2.552   5.837  18.314  0.00  0.00    +0.000 C 
ATOM      2  C   UNL     1       2.092   4.492  18.876  0.00  0.00    +0.000 A 
ATOM      3  C   UNL     1       0.992   4.398  19.753  0.00  0.00    +0.000 A 
ATOM      4  C   UNL     1       0.659   3.183  20.361  0.00  0.00    +0.000 A 
ATOM      5  C   UNL     1       1.387   2.035  20.067  0.00  0.00    +0.000 A 
ATOM      6  C   UNL     1       2.435   2.102  19.152  0.00  0.00    +0.000 A 
ATOM      7  C   UNL     1       2.788   3.322  18.565  0.00  0.00    +0.000 A 
ATOM      8  O   UNL     1       3.852   3.268  17.705  0.00  0.00    +0.000 OA
ATOM      9  C   UNL     1       4.304   4.432  17.141  0.00  0.00    +0.000 A 
ATOM     10  C   UNL     1       5.414   4.289  16.296  0.00  0.00    +0.000 A 
ATOM     11  C   UNL     1       5.979   5.399  15.675  0.00  0.00    +0.000 A 
ATOM     12  C   UNL     1       5.420   6.653  15.877  0.00  0.00    +0.000 A 
ATOM     13  C   UNL     1       4.302   6.785  16.703  0.00  0.00    +0.000 A 
ATOM     14  C   UNL     1       3.738   5.685  17.375  0.00  0.00    +0.000 A 
ENDROOT
BRANCH   1  15
ATOM     15  C   UNL     1       2.853   6.792  19.521  0.00  0.00    +0.000 C 
BRANCH  15  19
ATOM     16  C   UNL     1       0.214  10.222  19.180  0.00  0.00    +0.000 C 
ATOM     17  C   UNL     1       1.298   9.958  18.110  0.00  0.00    +0.000 C 
ATOM     18  C   UNL     1       1.776   8.505  18.152  0.00  0.00    +0.000 C 
ATOM     19  N   UNL     1       2.368   8.192  19.457  0.00  0.00    +0.000 NA
ATOM     20  C   UNL     1       1.395   8.416  20.541  0.00  0.00    +0.000 C 
ATOM     21  C   UNL     1       0.831   9.842  20.543  0.00  0.00    +0.000 C 
BRANCH  16  23
ATOM     22  C   UNL     1      -1.522  11.766  18.085  0.00  0.00    +0.000 C 
ATOM     23  C   UNL     1      -0.388  11.679  19.135  0.00  0.00    +0.000 C 
ATOM     24  C   UNL     1       0.679  12.718  18.715  0.00  0.00    +0.000 C 
ATOM     25  C   UNL     1      -0.965  12.124  20.494  0.00  0.00    +0.000 C 
ENDBRANCH  16  23
BRANCH  16  26
ATOM     26  O   UNL     1      -0.868   9.296  18.945  0.00  0.00    +0.000 OA
ATOM     27  H   UNL     1      -0.675   8.476  19.427  0.00  0.00    +0.000 HD
ENDBRANCH  16  26
ENDBRANCH  15  19
ENDBRANCH   1  15
TORSDOF 4
ENDMDL
MODEL 8
REMARK VINA RESULT:      -7.3      0.961      3.703
REMARK  Name = 
REMARK  7 active torsions:
REMARK  status: ('A' for Active; 'I' for Inactive)
REMARK    1  A    between atoms: C_1  and  C_2
REMARK    2  A    between atoms: C_2  and  C_3
REMARK    3  A    between atoms: C_2  and  C_4
REMARK    4  A    between atoms: C_2  and  C_5
REMARK    5  A    between atoms: C_5  and  O_6
REMARK    6  A    between atoms: N_9  and  C_10
REMARK    7  A    between atoms: C_10  and  C_11
REMARK                            x       y       z     vdW  Elec       q    Type
REMARK                         _______ _______ _______ _____ _____    ______ ____
ROOT
ATOM      1  C   UNL     1       3.477   6.181  18.951  0.00  0.00    +0.000 C 
ATOM      2  C   UNL     1       4.797   5.921  18.226  0.00  0.00    +0.000 A 
ATOM      3  C   UNL     1       5.585   6.980  17.731  0.00  0.00    +0.000 A 
ATOM      4  C   UNL     1       6.724   6.729  16.959  0.00  0.00    +0.000 A 
ATOM      5  C   UNL     1       7.121   5.419  16.710  0.00  0.00    +0.000 A 
ATOM      6  C   UNL     1       6.386   4.365  17.247  0.00  0.00    +0.000 A 
ATOM      7  C   UNL     1       5.231   4.614  17.996  0.00  0.00    +0.000 A 
ATOM      8  O   UNL     1       4.578   3.499  18.447  0.00  0.00    +0.000 OA
ATOM      9  C   UNL     1       3.400   3.654  19.130  0.00  0.00    +0.000 A 
ATOM     10  C   UNL     1       2.786   2.460  19.531  0.00  0.00    +0.000 A 
ATOM     11  C   UNL     1       1.575   2.481  20.218  0.00  0.00    +0.000 A 
ATOM     12  C   UNL     1       0.988   3.700  20.528  0.00  0.00    +0.000 A 
ATOM     13  C   UNL     1       1.617   4.887  20.144  0.00  0.00    +0.000 A 
ATOM     14  C   UNL     1       2.819   4.890  19.413  0.00  0.00    +0.000 A 
ENDROOT
BRANCH   1  15
ATOM     15  C   UNL     1       2.557   7.024  18.002  0.00  0.00    +0.000 C 
BRANCH  15  19
ATOM     16  C   UNL     1       0.587  10.521  19.655  0.00  0.00    +0.000 C 
ATOM     17  C   UNL     1       0.847   9.279  20.538  0.00  0.00    +0.000 C 
ATOM     18  C   UNL     1       1.933   8.387  19.932  0.00  0.00    +0.000 C 
ATOM     19  N   UNL     1       1.527   7.903  18.607  0.00  0.00    +0.000 NA
ATOM     20  C   UNL     1       1.259   9.031  17.697  0.00  0.00    +0.000 C 
ATOM     21  C   UNL     1       0.210  10.001  18.252  0.00  0.00    +0.000 C 
BRANCH  16  23
ATOM     22  C   UNL     1      -1.759  11.542  19.426  0.00  0.00    +0.000 C 
ATOM     23  C   UNL     1      -0.459  11.531  20.266  0.00  0.00    +0.000 C 
ATOM     24  C   UNL     1       0.084  12.982  20.254  0.00  0.00    +0.000 C 
ATOM     25  C   UNL     1      -0.836  11.186  21.721  0.00  0.00    +0.000 C 
ENDBRANCH  16  23
BRANCH  16  26
ATOM     26  O   UNL     1       1.839  11.225  19.511  0.00  0.00    +0.000 OA
ATOM     27  H   UNL     1       1.892  11.895  20.212  0.00  0.00    +0.000 HD
ENDBRANCH  16  26
ENDBRANCH  15  19
ENDBRANCH   1  15
TORSDOF 4
ENDMDL
MODEL 9
REMARK VINA RESULT:      -7.3      1.361      3.933
REMARK  Name = 
REMARK  7 active torsions:
REMARK  status: ('A' for Active; 'I' for Inactive)
REMARK    1  A    between atoms: C_1  and  C_2
REMARK    2  A    between atoms: C_2  and  C_3
REMARK    3  A    between atoms: C_2  and  C_4
REMARK    4  A    between atoms: C_2  and  C_5
REMARK    5  A    between atoms: C_5  and  O_6
REMARK    6  A    between atoms: N_9  and  C_10
REMARK    7  A    between atoms: C_10  and  C_11
REMARK                            x       y       z     vdW  Elec       q    Type
REMARK                         _______ _______ _______ _____ _____    ______ ____
ROOT
ATOM      1  C   UNL     1       3.493   5.938  18.542  0.00  0.00    +0.000 C 
ATOM      2  C   UNL     1       4.830   5.732  17.831  0.00  0.00    +0.000 A 
ATOM      3  C   UNL     1       5.731   6.798  17.634  0.00  0.00    +0.000 A 
ATOM      4  C   UNL     1       6.891   6.627  16.871  0.00  0.00    +0.000 A 
ATOM      5  C   UNL     1       7.194   5.381  16.334  0.00  0.00    +0.000 A 
ATOM      6  C   UNL     1       6.344   4.303  16.576  0.00  0.00    +0.000 A 
ATOM      7  C   UNL     1       5.169   4.480  17.314  0.00  0.00    +0.000 A 
ATOM      8  O   UNL     1       4.401   3.356  17.461  0.00  0.00    +0.000 OA
ATOM      9  C   UNL     1       3.200   3.458  18.113  0.00  0.00    +0.000 A 
ATOM     10  C   UNL     1       2.466   2.266  18.193  0.00  0.00    +0.000 A 
ATOM     11  C   UNL     1       1.221   2.240  18.816  0.00  0.00    +0.000 A 
ATOM     12  C   UNL     1       0.718   3.403  19.382  0.00  0.00    +0.000 A 
ATOM     13  C   UNL     1       1.463   4.582  19.317  0.00  0.00    +0.000 A 
ATOM     14  C   UNL     1       2.705   4.643  18.657  0.00  0.00    +0.000 A 
ENDROOT
BRANCH   1  15
ATOM     15  C   UNL     1       2.705   7.061  17.783  0.00  0.00    +0.000 C 
BRANCH  15  19
ATOM     16  C   UNL     1       0.744  10.279  19.938  0.00  0.00    +0.000 C 
ATOM     17  C   UNL     1       1.039   8.933  20.639  0.00  0.00    +0.000 C 
ATOM     18  C   UNL     1       2.118   8.145  19.893  0.00  0.00    +0.000 C 
ATOM     19  N   UNL     1       1.682   7.838  18.526  0.00  0.00    +0.000 NA
ATOM     20  C   UNL     1       1.380   9.073  17.782  0.00  0.00    +0.000 C 
ATOM     21  C   UNL     1       0.336   9.946  18.488  0.00  0.00    +0.000 C 
BRANCH  16  23
ATOM     22  C   UNL     1       0.338  12.546  21.077  0.00  0.00    +0.000 C 
ATOM     23  C   UNL     1      -0.296  11.184  20.704  0.00  0.00    +0.000 C 
ATOM     24  C   UNL     1      -0.743  10.529  22.035  0.00  0.00    +0.000 C 
ATOM     25  C   UNL     1      -1.565  11.463  19.872  0.00  0.00    +0.000 C 
ENDBRANCH  16  23
BRANCH  16  26
ATOM     26  O   UNL     1       1.984  11.013  19.860  0.00  0.00    +0.000 OA
ATOM     27  H   UNL     1       2.584  10.531  19.268  0.00  0.00    +0.000 HD
ENDBRANCH  16  26
ENDBRANCH  15  19
ENDBRANCH   1  15
TORSDOF 4
ENDMDL
