MODEL 1
REMARK VINA RESULT:      -7.8      0.000      0.000
REMARK  Name = 
REMARK  2 active torsions:
REMARK  status: ('A' for Active; 'I' for Inactive)
REMARK    1  A    between atoms: C_1  and  O_2
REMARK    2  A    between atoms: O_2  and  C_3
REMARK                            x       y       z     vdW  Elec       q    Type
REMARK                         _______ _______ _______ _____ _____    ______ ____
ROOT
ATOM      1  C   UNL     1       5.838   4.360  15.017  0.00  0.00    +0.000 A 
ATOM      2  C   UNL     1       5.885   5.742  14.938  0.00  0.00    +0.000 A 
ATOM      3  C   UNL     1       5.173   6.479  15.879  0.00  0.00    +0.000 A 
ATOM      4  C   UNL     1       4.436   5.802  16.855  0.00  0.00    +0.000 A 
ATOM      5  C   UNL     1       4.428   4.409  16.858  0.00  0.00    +0.000 A 
ATOM      6  N   UNL     1       5.130   3.690  15.950  0.00  0.00    +0.000 NA
ATOM      7  C   UNL     1       3.641   3.665  17.856  0.00  0.00    +0.000 A 
ATOM      8  N   UNL     1       3.638   2.307  17.798  0.00  0.00    +0.000 NA
ATOM      9  C   UNL     1       2.910   1.636  18.716  0.00  0.00    +0.000 A 
ATOM     10  C   UNL     1       2.174   2.252  19.712  0.00  0.00    +0.000 A 
ATOM     11  C   UNL     1       2.176   3.649  19.776  0.00  0.00    +0.000 A 
ATOM     12  C   UNL     1       1.463   4.362  20.747  0.00  0.00    +0.000 A 
ATOM     13  C   UNL     1       1.518   5.748  20.729  0.00  0.00    +0.000 A 
ATOM     14  N   UNL     1       2.218   6.461  19.825  0.00  0.00    +0.000 NA
ATOM     15  C   UNL     1       2.903   5.759  18.889  0.00  0.00    +0.000 A 
ATOM     16  C   UNL     1       2.919   4.367  18.825  0.00  0.00    +0.000 A 
ATOM     17  C   UNL     1       3.670   6.545  17.880  0.00  0.00    +0.000 C 
ATOM     18  O   UNL     1       3.685   7.770  17.873  0.00  0.00    +0.000 OA
ENDROOT
BRANCH   1  20
ATOM     19  C   UNL     1       5.862   3.555  12.833  0.00  0.00    +0.000 C 
ATOM     20  O   UNL     1       6.555   3.650  14.077  0.00  0.00    +0.000 OA
ENDBRANCH   1  20
TORSDOF 1
ENDMDL
MODEL 2
REMARK VINA RESULT:      -7.2      2.024      3.652
REMARK  Name = 
REMARK  2 active torsions:
REMARK  status: ('A' for Active; 'I' for Inactive)
REMARK    1  A    between atoms: C_1  and  O_2
REMARK    2  A    between atoms: O_2  and  C_3
REMARK                            x       y       z     vdW  Elec       q    Type
REMARK                         _______ _______ _______ _____ _____    ______ ____
ROOT
ATOM      1  C   UNL     1       6.458   6.281  16.893  0.00  0.00    +0.000 A 
ATOM      2  C   UNL     1       6.796   5.076  16.299  0.00  0.00    +0.000 A 
ATOM      3  C   UNL     1       5.987   3.971  16.545  0.00  0.00    +0.000 A 
ATOM      4  C   UNL     1       4.877   4.116  17.383  0.00  0.00    +0.000 A 
ATOM      5  C   UNL     1       4.613   5.359  17.954  0.00  0.00    +0.000 A 
ATOM      6  N   UNL     1       5.393   6.438  17.706  0.00  0.00    +0.000 NA
ATOM      7  C   UNL     1       3.467   5.539  18.861  0.00  0.00    +0.000 A 
ATOM      8  N   UNL     1       3.269   6.762  19.421  0.00  0.00    +0.000 NA
ATOM      9  C   UNL     1       2.219   6.915  20.254  0.00  0.00    +0.000 A 
ATOM     10  C   UNL     1       1.331   5.900  20.565  0.00  0.00    +0.000 A 
ATOM     11  C   UNL     1       1.531   4.641  19.991  0.00  0.00    +0.000 A 
ATOM     12  C   UNL     1       0.687   3.552  20.244  0.00  0.00    +0.000 A 
ATOM     13  C   UNL     1       0.966   2.338  19.634  0.00  0.00    +0.000 A 
ATOM     14  N   UNL     1       2.011   2.134  18.808  0.00  0.00    +0.000 NA
ATOM     15  C   UNL     1       2.821   3.196  18.572  0.00  0.00    +0.000 A 
ATOM     16  C   UNL     1       2.623   4.458  19.128  0.00  0.00    +0.000 A 
ATOM     17  C   UNL     1       3.985   2.970  17.667  0.00  0.00    +0.000 C 
ATOM     18  O   UNL     1       4.221   1.882  17.158  0.00  0.00    +0.000 OA
ENDROOT
BRANCH   1  20
ATOM     19  C   UNL     1       7.826   7.918  17.824  0.00  0.00    +0.000 C 
ATOM     20  O   UNL     1       7.271   7.362  16.631  0.00  0.00    +0.000 OA
ENDBRANCH   1  20
TORSDOF 1
ENDMDL
MODEL 3
REMARK VINA RESULT:      -6.9      1.087      1.418
REMARK  Name = 
REMARK  2 active torsions:
REMARK  status: ('A' for Active; 'I' for Inactive)
REMARK    1  A    between atoms: C_1  and  O_2
REMARK    2  A    between atoms: O_2  and  C_3
REMARK                            x       y       z     vdW  Elec       q    Type
REMARK                         _______ _______ _______ _____ _____    ______ ____
ROOT
ATOM      1  C   UNL     1       5.556   4.532  15.738  0.00  0.00    +0.000 A 
ATOM      2  C   UNL     1       5.560   5.808  15.201  0.00  0.00    +0.000 A 
ATOM      3  C   UNL     1       4.838   6.801  15.857  0.00  0.00    +0.000 A 
ATOM      4  C   UNL     1       4.135   6.471  17.019  0.00  0.00    +0.000 A 
ATOM      5  C   UNL     1       4.169   5.160  17.487  0.00  0.00    +0.000 A 
ATOM      6  N   UNL     1       4.880   4.195  16.855  0.00  0.00    +0.000 NA
ATOM      7  C   UNL     1       3.418   4.774  18.693  0.00  0.00    +0.000 A 
ATOM      8  N   UNL     1       3.454   3.474  19.092  0.00  0.00    +0.000 NA
ATOM      9  C   UNL     1       2.759   3.131  20.197  0.00  0.00    +0.000 A 
ATOM     10  C   UNL     1       2.018   4.027  20.947  0.00  0.00    +0.000 A 
ATOM     11  C   UNL     1       1.978   5.365  20.540  0.00  0.00    +0.000 A 
ATOM     12  C   UNL     1       1.257   6.345  21.234  0.00  0.00    +0.000 A 
ATOM     13  C   UNL     1       1.270   7.646  20.754  0.00  0.00    +0.000 A 
ATOM     14  N   UNL     1       1.937   8.032  19.647  0.00  0.00    +0.000 NA
ATOM     15  C   UNL     1       2.631   7.074  18.985  0.00  0.00    +0.000 A 
ATOM     16  C   UNL     1       2.688   5.741  19.389  0.00  0.00    +0.000 A 
ATOM     17  C   UNL     1       3.360   7.496  17.754  0.00  0.00    +0.000 C 
ATOM     18  O   UNL     1       3.338   8.647  17.339  0.00  0.00    +0.000 OA
ENDROOT
BRANCH   1  20
ATOM     19  C   UNL     1       6.263   3.760  13.658  0.00  0.00    +0.000 C 
ATOM     20  O   UNL     1       6.281   3.566  15.072  0.00  0.00    +0.000 OA
ENDBRANCH   1  20
TORSDOF 1
ENDMDL
MODEL 4
REMARK VINA RESULT:      -6.8      1.853      3.205
REMARK  Name = 
REMARK  2 active torsions:
REMARK  status: ('A' for Active; 'I' for Inactive)
REMARK    1  A    between atoms: C_1  and  O_2
REMARK    2  A    between atoms: O_2  and  C_3
REMARK                            x       y       z     vdW  Elec       q    Type
REMARK                         _______ _______ _______ _____ _____    ______ ____
ROOT
ATOM      1  C   UNL     1       5.807   5.026  15.436  0.00  0.00    +0.000 A 
ATOM      2  C   UNL     1       5.984   3.659  15.302  0.00  0.00    +0.000 A 
ATOM      3  C   UNL     1       5.271   2.817  16.151  0.00  0.00    +0.000 A 
ATOM      4  C   UNL     1       4.417   3.380  17.104  0.00  0.00    +0.000 A 
ATOM      5  C   UNL     1       4.306   4.766  17.185  0.00  0.00    +0.000 A 
ATOM      6  N   UNL     1       4.991   5.587  16.352  0.00  0.00    +0.000 NA
ATOM      7  C   UNL     1       3.436   5.391  18.196  0.00  0.00    +0.000 A 
ATOM      8  N   UNL     1       3.386   6.749  18.258  0.00  0.00    +0.000 NA
ATOM      9  C   UNL     1       2.588   7.311  19.190  0.00  0.00    +0.000 A 
ATOM     10  C   UNL     1       1.817   6.584  20.080  0.00  0.00    +0.000 A 
ATOM     11  C   UNL     1       1.865   5.188  20.018  0.00  0.00    +0.000 A 
ATOM     12  C   UNL     1       1.120   4.367  20.875  0.00  0.00    +0.000 A 
ATOM     13  C   UNL     1       1.235   2.991  20.745  0.00  0.00    +0.000 A 
ATOM     14  N   UNL     1       2.030   2.385  19.840  0.00  0.00    +0.000 NA
ATOM     15  C   UNL     1       2.745   3.191  19.017  0.00  0.00    +0.000 A 
ATOM     16  C   UNL     1       2.695   4.583  19.061  0.00  0.00    +0.000 A 
ATOM     17  C   UNL     1       3.634   2.523  18.022  0.00  0.00    +0.000 C 
ATOM     18  O   UNL     1       3.734   1.306  17.942  0.00  0.00    +0.000 OA
ENDROOT
BRANCH   1  20
ATOM     19  C   UNL     1       7.361   5.092  13.704  0.00  0.00    +0.000 C 
ATOM     20  O   UNL     1       6.520   5.840  14.582  0.00  0.00    +0.000 OA
ENDBRANCH   1  20
TORSDOF 1
ENDMDL
MODEL 5
REMARK VINA RESULT:      -6.7      1.915      3.218
REMARK  Name = 
REMARK  2 active torsions:
REMARK  status: ('A' for Active; 'I' for Inactive)
REMARK    1  A    between atoms: C_1  and  O_2
REMARK    2  A    between atoms: O_2  and  C_3
REMARK                            x       y       z     vdW  Elec       q    Type
REMARK                         _______ _______ _______ _____ _____    ______ ____
ROOT
ATOM      1  C   UNL     1       6.093   5.092  15.084  0.00  0.00    +0.000 A 
ATOM      2  C   UNL     1       6.270   3.736  15.299  0.00  0.00    +0.000 A 
ATOM      3  C   UNL     1       5.563   3.136  16.338  0.00  0.00    +0.000 A 
ATOM      4  C   UNL     1       4.716   3.923  17.123  0.00  0.00    +0.000 A 
ATOM      5  C   UNL     1       4.604   5.285  16.852  0.00  0.00    +0.000 A 
ATOM      6  N   UNL     1       5.283   5.867  15.834  0.00  0.00    +0.000 NA
ATOM      7  C   UNL     1       3.741   6.146  17.677  0.00  0.00    +0.000 A 
ATOM      8  N   UNL     1       3.691   7.475  17.395  0.00  0.00    +0.000 NA
ATOM      9  C   UNL     1       2.899   8.255  18.160  0.00  0.00    +0.000 A 
ATOM     10  C   UNL     1       2.133   7.778  19.209  0.00  0.00    +0.000 A 
ATOM     11  C   UNL     1       2.182   6.411  19.503  0.00  0.00    +0.000 A 
ATOM     12  C   UNL     1       1.443   5.835  20.544  0.00  0.00    +0.000 A 
ATOM     13  C   UNL     1       1.559   4.470  20.765  0.00  0.00    +0.000 A 
ATOM     14  N   UNL     1       2.347   3.655  20.037  0.00  0.00    +0.000 NA
ATOM     15  C   UNL     1       3.057   4.225  19.033  0.00  0.00    +0.000 A 
ATOM     16  C   UNL     1       3.006   5.583  18.724  0.00  0.00    +0.000 A 
ATOM     17  C   UNL     1       3.939   3.327  18.233  0.00  0.00    +0.000 C 
ATOM     18  O   UNL     1       4.039   2.128  18.463  0.00  0.00    +0.000 OA
ENDROOT
BRANCH   1  20
ATOM     19  C   UNL     1       7.151   4.708  13.046  0.00  0.00    +0.000 C 
ATOM     20  O   UNL     1       6.800   5.663  14.047  0.00  0.00    +0.000 OA
ENDBRANCH   1  20
TORSDOF 1
ENDMDL
MODEL 6
REMARK VINA RESULT:      -6.6      1.154      1.154
REMARK  Name = 
REMARK  2 active torsions:
REMARK  status: ('A' for Active; 'I' for Inactive)
REMARK    1  A    between atoms: C_1  and  O_2
REMARK    2  A    between atoms: O_2  and  C_3
REMARK                            x       y       z     vdW  Elec       q    Type
REMARK                         _______ _______ _______ _____ _____    ______ ____
ROOT
ATOM      1  C   UNL     1       6.462   5.095  15.777  0.00  0.00    +0.000 A 
ATOM      2  C   UNL     1       5.991   6.347  15.420  0.00  0.00    +0.000 A 
ATOM      3  C   UNL     1       4.961   6.902  16.174  0.00  0.00    +0.000 A 
ATOM      4  C   UNL     1       4.441   6.176  17.250  0.00  0.00    +0.000 A 
ATOM      5  C   UNL     1       4.961   4.916  17.535  0.00  0.00    +0.000 A 
ATOM      6  N   UNL     1       5.971   4.379  16.809  0.00  0.00    +0.000 NA
ATOM      7  C   UNL     1       4.418   4.114  18.645  0.00  0.00    +0.000 A 
ATOM      8  N   UNL     1       4.934   2.876  18.864  0.00  0.00    +0.000 NA
ATOM      9  C   UNL     1       4.427   2.148  19.881  0.00  0.00    +0.000 A 
ATOM     10  C   UNL     1       3.416   2.594  20.714  0.00  0.00    +0.000 A 
ATOM     11  C   UNL     1       2.882   3.868  20.493  0.00  0.00    +0.000 A 
ATOM     12  C   UNL     1       1.858   4.406  21.282  0.00  0.00    +0.000 A 
ATOM     13  C   UNL     1       1.386   5.676  20.984  0.00  0.00    +0.000 A 
ATOM     14  N   UNL     1       1.852   6.433  19.970  0.00  0.00    +0.000 NA
ATOM     15  C   UNL     1       2.842   5.900  19.214  0.00  0.00    +0.000 A 
ATOM     16  C   UNL     1       3.390   4.638  19.434  0.00  0.00    +0.000 A 
ATOM     17  C   UNL     1       3.351   6.730  18.084  0.00  0.00    +0.000 C 
ATOM     18  O   UNL     1       2.902   7.840  17.829  0.00  0.00    +0.000 OA
ENDROOT
BRANCH   1  20
ATOM     19  C   UNL     1       7.247   4.716  13.618  0.00  0.00    +0.000 C 
ATOM     20  O   UNL     1       7.485   4.568  15.018  0.00  0.00    +0.000 OA
ENDBRANCH   1  20
TORSDOF 1
ENDMDL
MODEL 7
REMARK VINA RESULT:      -6.6      2.536      5.896
REMARK  Name = 
REMARK  2 active torsions:
REMARK  status: ('A' for Active; 'I' for Inactive)
REMARK    1  A    between atoms: C_1  and  O_2
REMARK    2  A    between atoms: O_2  and  C_3
REMARK                            x       y       z     vdW  Elec       q    Type
REMARK                         _______ _______ _______ _____ _____    ______ ____
ROOT
ATOM      1  C   UNL     1       0.670   8.574  21.287  0.00  0.00    +0.000 A 
ATOM      2  C   UNL     1       0.960   9.490  20.290  0.00  0.00    +0.000 A 
ATOM      3  C   UNL     1       1.712   9.061  19.200  0.00  0.00    +0.000 A 
ATOM      4  C   UNL     1       2.147   7.733  19.158  0.00  0.00    +0.000 A 
ATOM      5  C   UNL     1       1.826   6.877  20.208  0.00  0.00    +0.000 A 
ATOM      6  N   UNL     1       1.085   7.291  21.264  0.00  0.00    +0.000 NA
ATOM      7  C   UNL     1       2.291   5.480  20.207  0.00  0.00    +0.000 A 
ATOM      8  N   UNL     1       1.980   4.692  21.270  0.00  0.00    +0.000 NA
ATOM      9  C   UNL     1       2.416   3.414  21.261  0.00  0.00    +0.000 A 
ATOM     10  C   UNL     1       3.154   2.863  20.229  0.00  0.00    +0.000 A 
ATOM     11  C   UNL     1       3.476   3.670  19.133  0.00  0.00    +0.000 A 
ATOM     12  C   UNL     1       4.218   3.202  18.041  0.00  0.00    +0.000 A 
ATOM     13  C   UNL     1       4.494   4.077  17.001  0.00  0.00    +0.000 A 
ATOM     14  N   UNL     1       4.094   5.364  16.974  0.00  0.00    +0.000 NA
ATOM     15  C   UNL     1       3.377   5.804  18.037  0.00  0.00    +0.000 A 
ATOM     16  C   UNL     1       3.040   5.005  19.127  0.00  0.00    +0.000 A 
ATOM     17  C   UNL     1       2.942   7.231  18.015  0.00  0.00    +0.000 C 
ATOM     18  O   UNL     1       3.218   7.988  17.093  0.00  0.00    +0.000 OA
ENDROOT
BRANCH   1  20
ATOM     19  C   UNL     1      -0.370  10.416  22.260  0.00  0.00    +0.000 C 
ATOM     20  O   UNL     1      -0.079   9.021  22.354  0.00  0.00    +0.000 OA
ENDBRANCH   1  20
TORSDOF 1
ENDMDL
MODEL 8
REMARK VINA RESULT:      -6.6      4.405      7.056
REMARK  Name = 
REMARK  2 active torsions:
REMARK  status: ('A' for Active; 'I' for Inactive)
REMARK    1  A    between atoms: C_1  and  O_2
REMARK    2  A    between atoms: O_2  and  C_3
REMARK                            x       y       z     vdW  Elec       q    Type
REMARK                         _______ _______ _______ _____ _____    ______ ____
ROOT
ATOM      1  C   UNL     1       2.094   5.989  20.311  0.00  0.00    +0.000 A 
ATOM      2  C   UNL     1       2.584   6.147  19.026  0.00  0.00    +0.000 A 
ATOM      3  C   UNL     1       2.442   7.390  18.415  0.00  0.00    +0.000 A 
ATOM      4  C   UNL     1       1.806   8.419  19.115  0.00  0.00    +0.000 A 
ATOM      5  C   UNL     1       1.326   8.175  20.399  0.00  0.00    +0.000 A 
ATOM      6  N   UNL     1       1.474   6.970  20.999  0.00  0.00    +0.000 NA
ATOM      7  C   UNL     1       0.628   9.231  21.152  0.00  0.00    +0.000 A 
ATOM      8  N   UNL     1       0.148   8.935  22.390  0.00  0.00    +0.000 NA
ATOM      9  C   UNL     1      -0.494   9.909  23.070  0.00  0.00    +0.000 A 
ATOM     10  C   UNL     1      -0.684  11.189  22.580  0.00  0.00    +0.000 A 
ATOM     11  C   UNL     1      -0.191  11.498  21.308  0.00  0.00    +0.000 A 
ATOM     12  C   UNL     1      -0.334  12.765  20.729  0.00  0.00    +0.000 A 
ATOM     13  C   UNL     1       0.182  12.977  19.459  0.00  0.00    +0.000 A 
ATOM     14  N   UNL     1       0.816  12.032  18.737  0.00  0.00    +0.000 NA
ATOM     15  C   UNL     1       0.947  10.810  19.309  0.00  0.00    +0.000 A 
ATOM     16  C   UNL     1       0.472  10.496  20.581  0.00  0.00    +0.000 A 
ATOM     17  C   UNL     1       1.638   9.759  18.507  0.00  0.00    +0.000 C 
ATOM     18  O   UNL     1       2.066   9.967  17.379  0.00  0.00    +0.000 OA
ENDROOT
BRANCH   1  20
ATOM     19  C   UNL     1       1.171   3.868  20.585  0.00  0.00    +0.000 C 
ATOM     20  O   UNL     1       2.250   4.751  20.897  0.00  0.00    +0.000 OA
ENDBRANCH   1  20
TORSDOF 1
ENDMDL
MODEL 9
REMARK VINA RESULT:      -6.5      2.671      5.963
REMARK  Name = 
REMARK  2 active torsions:
REMARK  status: ('A' for Active; 'I' for Inactive)
REMARK    1  A    between atoms: C_1  and  O_2
REMARK    2  A    between atoms: O_2  and  C_3
REMARK                            x       y       z     vdW  Elec       q    Type
REMARK                         _______ _______ _______ _____ _____    ______ ____
ROOT
ATOM      1  C   UNL     1       2.460   3.400  20.869  0.00  0.00    +0.000 A 
ATOM      2  C   UNL     1       1.514   2.945  19.967  0.00  0.00    +0.000 A 
ATOM      3  C   UNL     1       1.816   3.003  18.610  0.00  0.00    +0.000 A 
ATOM      4  C   UNL     1       3.052   3.523  18.213  0.00  0.00    +0.000 A 
ATOM      5  C   UNL     1       3.944   3.975  19.182  0.00  0.00    +0.000 A 
ATOM      6  N   UNL     1       3.655   3.909  20.504  0.00  0.00    +0.000 NA
ATOM      7  C   UNL     1       5.242   4.553  18.796  0.00  0.00    +0.000 A 
ATOM      8  N   UNL     1       6.066   5.011  19.776  0.00  0.00    +0.000 NA
ATOM      9  C   UNL     1       7.251   5.542  19.410  0.00  0.00    +0.000 A 
ATOM     10  C   UNL     1       7.677   5.640  18.097  0.00  0.00    +0.000 A 
ATOM     11  C   UNL     1       6.833   5.169  17.086  0.00  0.00    +0.000 A 
ATOM     12  C   UNL     1       7.175   5.224  15.729  0.00  0.00    +0.000 A 
ATOM     13  C   UNL     1       6.272   4.738  14.795  0.00  0.00    +0.000 A 
ATOM     14  N   UNL     1       5.072   4.214  15.112  0.00  0.00    +0.000 NA
ATOM     15  C   UNL     1       4.753   4.166  16.429  0.00  0.00    +0.000 A 
ATOM     16  C   UNL     1       5.591   4.621  17.445  0.00  0.00    +0.000 A 
ATOM     17  C   UNL     1       3.419   3.597  16.781  0.00  0.00    +0.000 C 
ATOM     18  O   UNL     1       2.632   3.194  15.935  0.00  0.00    +0.000 OA
ENDROOT
BRANCH   1  20
ATOM     19  C   UNL     1       1.115   2.369  22.466  0.00  0.00    +0.000 C 
ATOM     20  O   UNL     1       2.140   3.330  22.208  0.00  0.00    +0.000 OA
ENDBRANCH   1  20
TORSDOF 1
ENDMDL
