MODEL 1
REMARK VINA RESULT:      -6.9      0.000      0.000
REMARK  Name = 
REMARK  9 active torsions:
REMARK  status: ('A' for Active; 'I' for Inactive)
REMARK    1  A    between atoms: C_1  and  C_2
REMARK    2  A    between atoms: C_2  and  C_3
REMARK    3  A    between atoms: C_2  and  O_4
REMARK    4  A    between atoms: C_2  and  C_5
REMARK    5  A    between atoms: C_5  and  C_6
REMARK    6  A    between atoms: C_6  and  S_7
REMARK    7  A    between atoms: S_7  and  C_10
REMARK    8  A    between atoms: C_13  and  S_14
REMARK    9  A    between atoms: S_14  and  N_15
REMARK                            x       y       z     vdW  Elec       q    Type
REMARK                         _______ _______ _______ _____ _____    ______ ____
ROOT
ATOM      1  C   UNL     1       5.401   4.636  17.192  0.00  0.00    +0.000 A 
ATOM      2  C   UNL     1       4.180   4.239  16.639  0.00  0.00    +0.000 A 
ATOM      3  C   UNL     1       3.180   3.740  17.472  0.00  0.00    +0.000 A 
ATOM      4  C   UNL     1       3.415   3.635  18.847  0.00  0.00    +0.000 A 
ATOM      5  C   UNL     1       4.634   4.040  19.402  0.00  0.00    +0.000 A 
ATOM      6  C   UNL     1       5.638   4.534  18.567  0.00  0.00    +0.000 A 
ENDROOT
BRANCH   1   7
ATOM      7  S   UNL     1       6.689   5.253  16.128  0.00  0.00    +0.000 S 
ATOM      8  O   UNL     1       7.831   4.372  16.274  0.00  0.00    +0.000 OA
ATOM      9  O   UNL     1       6.802   6.674  16.402  0.00  0.00    +0.000 OA
BRANCH   7  10
ATOM     10  C   UNL     1       6.021   5.043  14.490  0.00  0.00    +0.000 C 
BRANCH  10  11
ATOM     11  C   UNL     1       6.309   3.641  13.956  0.00  0.00    +0.000 C 
BRANCH  11  13
ATOM     12  C   UNL     1       7.142   4.607  11.794  0.00  0.00    +0.000 C 
ATOM     13  C   UNL     1       6.240   3.539  12.424  0.00  0.00    +0.000 C 
ATOM     14  C   UNL     1       4.816   3.676  11.885  0.00  0.00    +0.000 C 
BRANCH  13  15
ATOM     15  O   UNL     1       6.732   2.250  12.051  0.00  0.00    +0.000 OA
ATOM     16  H   UNL     1       6.018   1.775  11.592  0.00  0.00    +0.000 HD
ENDBRANCH  13  15
ENDBRANCH  11  13
ENDBRANCH  10  11
ENDBRANCH   7  10
ENDBRANCH   1   7
BRANCH   4  17
ATOM     17  S   UNL     1       2.138   3.002  19.896  0.00  0.00    +0.000 S 
ATOM     18  O   UNL     1       2.729   2.518  21.122  0.00  0.00    +0.000 OA
ATOM     19  O   UNL     1       1.017   3.912  19.880  0.00  0.00    +0.000 OA
BRANCH  17  20
ATOM     20  N   UNL     1       1.651   1.642  19.042  0.00  0.00    +0.000 NA
ATOM     21  H   UNL     1       1.088   1.915  18.236  0.00  0.00    +0.000 HD
ATOM     22  H   UNL     1       2.460   1.065  18.810  0.00  0.00    +0.000 HD
ENDBRANCH  17  20
ENDBRANCH   4  17
TORSDOF 7
ENDMDL
MODEL 2
REMARK VINA RESULT:      -6.8      0.462      1.085
REMARK  Name = 
REMARK  9 active torsions:
REMARK  status: ('A' for Active; 'I' for Inactive)
REMARK    1  A    between atoms: C_1  and  C_2
REMARK    2  A    between atoms: C_2  and  C_3
REMARK    3  A    between atoms: C_2  and  O_4
REMARK    4  A    between atoms: C_2  and  C_5
REMARK    5  A    between atoms: C_5  and  C_6
REMARK    6  A    between atoms: C_6  and  S_7
REMARK    7  A    between atoms: S_7  and  C_10
REMARK    8  A    between atoms: C_13  and  S_14
REMARK    9  A    between atoms: S_14  and  N_15
REMARK                            x       y       z     vdW  Elec       q    Type
REMARK                         _______ _______ _______ _____ _____    ______ ____
ROOT
ATOM      1  C   UNL     1       5.169   4.700  17.265  0.00  0.00    +0.000 A 
ATOM      2  C   UNL     1       5.016   5.307  18.515  0.00  0.00    +0.000 A 
ATOM      3  C   UNL     1       4.057   4.820  19.401  0.00  0.00    +0.000 A 
ATOM      4  C   UNL     1       3.257   3.737  19.025  0.00  0.00    +0.000 A 
ATOM      5  C   UNL     1       3.416   3.122  17.779  0.00  0.00    +0.000 A 
ATOM      6  C   UNL     1       4.372   3.613  16.887  0.00  0.00    +0.000 A 
ENDROOT
BRANCH   1   7
ATOM      7  S   UNL     1       6.378   5.334  16.121  0.00  0.00    +0.000 S 
ATOM      8  O   UNL     1       7.595   4.567  16.308  0.00  0.00    +0.000 OA
ATOM      9  O   UNL     1       6.374   6.776  16.277  0.00  0.00    +0.000 OA
BRANCH   7  10
ATOM     10  C   UNL     1       5.700   4.933  14.524  0.00  0.00    +0.000 C 
BRANCH  10  11
ATOM     11  C   UNL     1       6.341   3.668  13.957  0.00  0.00    +0.000 C 
BRANCH  11  13
ATOM     12  C   UNL     1       7.158   4.642  11.793  0.00  0.00    +0.000 C 
ATOM     13  C   UNL     1       6.262   3.570  12.425  0.00  0.00    +0.000 C 
ATOM     14  C   UNL     1       4.834   3.709  11.895  0.00  0.00    +0.000 C 
BRANCH  13  15
ATOM     15  O   UNL     1       6.752   2.283  12.045  0.00  0.00    +0.000 OA
ATOM     16  H   UNL     1       7.628   2.401  11.641  0.00  0.00    +0.000 HD
ENDBRANCH  13  15
ENDBRANCH  11  13
ENDBRANCH  10  11
ENDBRANCH   7  10
ENDBRANCH   1   7
BRANCH   4  17
ATOM     17  S   UNL     1       2.044   3.123  20.160  0.00  0.00    +0.000 S 
ATOM     18  O   UNL     1       2.711   2.618  21.337  0.00  0.00    +0.000 OA
ATOM     19  O   UNL     1       0.945   4.057  20.229  0.00  0.00    +0.000 OA
BRANCH  17  20
ATOM     20  N   UNL     1       1.469   1.780  19.334  0.00  0.00    +0.000 NA
ATOM     21  H   UNL     1       1.842   1.763  18.386  0.00  0.00    +0.000 HD
ATOM     22  H   UNL     1       1.653   0.933  19.871  0.00  0.00    +0.000 HD
ENDBRANCH  17  20
ENDBRANCH   4  17
TORSDOF 7
ENDMDL
MODEL 3
REMARK VINA RESULT:      -6.7      4.513      6.195
REMARK  Name = 
REMARK  9 active torsions:
REMARK  status: ('A' for Active; 'I' for Inactive)
REMARK    1  A    between atoms: C_1  and  C_2
REMARK    2  A    between atoms: C_2  and  C_3
REMARK    3  A    between atoms: C_2  and  O_4
REMARK    4  A    between atoms: C_2  and  C_5
REMARK    5  A    between atoms: C_5  and  C_6
REMARK    6  A    between atoms: C_6  and  S_7
REMARK    7  A    between atoms: S_7  and  C_10
REMARK    8  A    between atoms: C_13  and  S_14
REMARK    9  A    between atoms: S_14  and  N_15
REMARK                            x       y       z     vdW  Elec       q    Type
REMARK                         _______ _______ _______ _____ _____    ______ ____
ROOT
ATOM      1  C   UNL     1       3.865   5.951  18.766  0.00  0.00    +0.000 A 
ATOM      2  C   UNL     1       2.996   6.252  19.819  0.00  0.00    +0.000 A 
ATOM      3  C   UNL     1       2.178   7.378  19.733  0.00  0.00    +0.000 A 
ATOM      4  C   UNL     1       2.243   8.193  18.598  0.00  0.00    +0.000 A 
ATOM      5  C   UNL     1       3.106   7.887  17.540  0.00  0.00    +0.000 A 
ATOM      6  C   UNL     1       3.931   6.764  17.629  0.00  0.00    +0.000 A 
ENDROOT
BRANCH   1   7
ATOM      7  S   UNL     1       4.928   4.527  18.883  0.00  0.00    +0.000 S 
ATOM      8  O   UNL     1       6.066   4.902  19.700  0.00  0.00    +0.000 OA
ATOM      9  O   UNL     1       5.109   4.037  17.530  0.00  0.00    +0.000 OA
BRANCH   7  10
ATOM     10  C   UNL     1       3.951   3.343  19.788  0.00  0.00    +0.000 C 
BRANCH  10  11
ATOM     11  C   UNL     1       3.147   2.456  18.840  0.00  0.00    +0.000 C 
BRANCH  11  13
ATOM     12  C   UNL     1       1.306   3.799  17.788  0.00  0.00    +0.000 C 
ATOM     13  C   UNL     1       1.638   2.748  18.853  0.00  0.00    +0.000 C 
ATOM     14  C   UNL     1       1.138   3.217  20.220  0.00  0.00    +0.000 C 
BRANCH  13  15
ATOM     15  O   UNL     1       0.957   1.535  18.525  0.00  0.00    +0.000 OA
ATOM     16  H   UNL     1       1.618   0.892  18.216  0.00  0.00    +0.000 HD
ENDBRANCH  13  15
ENDBRANCH  11  13
ENDBRANCH  10  11
ENDBRANCH   7  10
ENDBRANCH   1   7
BRANCH   4  17
ATOM     17  S   UNL     1       1.198   9.618  18.497  0.00  0.00    +0.000 S 
ATOM     18  O   UNL     1       0.079   9.323  17.632  0.00  0.00    +0.000 OA
ATOM     19  O   UNL     1       1.034  10.180  19.816  0.00  0.00    +0.000 OA
BRANCH  17  20
ATOM     20  N   UNL     1       2.176  10.686  17.650  0.00  0.00    +0.000 NA
ATOM     21  H   UNL     1       3.115  10.301  17.551  0.00  0.00    +0.000 HD
ATOM     22  H   UNL     1       1.735  10.941  16.766  0.00  0.00    +0.000 HD
ENDBRANCH  17  20
ENDBRANCH   4  17
TORSDOF 7
ENDMDL
MODEL 4
REMARK VINA RESULT:      -6.7      1.988      2.709
REMARK  Name = 
REMARK  9 active torsions:
REMARK  status: ('A' for Active; 'I' for Inactive)
REMARK    1  A    between atoms: C_1  and  C_2
REMARK    2  A    between atoms: C_2  and  C_3
REMARK    3  A    between atoms: C_2  and  O_4
REMARK    4  A    between atoms: C_2  and  C_5
REMARK    5  A    between atoms: C_5  and  C_6
REMARK    6  A    between atoms: C_6  and  S_7
REMARK    7  A    between atoms: S_7  and  C_10
REMARK    8  A    between atoms: C_13  and  S_14
REMARK    9  A    between atoms: S_14  and  N_15
REMARK                            x       y       z     vdW  Elec       q    Type
REMARK                         _______ _______ _______ _____ _____    ______ ____
ROOT
ATOM      1  C   UNL     1       5.373   4.851  18.952  0.00  0.00    +0.000 A 
ATOM      2  C   UNL     1       5.318   3.537  19.425  0.00  0.00    +0.000 A 
ATOM      3  C   UNL     1       4.084   2.979  19.757  0.00  0.00    +0.000 A 
ATOM      4  C   UNL     1       2.921   3.744  19.620  0.00  0.00    +0.000 A 
ATOM      5  C   UNL     1       2.975   5.056  19.137  0.00  0.00    +0.000 A 
ATOM      6  C   UNL     1       4.211   5.618  18.811  0.00  0.00    +0.000 A 
ENDROOT
BRANCH   1   7
ATOM      7  S   UNL     1       6.950   5.575  18.549  0.00  0.00    +0.000 S 
ATOM      8  O   UNL     1       7.803   5.430  19.713  0.00  0.00    +0.000 OA
ATOM      9  O   UNL     1       6.669   6.883  17.986  0.00  0.00    +0.000 OA
BRANCH   7  10
ATOM     10  C   UNL     1       7.579   4.524  17.256  0.00  0.00    +0.000 C 
BRANCH  10  11
ATOM     11  C   UNL     1       6.457   4.070  16.323  0.00  0.00    +0.000 C 
BRANCH  11  13
ATOM     12  C   UNL     1       5.288   5.912  15.084  0.00  0.00    +0.000 C 
ATOM     13  C   UNL     1       6.396   4.856  15.004  0.00  0.00    +0.000 C 
ATOM     14  C   UNL     1       6.170   3.956  13.788  0.00  0.00    +0.000 C 
BRANCH  13  15
ATOM     15  O   UNL     1       7.650   5.521  14.835  0.00  0.00    +0.000 OA
ATOM     16  H   UNL     1       8.302   5.085  15.410  0.00  0.00    +0.000 HD
ENDBRANCH  13  15
ENDBRANCH  11  13
ENDBRANCH  10  11
ENDBRANCH   7  10
ENDBRANCH   1   7
BRANCH   4  17
ATOM     17  S   UNL     1       1.359   3.025  20.041  0.00  0.00    +0.000 S 
ATOM     18  O   UNL     1       0.769   2.448  18.855  0.00  0.00    +0.000 OA
ATOM     19  O   UNL     1       1.493   2.292  21.278  0.00  0.00    +0.000 OA
BRANCH  17  20
ATOM     20  N   UNL     1       0.453   4.390  20.399  0.00  0.00    +0.000 NA
ATOM     21  H   UNL     1      -0.046   4.710  19.569  0.00  0.00    +0.000 HD
ATOM     22  H   UNL     1      -0.149   4.211  21.204  0.00  0.00    +0.000 HD
ENDBRANCH  17  20
ENDBRANCH   4  17
TORSDOF 7
ENDMDL
MODEL 5
REMARK VINA RESULT:      -6.7      1.109      1.157
REMARK  Name = 
REMARK  9 active torsions:
REMARK  status: ('A' for Active; 'I' for Inactive)
REMARK    1  A    between atoms: C_1  and  C_2
REMARK    2  A    between atoms: C_2  and  C_3
REMARK    3  A    between atoms: C_2  and  O_4
REMARK    4  A    between atoms: C_2  and  C_5
REMARK    5  A    between atoms: C_5  and  C_6
REMARK    6  A    between atoms: C_6  and  S_7
REMARK    7  A    between atoms: S_7  and  C_10
REMARK    8  A    between atoms: C_13  and  S_14
REMARK    9  A    between atoms: S_14  and  N_15
REMARK                            x       y       z     vdW  Elec       q    Type
REMARK                         _______ _______ _______ _____ _____    ______ ____
ROOT
ATOM      1  C   UNL     1       5.005   4.863  17.208  0.00  0.00    +0.000 A 
ATOM      2  C   UNL     1       4.386   3.619  17.055  0.00  0.00    +0.000 A 
ATOM      3  C   UNL     1       3.361   3.251  17.925  0.00  0.00    +0.000 A 
ATOM      4  C   UNL     1       2.972   4.128  18.942  0.00  0.00    +0.000 A 
ATOM      5  C   UNL     1       3.584   5.377  19.091  0.00  0.00    +0.000 A 
ATOM      6  C   UNL     1       4.615   5.743  18.223  0.00  0.00    +0.000 A 
ENDROOT
BRANCH   1   7
ATOM      7  S   UNL     1       6.330   5.327  16.112  0.00  0.00    +0.000 S 
ATOM      8  O   UNL     1       7.445   4.438  16.381  0.00  0.00    +0.000 OA
ATOM      9  O   UNL     1       6.476   6.765  16.231  0.00  0.00    +0.000 OA
BRANCH   7  10
ATOM     10  C   UNL     1       5.690   4.953  14.492  0.00  0.00    +0.000 C 
BRANCH  10  11
ATOM     11  C   UNL     1       6.287   3.655  13.953  0.00  0.00    +0.000 C 
BRANCH  11  13
ATOM     12  C   UNL     1       7.141   4.593  11.787  0.00  0.00    +0.000 C 
ATOM     13  C   UNL     1       6.227   3.538  12.421  0.00  0.00    +0.000 C 
ATOM     14  C   UNL     1       4.807   3.684  11.872  0.00  0.00    +0.000 C 
BRANCH  13  15
ATOM     15  O   UNL     1       6.709   2.242  12.064  0.00  0.00    +0.000 OA
ATOM     16  H   UNL     1       7.325   2.343  11.319  0.00  0.00    +0.000 HD
ENDBRANCH  13  15
ENDBRANCH  11  13
ENDBRANCH  10  11
ENDBRANCH   7  10
ENDBRANCH   1   7
BRANCH   4  17
ATOM     17  S   UNL     1       1.666   3.652  20.040  0.00  0.00    +0.000 S 
ATOM     18  O   UNL     1       1.131   4.833  20.677  0.00  0.00    +0.000 OA
ATOM     19  O   UNL     1       0.830   2.674  19.386  0.00  0.00    +0.000 OA
BRANCH  17  20
ATOM     20  N   UNL     1       2.517   2.825  21.227  0.00  0.00    +0.000 NA
ATOM     21  H   UNL     1       1.947   2.071  21.609  0.00  0.00    +0.000 HD
ATOM     22  H   UNL     1       3.421   2.521  20.863  0.00  0.00    +0.000 HD
ENDBRANCH  17  20
ENDBRANCH   4  17
TORSDOF 7
ENDMDL
MODEL 6
REMARK VINA RESULT:      -6.6      1.786      2.363
REMARK  Name = 
REMARK  9 active torsions:
REMARK  status: ('A' for Active; 'I' for Inactive)
REMARK    1  A    between atoms: C_1  and  C_2
REMARK    2  A    between atoms: C_2  and  C_3
REMARK    3  A    between atoms: C_2  and  O_4
REMARK    4  A    between atoms: C_2  and  C_5
REMARK    5  A    between atoms: C_5  and  C_6
REMARK    6  A    between atoms: C_6  and  S_7
REMARK    7  A    between atoms: S_7  and  C_10
REMARK    8  A    between atoms: C_13  and  S_14
REMARK    9  A    between atoms: S_14  and  N_15
REMARK                            x       y       z     vdW  Elec       q    Type
REMARK                         _______ _______ _______ _____ _____    ______ ____
ROOT
ATOM      1  C   UNL     1       5.321   4.930  18.650  0.00  0.00    +0.000 A 
ATOM      2  C   UNL     1       4.204   5.624  18.173  0.00  0.00    +0.000 A 
ATOM      3  C   UNL     1       2.936   5.063  18.315  0.00  0.00    +0.000 A 
ATOM      4  C   UNL     1       2.799   3.812  18.926  0.00  0.00    +0.000 A 
ATOM      5  C   UNL     1       3.915   3.121  19.412  0.00  0.00    +0.000 A 
ATOM      6  C   UNL     1       5.186   3.679  19.263  0.00  0.00    +0.000 A 
ENDROOT
BRANCH   1   7
ATOM      7  S   UNL     1       6.944   5.633  18.449  0.00  0.00    +0.000 S 
ATOM      8  O   UNL     1       7.672   5.401  19.683  0.00  0.00    +0.000 OA
ATOM      9  O   UNL     1       6.750   6.977  17.938  0.00  0.00    +0.000 OA
BRANCH   7  10
ATOM     10  C   UNL     1       7.680   4.639  17.167  0.00  0.00    +0.000 C 
BRANCH  10  11
ATOM     11  C   UNL     1       6.615   4.086  16.222  0.00  0.00    +0.000 C 
BRANCH  11  13
ATOM     12  C   UNL     1       5.399   5.876  14.950  0.00  0.00    +0.000 C 
ATOM     13  C   UNL     1       6.526   4.838  14.885  0.00  0.00    +0.000 C 
ATOM     14  C   UNL     1       6.306   3.905  13.694  0.00  0.00    +0.000 C 
BRANCH  13  15
ATOM     15  O   UNL     1       7.765   5.522  14.688  0.00  0.00    +0.000 OA
ATOM     16  H   UNL     1       8.487   4.883  14.820  0.00  0.00    +0.000 HD
ENDBRANCH  13  15
ENDBRANCH  11  13
ENDBRANCH  10  11
ENDBRANCH   7  10
ENDBRANCH   1   7
BRANCH   4  17
ATOM     17  S   UNL     1       1.183   3.110  19.104  0.00  0.00    +0.000 S 
ATOM     18  O   UNL     1       0.736   3.295  20.465  0.00  0.00    +0.000 OA
ATOM     19  O   UNL     1       0.378   3.479  17.964  0.00  0.00    +0.000 OA
BRANCH  17  20
ATOM     20  N   UNL     1       1.514   1.474  18.937  0.00  0.00    +0.000 NA
ATOM     21  H   UNL     1       1.689   1.248  17.958  0.00  0.00    +0.000 HD
ATOM     22  H   UNL     1       2.267   1.201  19.569  0.00  0.00    +0.000 HD
ENDBRANCH  17  20
ENDBRANCH   4  17
TORSDOF 7
ENDMDL
MODEL 7
REMARK VINA RESULT:      -6.6      0.985      1.227
REMARK  Name = 
REMARK  9 active torsions:
REMARK  status: ('A' for Active; 'I' for Inactive)
REMARK    1  A    between atoms: C_1  and  C_2
REMARK    2  A    between atoms: C_2  and  C_3
REMARK    3  A    between atoms: C_2  and  O_4
REMARK    4  A    between atoms: C_2  and  C_5
REMARK    5  A    between atoms: C_5  and  C_6
REMARK    6  A    between atoms: C_6  and  S_7
REMARK    7  A    between atoms: S_7  and  C_10
REMARK    8  A    between atoms: C_13  and  S_14
REMARK    9  A    between atoms: S_14  and  N_15
REMARK                            x       y       z     vdW  Elec       q    Type
REMARK                         _______ _______ _______ _____ _____    ______ ____
ROOT
ATOM      1  C   UNL     1       5.381   4.832  17.325  0.00  0.00    +0.000 A 
ATOM      2  C   UNL     1       4.055   5.181  17.050  0.00  0.00    +0.000 A 
ATOM      3  C   UNL     1       3.042   4.762  17.912  0.00  0.00    +0.000 A 
ATOM      4  C   UNL     1       3.366   3.993  19.034  0.00  0.00    +0.000 A 
ATOM      5  C   UNL     1       4.693   3.650  19.315  0.00  0.00    +0.000 A 
ATOM      6  C   UNL     1       5.707   4.063  18.448  0.00  0.00    +0.000 A 
ENDROOT
BRANCH   1   7
ATOM      7  S   UNL     1       6.674   5.346  16.214  0.00  0.00    +0.000 S 
ATOM      8  O   UNL     1       7.771   4.409  16.363  0.00  0.00    +0.000 OA
ATOM      9  O   UNL     1       6.869   6.766  16.440  0.00  0.00    +0.000 OA
BRANCH   7  10
ATOM     10  C   UNL     1       5.958   5.122  14.598  0.00  0.00    +0.000 C 
BRANCH  10  11
ATOM     11  C   UNL     1       6.200   3.704  14.083  0.00  0.00    +0.000 C 
BRANCH  11  13
ATOM     12  C   UNL     1       7.123   4.662  11.954  0.00  0.00    +0.000 C 
ATOM     13  C   UNL     1       6.194   3.597  12.549  0.00  0.00    +0.000 C 
ATOM     14  C   UNL     1       4.794   3.737  11.951  0.00  0.00    +0.000 C 
BRANCH  13  15
ATOM     15  O   UNL     1       6.697   2.306  12.202  0.00  0.00    +0.000 OA
ATOM     16  H   UNL     1       6.586   1.721  12.971  0.00  0.00    +0.000 HD
ENDBRANCH  13  15
ENDBRANCH  11  13
ENDBRANCH  10  11
ENDBRANCH   7  10
ENDBRANCH   1   7
BRANCH   4  17
ATOM     17  S   UNL     1       2.073   3.468  20.124  0.00  0.00    +0.000 S 
ATOM     18  O   UNL     1       1.046   2.804  19.354  0.00  0.00    +0.000 OA
ATOM     19  O   UNL     1       2.658   2.885  21.307  0.00  0.00    +0.000 OA
BRANCH  17  20
ATOM     20  N   UNL     1       1.424   4.941  20.599  0.00  0.00    +0.000 NA
ATOM     21  H   UNL     1       1.557   5.638  19.866  0.00  0.00    +0.000 HD
ATOM     22  H   UNL     1       0.453   4.820  20.888  0.00  0.00    +0.000 HD
ENDBRANCH  17  20
ENDBRANCH   4  17
TORSDOF 7
ENDMDL
MODEL 8
REMARK VINA RESULT:      -6.6      1.153      1.629
REMARK  Name = 
REMARK  9 active torsions:
REMARK  status: ('A' for Active; 'I' for Inactive)
REMARK    1  A    between atoms: C_1  and  C_2
REMARK    2  A    between atoms: C_2  and  C_3
REMARK    3  A    between atoms: C_2  and  O_4
REMARK    4  A    between atoms: C_2  and  C_5
REMARK    5  A    between atoms: C_5  and  C_6
REMARK    6  A    between atoms: C_6  and  S_7
REMARK    7  A    between atoms: S_7  and  C_10
REMARK    8  A    between atoms: C_13  and  S_14
REMARK    9  A    between atoms: S_14  and  N_15
REMARK                            x       y       z     vdW  Elec       q    Type
REMARK                         _______ _______ _______ _____ _____    ______ ____
ROOT
ATOM      1  C   UNL     1       5.314   4.553  17.425  0.00  0.00    +0.000 A 
ATOM      2  C   UNL     1       5.303   5.221  18.653  0.00  0.00    +0.000 A 
ATOM      3  C   UNL     1       4.215   5.066  19.510  0.00  0.00    +0.000 A 
ATOM      4  C   UNL     1       3.146   4.250  19.126  0.00  0.00    +0.000 A 
ATOM      5  C   UNL     1       3.159   3.574  17.901  0.00  0.00    +0.000 A 
ATOM      6  C   UNL     1       4.246   3.735  17.039  0.00  0.00    +0.000 A 
ENDROOT
BRANCH   1   7
ATOM      7  S   UNL     1       6.692   4.767  16.319  0.00  0.00    +0.000 S 
ATOM      8  O   UNL     1       7.886   4.346  17.027  0.00  0.00    +0.000 OA
ATOM      9  O   UNL     1       6.580   6.109  15.777  0.00  0.00    +0.000 OA
BRANCH   7  10
ATOM     10  C   UNL     1       6.371   3.600  15.012  0.00  0.00    +0.000 C 
BRANCH  10  11
ATOM     11  C   UNL     1       5.619   4.260  13.858  0.00  0.00    +0.000 C 
BRANCH  11  13
ATOM     12  C   UNL     1       7.040   4.313  11.790  0.00  0.00    +0.000 C 
ATOM     13  C   UNL     1       5.880   3.601  12.494  0.00  0.00    +0.000 C 
ATOM     14  C   UNL     1       4.645   3.600  11.592  0.00  0.00    +0.000 C 
BRANCH  13  15
ATOM     15  O   UNL     1       6.254   2.243  12.733  0.00  0.00    +0.000 OA
ATOM     16  H   UNL     1       6.415   1.819  11.872  0.00  0.00    +0.000 HD
ENDBRANCH  13  15
ENDBRANCH  11  13
ENDBRANCH  10  11
ENDBRANCH   7  10
ENDBRANCH   1   7
BRANCH   4  17
ATOM     17  S   UNL     1       1.769   4.057  20.222  0.00  0.00    +0.000 S 
ATOM     18  O   UNL     1       1.408   5.348  20.759  0.00  0.00    +0.000 OA
ATOM     19  O   UNL     1       0.805   3.167  19.620  0.00  0.00    +0.000 OA
BRANCH  17  20
ATOM     20  N   UNL     1       2.470   3.204  21.486  0.00  0.00    +0.000 NA
ATOM     21  H   UNL     1       1.963   2.334  21.648  0.00  0.00    +0.000 HD
ATOM     22  H   UNL     1       3.468   3.078  21.313  0.00  0.00    +0.000 HD
ENDBRANCH  17  20
ENDBRANCH   4  17
TORSDOF 7
ENDMDL
MODEL 9
REMARK VINA RESULT:      -6.5      1.227      1.789
REMARK  Name = 
REMARK  9 active torsions:
REMARK  status: ('A' for Active; 'I' for Inactive)
REMARK    1  A    between atoms: C_1  and  C_2
REMARK    2  A    between atoms: C_2  and  C_3
REMARK    3  A    between atoms: C_2  and  O_4
REMARK    4  A    between atoms: C_2  and  C_5
REMARK    5  A    between atoms: C_5  and  C_6
REMARK    6  A    between atoms: C_6  and  S_7
REMARK    7  A    between atoms: S_7  and  C_10
REMARK    8  A    between atoms: C_13  and  S_14
REMARK    9  A    between atoms: S_14  and  N_15
REMARK                            x       y       z     vdW  Elec       q    Type
REMARK                         _______ _______ _______ _____ _____    ______ ____
ROOT
ATOM      1  C   UNL     1       5.365   4.535  17.428  0.00  0.00    +0.000 A 
ATOM      2  C   UNL     1       5.417   5.167  18.674  0.00  0.00    +0.000 A 
ATOM      3  C   UNL     1       4.363   5.000  19.572  0.00  0.00    +0.000 A 
ATOM      4  C   UNL     1       3.267   4.210  19.211  0.00  0.00    +0.000 A 
ATOM      5  C   UNL     1       3.219   3.570  17.968  0.00  0.00    +0.000 A 
ATOM      6  C   UNL     1       4.270   3.742  17.065  0.00  0.00    +0.000 A 
ENDROOT
BRANCH   1   7
ATOM      7  S   UNL     1       6.698   4.764  16.270  0.00  0.00    +0.000 S 
ATOM      8  O   UNL     1       7.922   4.351  16.931  0.00  0.00    +0.000 OA
ATOM      9  O   UNL     1       6.553   6.105  15.737  0.00  0.00    +0.000 OA
BRANCH   7  10
ATOM     10  C   UNL     1       6.338   3.596  14.974  0.00  0.00    +0.000 C 
BRANCH  10  11
ATOM     11  C   UNL     1       5.646   4.281  13.796  0.00  0.00    +0.000 C 
BRANCH  11  13
ATOM     12  C   UNL     1       7.039   4.240  11.708  0.00  0.00    +0.000 C 
ATOM     13  C   UNL     1       5.875   3.573  12.451  0.00  0.00    +0.000 C 
ATOM     14  C   UNL     1       4.629   3.566  11.565  0.00  0.00    +0.000 C 
BRANCH  13  15
ATOM     15  O   UNL     1       6.229   2.216  12.728  0.00  0.00    +0.000 OA
ATOM     16  H   UNL     1       5.723   1.644  12.126  0.00  0.00    +0.000 HD
ENDBRANCH  13  15
ENDBRANCH  11  13
ENDBRANCH  10  11
ENDBRANCH   7  10
ENDBRANCH   1   7
BRANCH   4  17
ATOM     17  S   UNL     1       1.936   4.003  20.360  0.00  0.00    +0.000 S 
ATOM     18  O   UNL     1       0.812   3.406  19.677  0.00  0.00    +0.000 OA
ATOM     19  O   UNL     1       2.458   3.481  21.601  0.00  0.00    +0.000 OA
BRANCH  17  20
ATOM     20  N   UNL     1       1.509   5.597  20.662  0.00  0.00    +0.000 NA
ATOM     21  H   UNL     1       2.321   6.205  20.557  0.00  0.00    +0.000 HD
ATOM     22  H   UNL     1       0.711   5.862  20.085  0.00  0.00    +0.000 HD
ENDBRANCH  17  20
ENDBRANCH   4  17
TORSDOF 7
ENDMDL
