MODEL 1
REMARK VINA RESULT:      -7.5      0.000      0.000
REMARK  Name = 
REMARK  6 active torsions:
REMARK  status: ('A' for Active; 'I' for Inactive)
REMARK    1  A    between atoms: C_1  and  C_2
REMARK    2  A    between atoms: C_2  and  C_3
REMARK    3  A    between atoms: C_2  and  C_4
REMARK    4  A    between atoms: C_7  and  N_8
REMARK    5  A    between atoms: C_9  and  C_11
REMARK    6  A    between atoms: C_16  and  C_18
REMARK                            x       y       z     vdW  Elec       q    Type
REMARK                         _______ _______ _______ _____ _____    ______ ____
ROOT
ATOM      1  C   UNL     1       3.540   5.079  19.793  0.00  0.00    +0.000 C 
ATOM      2  C   UNL     1       2.863   4.059  20.718  0.00  0.00    +0.000 C 
ATOM      3  S   UNL     1       3.101   2.430  19.972  0.00  0.00    +0.000 S 
ATOM      4  C   UNL     1       4.481   2.974  18.967  0.00  0.00    +0.000 C 
ATOM      5  N   UNL     1       4.305   4.389  18.744  0.00  0.00    +0.000 N 
ATOM      6  C   UNL     1       5.075   5.152  17.884  0.00  0.00    +0.000 C 
ATOM      7  O   UNL     1       4.956   6.381  17.859  0.00  0.00    +0.000 OA
ENDROOT
BRANCH   6   8
ATOM      8  C   UNL     1       6.115   4.442  16.985  0.00  0.00    +0.000 C 
ATOM      9  C   UNL     1       7.089   5.424  16.339  0.00  0.00    +0.000 C 
ATOM     10  C   UNL     1       7.282   4.926  14.910  0.00  0.00    +0.000 C 
ATOM     11  C   UNL     1       6.010   4.178  14.642  0.00  0.00    +0.000 C 
ATOM     12  O   UNL     1       5.561   3.889  13.550  0.00  0.00    +0.000 OA
ATOM     13  N   UNL     1       5.455   3.835  15.855  0.00  0.00    +0.000 N 
ATOM     14  H   UNL     1       4.519   3.451  15.896  0.00  0.00    +0.000 HD
ENDBRANCH   6   8
BRANCH   1  16
ATOM     15  N   UNL     1       2.485   7.268  19.940  0.00  0.00    +0.000 N 
ATOM     16  C   UNL     1       2.434   6.032  19.292  0.00  0.00    +0.000 C 
ATOM     17  O   UNL     1       1.593   5.675  18.474  0.00  0.00    +0.000 OA
ATOM     18  H   UNL     1       3.339   7.492  20.434  0.00  0.00    +0.000 HD
BRANCH  15  22
ATOM     19  C   UNL     1      -0.195  10.476  19.277  0.00  0.00    +0.000 A 
ATOM     20  C   UNL     1      -0.091   9.902  20.551  0.00  0.00    +0.000 A 
ATOM     21  C   UNL     1       0.793   8.847  20.794  0.00  0.00    +0.000 A 
ATOM     22  C   UNL     1       1.590   8.343  19.772  0.00  0.00    +0.000 A 
ATOM     23  C   UNL     1       1.520   8.933  18.505  0.00  0.00    +0.000 A 
ATOM     24  C   UNL     1       0.624   9.978  18.255  0.00  0.00    +0.000 A 
BRANCH  19  26
ATOM     25  C   UNL     1      -0.508  12.868  18.538  0.00  0.00    +0.000 C 
ATOM     26  C   UNL     1      -1.193  11.595  19.037  0.00  0.00    +0.000 C 
ATOM     27  C   UNL     1      -2.302  11.151  18.082  0.00  0.00    +0.000 C 
ENDBRANCH  19  26
ENDBRANCH  15  22
ENDBRANCH   1  16
TORSDOF 4
ENDMDL
MODEL 2
REMARK VINA RESULT:      -7.4      0.301      1.003
REMARK  Name = 
REMARK  6 active torsions:
REMARK  status: ('A' for Active; 'I' for Inactive)
REMARK    1  A    between atoms: C_1  and  C_2
REMARK    2  A    between atoms: C_2  and  C_3
REMARK    3  A    between atoms: C_2  and  C_4
REMARK    4  A    between atoms: C_7  and  N_8
REMARK    5  A    between atoms: C_9  and  C_11
REMARK    6  A    between atoms: C_16  and  C_18
REMARK                            x       y       z     vdW  Elec       q    Type
REMARK                         _______ _______ _______ _____ _____    ______ ____
ROOT
ATOM      1  C   UNL     1       3.497   4.825  19.830  0.00  0.00    +0.000 C 
ATOM      2  C   UNL     1       2.771   3.741  20.639  0.00  0.00    +0.000 C 
ATOM      3  S   UNL     1       3.058   2.170  19.791  0.00  0.00    +0.000 S 
ATOM      4  C   UNL     1       4.490   2.785  18.908  0.00  0.00    +0.000 C 
ATOM      5  N   UNL     1       4.322   4.212  18.779  0.00  0.00    +0.000 N 
ATOM      6  C   UNL     1       5.137   5.036  18.022  0.00  0.00    +0.000 C 
ATOM      7  O   UNL     1       5.016   6.263  18.080  0.00  0.00    +0.000 OA
ENDROOT
BRANCH   6   8
ATOM      8  C   UNL     1       6.229   4.393  17.134  0.00  0.00    +0.000 C 
ATOM      9  C   UNL     1       7.116   5.436  16.459  0.00  0.00    +0.000 C 
ATOM     10  C   UNL     1       7.344   4.920  15.042  0.00  0.00    +0.000 C 
ATOM     11  C   UNL     1       6.137   4.063  14.799  0.00  0.00    +0.000 C 
ATOM     12  O   UNL     1       5.709   3.712  13.717  0.00  0.00    +0.000 OA
ATOM     13  N   UNL     1       5.617   3.705  16.023  0.00  0.00    +0.000 N 
ATOM     14  H   UNL     1       4.715   3.247  16.078  0.00  0.00    +0.000 HD
ENDBRANCH   6   8
BRANCH   1  16
ATOM     15  N   UNL     1       2.585   7.081  19.898  0.00  0.00    +0.000 N 
ATOM     16  C   UNL     1       2.418   5.813  19.338  0.00  0.00    +0.000 C 
ATOM     17  O   UNL     1       1.504   5.459  18.601  0.00  0.00    +0.000 OA
ATOM     18  H   UNL     1       3.482   7.282  20.321  0.00  0.00    +0.000 HD
BRANCH  15  22
ATOM     19  C   UNL     1       0.043  10.442  19.508  0.00  0.00    +0.000 A 
ATOM     20  C   UNL     1       0.879  10.070  18.448  0.00  0.00    +0.000 A 
ATOM     21  C   UNL     1       1.722   8.960  18.553  0.00  0.00    +0.000 A 
ATOM     22  C   UNL     1       1.746   8.198  19.716  0.00  0.00    +0.000 A 
ATOM     23  C   UNL     1       0.888   8.540  20.767  0.00  0.00    +0.000 A 
ATOM     24  C   UNL     1       0.056   9.661  20.671  0.00  0.00    +0.000 A 
BRANCH  19  26
ATOM     25  C   UNL     1      -0.062  12.854  18.774  0.00  0.00    +0.000 C 
ATOM     26  C   UNL     1      -0.831  11.677  19.376  0.00  0.00    +0.000 C 
ATOM     27  C   UNL     1      -2.099  11.375  18.575  0.00  0.00    +0.000 C 
ENDBRANCH  19  26
ENDBRANCH  15  22
ENDBRANCH   1  16
TORSDOF 4
ENDMDL
MODEL 3
REMARK VINA RESULT:      -7.4      3.684      8.677
REMARK  Name = 
REMARK  6 active torsions:
REMARK  status: ('A' for Active; 'I' for Inactive)
REMARK    1  A    between atoms: C_1  and  C_2
REMARK    2  A    between atoms: C_2  and  C_3
REMARK    3  A    between atoms: C_2  and  C_4
REMARK    4  A    between atoms: C_7  and  N_8
REMARK    5  A    between atoms: C_9  and  C_11
REMARK    6  A    between atoms: C_16  and  C_18
REMARK                            x       y       z     vdW  Elec       q    Type
REMARK                         _______ _______ _______ _____ _____    ______ ____
ROOT
ATOM      1  C   UNL     1       0.589   9.781  19.435  0.00  0.00    +0.000 C 
ATOM      2  C   UNL     1       1.339  10.370  20.637  0.00  0.00    +0.000 C 
ATOM      3  S   UNL     1       0.999  12.145  20.651  0.00  0.00    +0.000 S 
ATOM      4  C   UNL     1      -0.466  11.982  19.633  0.00  0.00    +0.000 C 
ATOM      5  N   UNL     1      -0.290  10.794  18.834  0.00  0.00    +0.000 N 
ATOM      6  C   UNL     1      -1.131  10.406  17.805  0.00  0.00    +0.000 C 
ATOM      7  O   UNL     1      -0.995   9.303  17.266  0.00  0.00    +0.000 OA
ENDROOT
BRANCH   6   8
ATOM      8  C   UNL     1      -2.268  11.361  17.371  0.00  0.00    +0.000 C 
ATOM      9  C   UNL     1      -3.632  10.910  17.888  0.00  0.00    +0.000 C 
ATOM     10  C   UNL     1      -4.604  11.155  16.738  0.00  0.00    +0.000 C 
ATOM     11  C   UNL     1      -3.719  11.083  15.529  0.00  0.00    +0.000 C 
ATOM     12  O   UNL     1      -4.077  10.889  14.385  0.00  0.00    +0.000 OA
ATOM     13  N   UNL     1      -2.424  11.319  15.937  0.00  0.00    +0.000 N 
ATOM     14  H   UNL     1      -1.654  11.171  15.296  0.00  0.00    +0.000 HD
ENDBRANCH   6   8
BRANCH   1  16
ATOM     15  N   UNL     1       1.894   7.833  18.778  0.00  0.00    +0.000 N 
ATOM     16  C   UNL     1       1.654   9.179  18.494  0.00  0.00    +0.000 C 
ATOM     17  O   UNL     1       2.240   9.861  17.660  0.00  0.00    +0.000 OA
ATOM     18  H   UNL     1       1.205   7.354  19.345  0.00  0.00    +0.000 HD
BRANCH  15  22
ATOM     19  C   UNL     1       4.639   5.212  16.907  0.00  0.00    +0.000 A 
ATOM     20  C   UNL     1       4.893   6.588  16.934  0.00  0.00    +0.000 A 
ATOM     21  C   UNL     1       4.003   7.472  17.552  0.00  0.00    +0.000 A 
ATOM     22  C   UNL     1       2.844   6.999  18.157  0.00  0.00    +0.000 A 
ATOM     23  C   UNL     1       2.599   5.621  18.167  0.00  0.00    +0.000 A 
ATOM     24  C   UNL     1       3.479   4.737  17.534  0.00  0.00    +0.000 A 
BRANCH  19  26
ATOM     25  C   UNL     1       5.487   4.403  14.672  0.00  0.00    +0.000 C 
ATOM     26  C   UNL     1       5.606   4.284  16.193  0.00  0.00    +0.000 C 
ATOM     27  C   UNL     1       7.045   4.521  16.657  0.00  0.00    +0.000 C 
ENDBRANCH  19  26
ENDBRANCH  15  22
ENDBRANCH   1  16
TORSDOF 4
ENDMDL
MODEL 4
REMARK VINA RESULT:      -7.2      3.928      8.729
REMARK  Name = 
REMARK  6 active torsions:
REMARK  status: ('A' for Active; 'I' for Inactive)
REMARK    1  A    between atoms: C_1  and  C_2
REMARK    2  A    between atoms: C_2  and  C_3
REMARK    3  A    between atoms: C_2  and  C_4
REMARK    4  A    between atoms: C_7  and  N_8
REMARK    5  A    between atoms: C_9  and  C_11
REMARK    6  A    between atoms: C_16  and  C_18
REMARK                            x       y       z     vdW  Elec       q    Type
REMARK                         _______ _______ _______ _____ _____    ______ ____
ROOT
ATOM      1  C   UNL     1       0.482  10.979  19.688  0.00  0.00    +0.000 C 
ATOM      2  C   UNL     1       1.259  11.988  20.544  0.00  0.00    +0.000 C 
ATOM      3  S   UNL     1       0.861  13.634  19.909  0.00  0.00    +0.000 S 
ATOM      4  C   UNL     1      -0.637  13.076  19.100  0.00  0.00    +0.000 C 
ATOM      5  N   UNL     1      -0.453  11.678  18.795  0.00  0.00    +0.000 N 
ATOM      6  C   UNL     1      -1.320  10.919  18.028  0.00  0.00    +0.000 C 
ATOM      7  O   UNL     1      -1.169   9.697  17.936  0.00  0.00    +0.000 OA
ENDROOT
BRANCH   6   8
ATOM      8  C   UNL     1      -2.505  11.622  17.325  0.00  0.00    +0.000 C 
ATOM      9  C   UNL     1      -3.852  11.018  17.715  0.00  0.00    +0.000 C 
ATOM     10  C   UNL     1      -4.666  10.972  16.425  0.00  0.00    +0.000 C 
ATOM     11  C   UNL     1      -3.608  10.909  15.363  0.00  0.00    +0.000 C 
ATOM     12  O   UNL     1      -3.759  10.532  14.218  0.00  0.00    +0.000 OA
ATOM     13  N   UNL     1      -2.437  11.395  15.901  0.00  0.00    +0.000 N 
ATOM     14  H   UNL     1      -1.566  11.303  15.393  0.00  0.00    +0.000 HD
ENDBRANCH   6   8
BRANCH   1  16
ATOM     15  N   UNL     1       1.428   8.755  19.399  0.00  0.00    +0.000 N 
ATOM     16  C   UNL     1       1.528  10.086  18.989  0.00  0.00    +0.000 C 
ATOM     17  O   UNL     1       2.370  10.549  18.227  0.00  0.00    +0.000 OA
ATOM     18  H   UNL     1       0.574   8.482  19.868  0.00  0.00    +0.000 HD
BRANCH  15  22
ATOM     19  C   UNL     1       3.859   5.460  18.329  0.00  0.00    +0.000 A 
ATOM     20  C   UNL     1       3.846   6.609  17.529  0.00  0.00    +0.000 A 
ATOM     21  C   UNL     1       3.056   7.711  17.867  0.00  0.00    +0.000 A 
ATOM     22  C   UNL     1       2.264   7.690  19.011  0.00  0.00    +0.000 A 
ATOM     23  C   UNL     1       2.298   6.560  19.836  0.00  0.00    +0.000 A 
ATOM     24  C   UNL     1       3.075   5.448  19.490  0.00  0.00    +0.000 A 
BRANCH  19  26
ATOM     25  C   UNL     1       3.934   2.950  18.078  0.00  0.00    +0.000 C 
ATOM     26  C   UNL     1       4.698   4.265  17.912  0.00  0.00    +0.000 C 
ATOM     27  C   UNL     1       5.218   4.426  16.482  0.00  0.00    +0.000 C 
ENDBRANCH  19  26
ENDBRANCH  15  22
ENDBRANCH   1  16
TORSDOF 4
ENDMDL
MODEL 5
REMARK VINA RESULT:      -7.2      1.233      1.463
REMARK  Name = 
REMARK  6 active torsions:
REMARK  status: ('A' for Active; 'I' for Inactive)
REMARK    1  A    between atoms: C_1  and  C_2
REMARK    2  A    between atoms: C_2  and  C_3
REMARK    3  A    between atoms: C_2  and  C_4
REMARK    4  A    between atoms: C_7  and  N_8
REMARK    5  A    between atoms: C_9  and  C_11
REMARK    6  A    between atoms: C_16  and  C_18
REMARK                            x       y       z     vdW  Elec       q    Type
REMARK                         _______ _______ _______ _____ _____    ______ ____
ROOT
ATOM      1  C   UNL     1       2.848   4.665  20.797  0.00  0.00    +0.000 C 
ATOM      2  C   UNL     1       2.210   3.593  21.691  0.00  0.00    +0.000 C 
ATOM      3  S   UNL     1       2.284   2.034  20.778  0.00  0.00    +0.000 S 
ATOM      4  C   UNL     1       3.585   2.609  19.689  0.00  0.00    +0.000 C 
ATOM      5  N   UNL     1       3.466   4.045  19.616  0.00  0.00    +0.000 N 
ATOM      6  C   UNL     1       4.189   4.852  18.754  0.00  0.00    +0.000 C 
ATOM      7  O   UNL     1       4.137   6.082  18.855  0.00  0.00    +0.000 OA
ENDROOT
BRANCH   6   8
ATOM      8  C   UNL     1       5.095   4.186  17.692  0.00  0.00    +0.000 C 
ATOM      9  C   UNL     1       6.575   4.471  17.931  0.00  0.00    +0.000 C 
ATOM     10  C   UNL     1       7.169   4.724  16.549  0.00  0.00    +0.000 C 
ATOM     11  C   UNL     1       5.988   5.205  15.759  0.00  0.00    +0.000 C 
ATOM     12  O   UNL     1       6.025   5.833  14.720  0.00  0.00    +0.000 OA
ATOM     13  N   UNL     1       4.846   4.772  16.397  0.00  0.00    +0.000 N 
ATOM     14  H   UNL     1       3.940   5.115  16.104  0.00  0.00    +0.000 HD
ENDBRANCH   6   8
BRANCH   1  16
ATOM     15  N   UNL     1       2.224   7.015  20.673  0.00  0.00    +0.000 N 
ATOM     16  C   UNL     1       1.752   5.711  20.503  0.00  0.00    +0.000 C 
ATOM     17  O   UNL     1       0.603   5.385  20.225  0.00  0.00    +0.000 OA
ATOM     18  H   UNL     1       3.227   7.140  20.704  0.00  0.00    +0.000 HD
BRANCH  15  22
ATOM     19  C   UNL     1      -0.022  10.563  20.143  0.00  0.00    +0.000 A 
ATOM     20  C   UNL     1       0.040   9.955  21.403  0.00  0.00    +0.000 A 
ATOM     21  C   UNL     1       0.781   8.787  21.602  0.00  0.00    +0.000 A 
ATOM     22  C   UNL     1       1.476   8.202  20.550  0.00  0.00    +0.000 A 
ATOM     23  C   UNL     1       1.450   8.822  19.295  0.00  0.00    +0.000 A 
ATOM     24  C   UNL     1       0.695   9.982  19.089  0.00  0.00    +0.000 A 
BRANCH  19  26
ATOM     25  C   UNL     1      -1.670  11.756  18.649  0.00  0.00    +0.000 C 
ATOM     26  C   UNL     1      -0.868  11.809  19.951  0.00  0.00    +0.000 C 
ATOM     27  C   UNL     1      -1.782  12.047  21.155  0.00  0.00    +0.000 C 
ENDBRANCH  19  26
ENDBRANCH  15  22
ENDBRANCH   1  16
TORSDOF 4
ENDMDL
MODEL 6
REMARK VINA RESULT:      -7.2      4.165      8.732
REMARK  Name = 
REMARK  6 active torsions:
REMARK  status: ('A' for Active; 'I' for Inactive)
REMARK    1  A    between atoms: C_1  and  C_2
REMARK    2  A    between atoms: C_2  and  C_3
REMARK    3  A    between atoms: C_2  and  C_4
REMARK    4  A    between atoms: C_7  and  N_8
REMARK    5  A    between atoms: C_9  and  C_11
REMARK    6  A    between atoms: C_16  and  C_18
REMARK                            x       y       z     vdW  Elec       q    Type
REMARK                         _______ _______ _______ _____ _____    ______ ____
ROOT
ATOM      1  C   UNL     1       0.754  11.288  19.498  0.00  0.00    +0.000 C 
ATOM      2  C   UNL     1       1.840  12.335  19.782  0.00  0.00    +0.000 C 
ATOM      3  S   UNL     1       1.547  13.718  18.655  0.00  0.00    +0.000 S 
ATOM      4  C   UNL     1      -0.158  13.256  18.361  0.00  0.00    +0.000 C 
ATOM      5  N   UNL     1      -0.249  11.831  18.571  0.00  0.00    +0.000 N 
ATOM      6  C   UNL     1      -1.366  11.064  18.290  0.00  0.00    +0.000 C 
ATOM      7  O   UNL     1      -1.415   9.879  18.634  0.00  0.00    +0.000 OA
ENDROOT
BRANCH   6   8
ATOM      8  C   UNL     1      -2.567  11.728  17.575  0.00  0.00    +0.000 C 
ATOM      9  C   UNL     1      -3.889  11.035  17.898  0.00  0.00    +0.000 C 
ATOM     10  C   UNL     1      -4.659  10.995  16.582  0.00  0.00    +0.000 C 
ATOM     11  C   UNL     1      -3.568  11.031  15.554  0.00  0.00    +0.000 C 
ATOM     12  O   UNL     1      -3.662  10.692  14.391  0.00  0.00    +0.000 OA
ATOM     13  N   UNL     1      -2.443  11.560  16.147  0.00  0.00    +0.000 N 
ATOM     14  H   UNL     1      -1.553  11.536  15.664  0.00  0.00    +0.000 HD
ENDBRANCH   6   8
BRANCH   1  16
ATOM     15  N   UNL     1       1.243   8.934  19.881  0.00  0.00    +0.000 N 
ATOM     16  C   UNL     1       1.478  10.011  19.022  0.00  0.00    +0.000 C 
ATOM     17  O   UNL     1       2.214  10.011  18.042  0.00  0.00    +0.000 OA
ATOM     18  H   UNL     1       0.467   9.021  20.524  0.00  0.00    +0.000 HD
BRANCH  15  22
ATOM     19  C   UNL     1       2.793   5.002  19.678  0.00  0.00    +0.000 A 
ATOM     20  C   UNL     1       3.173   5.954  18.724  0.00  0.00    +0.000 A 
ATOM     21  C   UNL     1       2.679   7.260  18.776  0.00  0.00    +0.000 A 
ATOM     22  C   UNL     1       1.797   7.643  19.781  0.00  0.00    +0.000 A 
ATOM     23  C   UNL     1       1.439   6.709  20.760  0.00  0.00    +0.000 A 
ATOM     24  C   UNL     1       1.919   5.396  20.700  0.00  0.00    +0.000 A 
BRANCH  19  26
ATOM     25  C   UNL     1       4.818   3.551  19.276  0.00  0.00    +0.000 C 
ATOM     26  C   UNL     1       3.317   3.581  19.570  0.00  0.00    +0.000 C 
ATOM     27  C   UNL     1       2.981   2.770  20.824  0.00  0.00    +0.000 C 
ENDBRANCH  19  26
ENDBRANCH  15  22
ENDBRANCH   1  16
TORSDOF 4
ENDMDL
MODEL 7
REMARK VINA RESULT:      -7.2      3.946      8.704
REMARK  Name = 
REMARK  6 active torsions:
REMARK  status: ('A' for Active; 'I' for Inactive)
REMARK    1  A    between atoms: C_1  and  C_2
REMARK    2  A    between atoms: C_2  and  C_3
REMARK    3  A    between atoms: C_2  and  C_4
REMARK    4  A    between atoms: C_7  and  N_8
REMARK    5  A    between atoms: C_9  and  C_11
REMARK    6  A    between atoms: C_16  and  C_18
REMARK                            x       y       z     vdW  Elec       q    Type
REMARK                         _______ _______ _______ _____ _____    ______ ____
ROOT
ATOM      1  C   UNL     1       0.589  11.103  19.518  0.00  0.00    +0.000 C 
ATOM      2  C   UNL     1       1.475  12.167  20.181  0.00  0.00    +0.000 C 
ATOM      3  S   UNL     1       1.105  13.740  19.370  0.00  0.00    +0.000 S 
ATOM      4  C   UNL     1      -0.474  13.169  18.746  0.00  0.00    +0.000 C 
ATOM      5  N   UNL     1      -0.378  11.736  18.611  0.00  0.00    +0.000 N 
ATOM      6  C   UNL     1      -1.336  10.936  18.011  0.00  0.00    +0.000 C 
ATOM      7  O   UNL     1      -1.248   9.705  18.065  0.00  0.00    +0.000 OA
ENDROOT
BRANCH   6   8
ATOM      8  C   UNL     1      -2.538  11.611  17.308  0.00  0.00    +0.000 C 
ATOM      9  C   UNL     1      -3.877  11.101  17.834  0.00  0.00    +0.000 C 
ATOM     10  C   UNL     1      -4.769  10.958  16.605  0.00  0.00    +0.000 C 
ATOM     11  C   UNL     1      -3.780  10.747  15.496  0.00  0.00    +0.000 C 
ATOM     12  O   UNL     1      -4.013  10.263  14.407  0.00  0.00    +0.000 OA
ATOM     13  N   UNL     1      -2.563  11.240  15.914  0.00  0.00    +0.000 N 
ATOM     14  H   UNL     1      -1.729  11.063  15.368  0.00  0.00    +0.000 HD
ENDBRANCH   6   8
BRANCH   1  16
ATOM     15  N   UNL     1       1.448   8.825  19.488  0.00  0.00    +0.000 N 
ATOM     16  C   UNL     1       1.537  10.073  18.868  0.00  0.00    +0.000 C 
ATOM     17  O   UNL     1       2.307  10.382  17.965  0.00  0.00    +0.000 OA
ATOM     18  H   UNL     1       0.639   8.661  20.074  0.00  0.00    +0.000 HD
BRANCH  15  22
ATOM     19  C   UNL     1       3.836   5.477  18.491  0.00  0.00    +0.000 A 
ATOM     20  C   UNL     1       3.040   5.451  19.643  0.00  0.00    +0.000 A 
ATOM     21  C   UNL     1       2.238   6.543  19.988  0.00  0.00    +0.000 A 
ATOM     22  C   UNL     1       2.213   7.681  19.190  0.00  0.00    +0.000 A 
ATOM     23  C   UNL     1       2.977   7.703  18.017  0.00  0.00    +0.000 A 
ATOM     24  C   UNL     1       3.793   6.618  17.679  0.00  0.00    +0.000 A 
BRANCH  19  26
ATOM     25  C   UNL     1       4.517   3.139  19.153  0.00  0.00    +0.000 C 
ATOM     26  C   UNL     1       4.725   4.289  18.166  0.00  0.00    +0.000 C 
ATOM     27  C   UNL     1       4.523   3.825  16.722  0.00  0.00    +0.000 C 
ENDBRANCH  19  26
ENDBRANCH  15  22
ENDBRANCH   1  16
TORSDOF 4
ENDMDL
MODEL 8
REMARK VINA RESULT:      -7.1      4.235      8.395
REMARK  Name = 
REMARK  6 active torsions:
REMARK  status: ('A' for Active; 'I' for Inactive)
REMARK    1  A    between atoms: C_1  and  C_2
REMARK    2  A    between atoms: C_2  and  C_3
REMARK    3  A    between atoms: C_2  and  C_4
REMARK    4  A    between atoms: C_7  and  N_8
REMARK    5  A    between atoms: C_9  and  C_11
REMARK    6  A    between atoms: C_16  and  C_18
REMARK                            x       y       z     vdW  Elec       q    Type
REMARK                         _______ _______ _______ _____ _____    ______ ____
ROOT
ATOM      1  C   UNL     1      -0.595  10.805  20.741  0.00  0.00    +0.000 C 
ATOM      2  C   UNL     1       0.249  11.755  21.602  0.00  0.00    +0.000 C 
ATOM      3  S   UNL     1       0.684  13.165  20.557  0.00  0.00    +0.000 S 
ATOM      4  C   UNL     1      -0.640  12.849  19.394  0.00  0.00    +0.000 C 
ATOM      5  N   UNL     1      -0.924  11.435  19.455  0.00  0.00    +0.000 N 
ATOM      6  C   UNL     1      -1.777  10.765  18.595  0.00  0.00    +0.000 C 
ATOM      7  O   UNL     1      -2.079   9.586  18.804  0.00  0.00    +0.000 OA
ENDROOT
BRANCH   6   8
ATOM      8  C   UNL     1      -2.377  11.532  17.392  0.00  0.00    +0.000 C 
ATOM      9  C   UNL     1      -3.899  11.433  17.344  0.00  0.00    +0.000 C 
ATOM     10  C   UNL     1      -4.248  11.247  15.870  0.00  0.00    +0.000 C 
ATOM     11  C   UNL     1      -3.007  10.619  15.309  0.00  0.00    +0.000 C 
ATOM     12  O   UNL     1      -2.923   9.993  14.270  0.00  0.00    +0.000 OA
ATOM     13  N   UNL     1      -1.962  10.911  16.157  0.00  0.00    +0.000 N 
ATOM     14  H   UNL     1      -1.065  10.457  16.035  0.00  0.00    +0.000 HD
ENDBRANCH   6   8
BRANCH   1  16
ATOM     15  N   UNL     1       1.069   9.466  19.571  0.00  0.00    +0.000 N 
ATOM     16  C   UNL     1       0.183   9.474  20.651  0.00  0.00    +0.000 C 
ATOM     17  O   UNL     1      -0.038   8.542  21.416  0.00  0.00    +0.000 OA
ATOM     18  H   UNL     1       1.293  10.360  19.155  0.00  0.00    +0.000 HD
BRANCH  15  22
ATOM     19  C   UNL     1       3.587   6.339  18.232  0.00  0.00    +0.000 A 
ATOM     20  C   UNL     1       2.920   6.225  19.458  0.00  0.00    +0.000 A 
ATOM     21  C   UNL     1       2.078   7.242  19.917  0.00  0.00    +0.000 A 
ATOM     22  C   UNL     1       1.884   8.393  19.161  0.00  0.00    +0.000 A 
ATOM     23  C   UNL     1       2.518   8.502  17.918  0.00  0.00    +0.000 A 
ATOM     24  C   UNL     1       3.374   7.492  17.465  0.00  0.00    +0.000 A 
BRANCH  19  26
ATOM     25  C   UNL     1       5.034   5.466  16.358  0.00  0.00    +0.000 C 
ATOM     26  C   UNL     1       4.525   5.233  17.782  0.00  0.00    +0.000 C 
ATOM     27  C   UNL     1       5.686   5.059  18.764  0.00  0.00    +0.000 C 
ENDBRANCH  19  26
ENDBRANCH  15  22
ENDBRANCH   1  16
TORSDOF 4
ENDMDL
MODEL 9
REMARK VINA RESULT:      -7.0      4.317      8.395
REMARK  Name = 
REMARK  6 active torsions:
REMARK  status: ('A' for Active; 'I' for Inactive)
REMARK    1  A    between atoms: C_1  and  C_2
REMARK    2  A    between atoms: C_2  and  C_3
REMARK    3  A    between atoms: C_2  and  C_4
REMARK    4  A    between atoms: C_7  and  N_8
REMARK    5  A    between atoms: C_9  and  C_11
REMARK    6  A    between atoms: C_16  and  C_18
REMARK                            x       y       z     vdW  Elec       q    Type
REMARK                         _______ _______ _______ _____ _____    ______ ____
ROOT
ATOM      1  C   UNL     1       0.229  11.332  20.408  0.00  0.00    +0.000 C 
ATOM      2  C   UNL     1       1.348  12.296  20.826  0.00  0.00    +0.000 C 
ATOM      3  S   UNL     1       1.644  13.398  19.424  0.00  0.00    +0.000 S 
ATOM      4  C   UNL     1       0.048  13.061  18.684  0.00  0.00    +0.000 C 
ATOM      5  N   UNL     1      -0.346  11.744  19.120  0.00  0.00    +0.000 N 
ATOM      6  C   UNL     1      -1.447  11.053  18.642  0.00  0.00    +0.000 C 
ATOM      7  O   UNL     1      -1.800   9.993  19.170  0.00  0.00    +0.000 OA
ENDROOT
BRANCH   6   8
ATOM      8  C   UNL     1      -2.250  11.652  17.463  0.00  0.00    +0.000 C 
ATOM      9  C   UNL     1      -3.746  11.374  17.580  0.00  0.00    +0.000 C 
ATOM     10  C   UNL     1      -4.209  11.039  16.166  0.00  0.00    +0.000 C 
ATOM     11  C   UNL     1      -2.961  10.519  15.518  0.00  0.00    +0.000 C 
ATOM     12  O   UNL     1      -2.901   9.832  14.518  0.00  0.00    +0.000 OA
ATOM     13  N   UNL     1      -1.882  10.993  16.233  0.00  0.00    +0.000 N 
ATOM     14  H   UNL     1      -0.953  10.638  16.046  0.00  0.00    +0.000 HD
ENDBRANCH   6   8
BRANCH   1  16
ATOM     15  N   UNL     1       1.476   9.590  19.250  0.00  0.00    +0.000 N 
ATOM     16  C   UNL     1       0.828   9.909  20.445  0.00  0.00    +0.000 C 
ATOM     17  O   UNL     1       0.666   9.164  21.405  0.00  0.00    +0.000 OA
ATOM     18  H   UNL     1       1.706  10.359  18.633  0.00  0.00    +0.000 HD
BRANCH  15  22
ATOM     19  C   UNL     1       3.368   5.966  18.157  0.00  0.00    +0.000 A 
ATOM     20  C   UNL     1       2.643   6.044  19.353  0.00  0.00    +0.000 A 
ATOM     21  C   UNL     1       2.005   7.229  19.730  0.00  0.00    +0.000 A 
ATOM     22  C   UNL     1       2.075   8.358  18.922  0.00  0.00    +0.000 A 
ATOM     23  C   UNL     1       2.766   8.280  17.707  0.00  0.00    +0.000 A 
ATOM     24  C   UNL     1       3.420   7.099  17.336  0.00  0.00    +0.000 A 
BRANCH  19  26
ATOM     25  C   UNL     1       4.954   4.169  18.947  0.00  0.00    +0.000 C 
ATOM     26  C   UNL     1       4.082   4.675  17.796  0.00  0.00    +0.000 C 
ATOM     27  C   UNL     1       3.090   3.603  17.339  0.00  0.00    +0.000 C 
ENDBRANCH  19  26
ENDBRANCH  15  22
ENDBRANCH   1  16
TORSDOF 4
ENDMDL
