MODEL 1
REMARK VINA RESULT:      -9.5      0.000      0.000
REMARK  Name = 
REMARK  5 active torsions:
REMARK  status: ('A' for Active; 'I' for Inactive)
REMARK    1  A    between atoms: C_1  and  N_2
REMARK    2  A    between atoms: N_2  and  C_3
REMARK    3  A    between atoms: C_4  and  C_6
REMARK    4  A    between atoms: C_16  and  N_17
REMARK    5  A    between atoms: N_31  and  C_32
REMARK                            x       y       z     vdW  Elec       q    Type
REMARK                         _______ _______ _______ _____ _____    ______ ____
ROOT
ATOM      1  C   UNL     1       3.408   5.836  17.703  0.00  0.00    +0.000 A 
ATOM      2  C   UNL     1       3.281   7.162  17.309  0.00  0.00    +0.000 A 
ATOM      3  C   UNL     1       2.612   7.873  18.315  0.00  0.00    +0.000 A 
ATOM      4  C   UNL     1       2.278   9.198  18.526  0.00  0.00    +0.000 A 
ATOM      5  N   UNL     1       1.557   9.529  19.607  0.00  0.00    +0.000 NA
ATOM      6  C   UNL     1       1.206   8.581  20.499  0.00  0.00    +0.000 A 
ATOM      7  N   UNL     1       0.404   8.950  21.575  0.00  0.00    +0.000 N 
ATOM      8  C   UNL     1      -0.308  10.140  21.716  0.00  0.00    +0.000 A 
ATOM      9  C   UNL     1      -0.923  10.740  20.622  0.00  0.00    +0.000 A 
ATOM     10  C   UNL     1      -1.673  11.904  20.783  0.00  0.00    +0.000 A 
ATOM     11  C   UNL     1      -1.813  12.489  22.036  0.00  0.00    +0.000 A 
ATOM     12  C   UNL     1      -1.145  11.822  23.068  0.00  0.00    +0.000 A 
ATOM     13  N   UNL     1      -0.428  10.666  22.947  0.00  0.00    +0.000 NA
ATOM     14  N   UNL     1       1.568   7.292  20.421  0.00  0.00    +0.000 NA
ATOM     15  C   UNL     1       2.230   6.968  19.287  0.00  0.00    +0.000 A 
ATOM     16  N   UNL     1       2.712   5.703  18.923  0.00  0.00    +0.000 N 
ATOM     17  H   UNL     1       0.733   8.562  22.444  0.00  0.00    +0.000 HD
ENDROOT
BRANCH  11  18
ATOM     18  N   UNL     1      -2.681  13.636  22.215  0.00  0.00    +0.000 N 
ATOM     19  C   UNL     1      -2.131  15.007  21.881  0.00  0.00    +0.000 C 
ATOM     20  C   UNL     1      -2.101  16.158  22.961  0.00  0.00    +0.000 C 
ATOM     21  C   UNL     1      -1.345  15.985  24.321  0.00  0.00    +0.000 C 
ATOM     22  C   UNL     1      -2.465  15.614  25.378  0.00  0.00    +0.000 C 
ATOM     23  C   UNL     1      -3.434  15.094  24.367  0.00  0.00    +0.000 C 
ATOM     24  C   UNL     1      -4.548  14.209  23.941  0.00  0.00    +0.000 C 
ATOM     25  C   UNL     1      -4.029  13.412  22.682  0.00  0.00    +0.000 C 
ATOM     26  O   UNL     1      -4.733  12.492  22.247  0.00  0.00    +0.000 OA
ATOM     27  N   UNL     1      -3.468  16.219  23.426  0.00  0.00    +0.000 NA
ATOM     28  H   UNL     1      -3.639  17.093  23.927  0.00  0.00    +0.000 HD
ENDBRANCH  11  18
BRANCH  16  29
ATOM     29  C   UNL     1       2.580   4.536  19.745  0.00  0.00    +0.000 A 
ATOM     30  C   UNL     1       1.323   4.163  20.248  0.00  0.00    +0.000 A 
ATOM     31  C   UNL     1       1.199   3.076  21.118  0.00  0.00    +0.000 A 
ATOM     32  C   UNL     1       2.328   2.356  21.498  0.00  0.00    +0.000 A 
ATOM     33  C   UNL     1       3.577   2.711  20.993  0.00  0.00    +0.000 A 
ATOM     34  C   UNL     1       3.706   3.793  20.118  0.00  0.00    +0.000 A 
ENDBRANCH  16  29
BRANCH   1  38
ATOM     35  C   UNL     1       5.929   3.726  15.835  0.00  0.00    +0.000 C 
ATOM     36  N   UNL     1       5.353   4.859  16.540  0.00  0.00    +0.000 N 
ATOM     37  C   UNL     1       6.241   5.985  16.787  0.00  0.00    +0.000 C 
ATOM     38  C   UNL     1       4.009   4.751  16.938  0.00  0.00    +0.000 C 
ATOM     39  O   UNL     1       3.363   3.749  16.638  0.00  0.00    +0.000 OA
ENDBRANCH   1  38
TORSDOF 3
ENDMDL
MODEL 2
REMARK VINA RESULT:      -9.2      1.270      2.290
REMARK  Name = 
REMARK  5 active torsions:
REMARK  status: ('A' for Active; 'I' for Inactive)
REMARK    1  A    between atoms: C_1  and  N_2
REMARK    2  A    between atoms: N_2  and  C_3
REMARK    3  A    between atoms: C_4  and  C_6
REMARK    4  A    between atoms: C_16  and  N_17
REMARK    5  A    between atoms: N_31  and  C_32
REMARK                            x       y       z     vdW  Elec       q    Type
REMARK                         _______ _______ _______ _____ _____    ______ ____
ROOT
ATOM      1  C   UNL     1       3.382   6.060  17.812  0.00  0.00    +0.000 A 
ATOM      2  C   UNL     1       3.220   7.379  17.406  0.00  0.00    +0.000 A 
ATOM      3  C   UNL     1       2.542   8.084  18.409  0.00  0.00    +0.000 A 
ATOM      4  C   UNL     1       2.178   9.403  18.609  0.00  0.00    +0.000 A 
ATOM      5  N   UNL     1       1.457   9.727  19.692  0.00  0.00    +0.000 NA
ATOM      6  C   UNL     1       1.136   8.780  20.596  0.00  0.00    +0.000 A 
ATOM      7  N   UNL     1       0.333   9.142  21.674  0.00  0.00    +0.000 N 
ATOM      8  C   UNL     1      -0.406  10.315  21.809  0.00  0.00    +0.000 A 
ATOM      9  C   UNL     1      -1.043  10.890  20.713  0.00  0.00    +0.000 A 
ATOM     10  C   UNL     1      -1.820  12.037  20.868  0.00  0.00    +0.000 A 
ATOM     11  C   UNL     1      -1.965  12.631  22.116  0.00  0.00    +0.000 A 
ATOM     12  C   UNL     1      -1.273  11.991  23.150  0.00  0.00    +0.000 A 
ATOM     13  N   UNL     1      -0.529  10.852  23.035  0.00  0.00    +0.000 NA
ATOM     14  N   UNL     1       1.527   7.499  20.529  0.00  0.00    +0.000 NA
ATOM     15  C   UNL     1       2.189   7.180  19.394  0.00  0.00    +0.000 A 
ATOM     16  N   UNL     1       2.698   5.923  19.038  0.00  0.00    +0.000 N 
ATOM     17  H   UNL     1       0.677   8.771  22.545  0.00  0.00    +0.000 HD
ENDROOT
BRANCH  11  18
ATOM     18  N   UNL     1      -2.859  13.759  22.290  0.00  0.00    +0.000 N 
ATOM     19  C   UNL     1      -4.120  13.552  23.105  0.00  0.00    +0.000 C 
ATOM     20  C   UNL     1      -5.543  13.837  22.486  0.00  0.00    +0.000 C 
ATOM     21  C   UNL     1      -6.038  13.102  21.195  0.00  0.00    +0.000 C 
ATOM     22  C   UNL     1      -5.797  14.129  20.012  0.00  0.00    +0.000 C 
ATOM     23  C   UNL     1      -4.744  14.910  20.727  0.00  0.00    +0.000 C 
ATOM     24  C   UNL     1      -3.527  15.760  20.761  0.00  0.00    +0.000 C 
ATOM     25  C   UNL     1      -2.493  15.024  21.699  0.00  0.00    +0.000 C 
ATOM     26  O   UNL     1      -1.339  15.468  21.752  0.00  0.00    +0.000 OA
ATOM     27  N   UNL     1      -5.432  15.191  21.993  0.00  0.00    +0.000 NA
ATOM     28  H   UNL     1      -6.356  15.586  21.812  0.00  0.00    +0.000 HD
ENDBRANCH  11  18
BRANCH  16  29
ATOM     29  C   UNL     1       2.600   4.761  19.873  0.00  0.00    +0.000 A 
ATOM     30  C   UNL     1       3.719   3.935  20.070  0.00  0.00    +0.000 A 
ATOM     31  C   UNL     1       3.610   2.756  20.813  0.00  0.00    +0.000 A 
ATOM     32  C   UNL     1       2.384   2.389  21.361  0.00  0.00    +0.000 A 
ATOM     33  C   UNL     1       1.273   3.210  21.183  0.00  0.00    +0.000 A 
ATOM     34  C   UNL     1       1.377   4.393  20.445  0.00  0.00    +0.000 A 
ENDBRANCH  16  29
BRANCH   1  38
ATOM     35  C   UNL     1       5.964   3.932  16.052  0.00  0.00    +0.000 C 
ATOM     36  N   UNL     1       5.374   5.059  16.754  0.00  0.00    +0.000 N 
ATOM     37  C   UNL     1       6.276   6.147  17.103  0.00  0.00    +0.000 C 
ATOM     38  C   UNL     1       4.003   4.982  17.053  0.00  0.00    +0.000 C 
ATOM     39  O   UNL     1       3.350   4.011  16.674  0.00  0.00    +0.000 OA
ENDBRANCH   1  38
TORSDOF 3
ENDMDL
MODEL 3
REMARK VINA RESULT:      -8.6      1.951     11.329
REMARK  Name = 
REMARK  5 active torsions:
REMARK  status: ('A' for Active; 'I' for Inactive)
REMARK    1  A    between atoms: C_1  and  N_2
REMARK    2  A    between atoms: N_2  and  C_3
REMARK    3  A    between atoms: C_4  and  C_6
REMARK    4  A    between atoms: C_16  and  N_17
REMARK    5  A    between atoms: N_31  and  C_32
REMARK                            x       y       z     vdW  Elec       q    Type
REMARK                         _______ _______ _______ _____ _____    ______ ____
ROOT
ATOM      1  C   UNL     1      -2.841  12.613  22.492  0.00  0.00    +0.000 A 
ATOM      2  C   UNL     1      -1.702  12.097  23.097  0.00  0.00    +0.000 A 
ATOM      3  C   UNL     1      -0.931  11.439  22.129  0.00  0.00    +0.000 A 
ATOM      4  C   UNL     1       0.305  10.821  22.110  0.00  0.00    +0.000 A 
ATOM      5  N   UNL     1       0.722  10.220  20.985  0.00  0.00    +0.000 NA
ATOM      6  C   UNL     1      -0.042  10.264  19.875  0.00  0.00    +0.000 A 
ATOM      7  N   UNL     1       0.393   9.576  18.746  0.00  0.00    +0.000 N 
ATOM      8  C   UNL     1       1.405   8.620  18.690  0.00  0.00    +0.000 A 
ATOM      9  C   UNL     1       1.588   7.708  19.725  0.00  0.00    +0.000 A 
ATOM     10  C   UNL     1       2.572   6.725  19.636  0.00  0.00    +0.000 A 
ATOM     11  C   UNL     1       3.393   6.643  18.517  0.00  0.00    +0.000 A 
ATOM     12  C   UNL     1       3.144   7.613  17.540  0.00  0.00    +0.000 A 
ATOM     13  N   UNL     1       2.169   8.568  17.585  0.00  0.00    +0.000 NA
ATOM     14  N   UNL     1      -1.207  10.921  19.778  0.00  0.00    +0.000 NA
ATOM     15  C   UNL     1      -1.642  11.455  20.943  0.00  0.00    +0.000 A 
ATOM     16  N   UNL     1      -2.826  12.175  21.151  0.00  0.00    +0.000 N 
ATOM     17  H   UNL     1       0.299  10.125  17.908  0.00  0.00    +0.000 HD
ENDROOT
BRANCH  11  18
ATOM     18  N   UNL     1       4.341   5.555  18.383  0.00  0.00    +0.000 N 
ATOM     19  C   UNL     1       5.522   5.515  19.331  0.00  0.00    +0.000 C 
ATOM     20  C   UNL     1       7.003   5.506  18.786  0.00  0.00    +0.000 C 
ATOM     21  C   UNL     1       7.545   6.653  17.867  0.00  0.00    +0.000 C 
ATOM     22  C   UNL     1       7.458   6.082  16.391  0.00  0.00    +0.000 C 
ATOM     23  C   UNL     1       6.406   5.069  16.703  0.00  0.00    +0.000 C 
ATOM     24  C   UNL     1       5.245   4.217  16.338  0.00  0.00    +0.000 C 
ATOM     25  C   UNL     1       4.100   4.555  17.370  0.00  0.00    +0.000 C 
ATOM     26  O   UNL     1       2.976   4.081  17.166  0.00  0.00    +0.000 OA
ATOM     27  N   UNL     1       7.014   4.398  17.858  0.00  0.00    +0.000 NA
ATOM     28  H   UNL     1       7.972   4.120  17.640  0.00  0.00    +0.000 HD
ENDBRANCH  11  18
BRANCH  16  29
ATOM     29  C   UNL     1      -3.768  12.473  20.111  0.00  0.00    +0.000 A 
ATOM     30  C   UNL     1      -4.709  13.501  20.283  0.00  0.00    +0.000 A 
ATOM     31  C   UNL     1      -5.684  13.741  19.310  0.00  0.00    +0.000 A 
ATOM     32  C   UNL     1      -5.732  12.955  18.163  0.00  0.00    +0.000 A 
ATOM     33  C   UNL     1      -4.794  11.942  17.979  0.00  0.00    +0.000 A 
ATOM     34  C   UNL     1      -3.813  11.701  18.945  0.00  0.00    +0.000 A 
ENDBRANCH  16  29
BRANCH   1  38
ATOM     35  C   UNL     1      -4.981  15.425  23.837  0.00  0.00    +0.000 C 
ATOM     36  N   UNL     1      -3.849  14.739  23.237  0.00  0.00    +0.000 N 
ATOM     37  C   UNL     1      -2.760  15.581  22.764  0.00  0.00    +0.000 C 
ATOM     38  C   UNL     1      -3.924  13.338  23.144  0.00  0.00    +0.000 C 
ATOM     39  O   UNL     1      -4.897  12.747  23.611  0.00  0.00    +0.000 OA
ENDBRANCH   1  38
TORSDOF 3
ENDMDL
MODEL 4
REMARK VINA RESULT:      -8.5      2.237      4.000
REMARK  Name = 
REMARK  5 active torsions:
REMARK  status: ('A' for Active; 'I' for Inactive)
REMARK    1  A    between atoms: C_1  and  N_2
REMARK    2  A    between atoms: N_2  and  C_3
REMARK    3  A    between atoms: C_4  and  C_6
REMARK    4  A    between atoms: C_16  and  N_17
REMARK    5  A    between atoms: N_31  and  C_32
REMARK                            x       y       z     vdW  Elec       q    Type
REMARK                         _______ _______ _______ _____ _____    ______ ____
ROOT
ATOM      1  C   UNL     1       3.243   4.592  19.700  0.00  0.00    +0.000 A 
ATOM      2  C   UNL     1       2.432   5.071  20.721  0.00  0.00    +0.000 A 
ATOM      3  C   UNL     1       1.962   6.343  20.371  0.00  0.00    +0.000 A 
ATOM      4  C   UNL     1       1.083   7.254  20.926  0.00  0.00    +0.000 A 
ATOM      5  N   UNL     1       0.908   8.444  20.332  0.00  0.00    +0.000 NA
ATOM      6  C   UNL     1       1.550   8.722  19.179  0.00  0.00    +0.000 A 
ATOM      7  N   UNL     1       1.393   9.990  18.625  0.00  0.00    +0.000 N 
ATOM      8  C   UNL     1       0.854  11.113  19.250  0.00  0.00    +0.000 A 
ATOM      9  C   UNL     1       1.092  11.367  20.597  0.00  0.00    +0.000 A 
ATOM     10  C   UNL     1       0.588  12.518  21.200  0.00  0.00    +0.000 A 
ATOM     11  C   UNL     1      -0.166  13.429  20.468  0.00  0.00    +0.000 A 
ATOM     12  C   UNL     1      -0.365  13.077  19.129  0.00  0.00    +0.000 A 
ATOM     13  N   UNL     1       0.139  11.973  18.504  0.00  0.00    +0.000 NA
ATOM     14  N   UNL     1       2.345   7.864  18.524  0.00  0.00    +0.000 NA
ATOM     15  C   UNL     1       2.564   6.701  19.178  0.00  0.00    +0.000 A 
ATOM     16  N   UNL     1       3.362   5.630  18.752  0.00  0.00    +0.000 N 
ATOM     17  H   UNL     1       1.228   9.952  17.633  0.00  0.00    +0.000 HD
ENDROOT
BRANCH  11  18
ATOM     18  N   UNL     1      -0.595  14.675  21.071  0.00  0.00    +0.000 N 
ATOM     19  C   UNL     1      -1.173  14.629  22.471  0.00  0.00    +0.000 C 
ATOM     20  C   UNL     1      -2.622  15.178  22.772  0.00  0.00    +0.000 C 
ATOM     21  C   UNL     1      -3.882  14.610  22.036  0.00  0.00    +0.000 C 
ATOM     22  C   UNL     1      -4.198  15.651  20.883  0.00  0.00    +0.000 C 
ATOM     23  C   UNL     1      -2.813  16.206  20.825  0.00  0.00    +0.000 C 
ATOM     24  C   UNL     1      -1.676  16.843  20.112  0.00  0.00    +0.000 C 
ATOM     25  C   UNL     1      -0.431  15.895  20.318  0.00  0.00    +0.000 C 
ATOM     26  O   UNL     1       0.598  16.141  19.677  0.00  0.00    +0.000 OA
ATOM     27  N   UNL     1      -2.590  16.522  22.241  0.00  0.00    +0.000 NA
ATOM     28  H   UNL     1      -3.370  17.072  22.606  0.00  0.00    +0.000 HD
ENDBRANCH  11  18
BRANCH  16  29
ATOM     29  C   UNL     1       4.066   5.612  17.503  0.00  0.00    +0.000 A 
ATOM     30  C   UNL     1       4.098   4.443  16.724  0.00  0.00    +0.000 A 
ATOM     31  C   UNL     1       4.853   4.392  15.549  0.00  0.00    +0.000 A 
ATOM     32  C   UNL     1       5.584   5.505  15.142  0.00  0.00    +0.000 A 
ATOM     33  C   UNL     1       5.547   6.673  15.901  0.00  0.00    +0.000 A 
ATOM     34  C   UNL     1       4.791   6.731  17.074  0.00  0.00    +0.000 A 
ENDBRANCH  16  29
BRANCH   1  38
ATOM     35  C   UNL     1       4.083   0.952  19.118  0.00  0.00    +0.000 C 
ATOM     36  N   UNL     1       3.309   2.180  19.184  0.00  0.00    +0.000 N 
ATOM     37  C   UNL     1       1.936   2.104  18.704  0.00  0.00    +0.000 C 
ATOM     38  C   UNL     1       3.960   3.324  19.676  0.00  0.00    +0.000 C 
ATOM     39  O   UNL     1       5.121   3.240  20.075  0.00  0.00    +0.000 OA
ENDBRANCH   1  38
TORSDOF 3
ENDMDL
MODEL 5
REMARK VINA RESULT:      -8.5      1.176      1.622
REMARK  Name = 
REMARK  5 active torsions:
REMARK  status: ('A' for Active; 'I' for Inactive)
REMARK    1  A    between atoms: C_1  and  N_2
REMARK    2  A    between atoms: N_2  and  C_3
REMARK    3  A    between atoms: C_4  and  C_6
REMARK    4  A    between atoms: C_16  and  N_17
REMARK    5  A    between atoms: N_31  and  C_32
REMARK                            x       y       z     vdW  Elec       q    Type
REMARK                         _______ _______ _______ _____ _____    ______ ____
ROOT
ATOM      1  C   UNL     1       4.036   5.890  17.333  0.00  0.00    +0.000 A 
ATOM      2  C   UNL     1       3.793   7.208  16.967  0.00  0.00    +0.000 A 
ATOM      3  C   UNL     1       3.039   7.828  17.971  0.00  0.00    +0.000 A 
ATOM      4  C   UNL     1       2.577   9.110  18.204  0.00  0.00    +0.000 A 
ATOM      5  N   UNL     1       1.804   9.345  19.276  0.00  0.00    +0.000 NA
ATOM      6  C   UNL     1       1.525   8.346  20.137  0.00  0.00    +0.000 A 
ATOM      7  N   UNL     1       0.668   8.612  21.201  0.00  0.00    +0.000 N 
ATOM      8  C   UNL     1      -0.155   9.726  21.352  0.00  0.00    +0.000 A 
ATOM      9  C   UNL     1      -0.800  10.293  20.257  0.00  0.00    +0.000 A 
ATOM     10  C   UNL     1      -1.660  11.377  20.427  0.00  0.00    +0.000 A 
ATOM     11  C   UNL     1      -1.881  11.915  21.689  0.00  0.00    +0.000 A 
ATOM     12  C   UNL     1      -1.176  11.288  22.722  0.00  0.00    +0.000 A 
ATOM     13  N   UNL     1      -0.351  10.208  22.591  0.00  0.00    +0.000 NA
ATOM     14  N   UNL     1       2.008   7.099  20.039  0.00  0.00    +0.000 NA
ATOM     15  C   UNL     1       2.722   6.867  18.914  0.00  0.00    +0.000 A 
ATOM     16  N   UNL     1       3.329   5.662  18.532  0.00  0.00    +0.000 N 
ATOM     17  H   UNL     1       1.013   8.235  22.069  0.00  0.00    +0.000 HD
ENDROOT
BRANCH  11  18
ATOM     18  N   UNL     1      -2.857  12.971  21.873  0.00  0.00    +0.000 N 
ATOM     19  C   UNL     1      -2.639  13.956  23.004  0.00  0.00    +0.000 C 
ATOM     20  C   UNL     1      -3.729  14.161  24.127  0.00  0.00    +0.000 C 
ATOM     21  C   UNL     1      -4.223  12.971  25.016  0.00  0.00    +0.000 C 
ATOM     22  C   UNL     1      -5.597  12.511  24.373  0.00  0.00    +0.000 C 
ATOM     23  C   UNL     1      -5.305  13.076  23.022  0.00  0.00    +0.000 C 
ATOM     24  C   UNL     1      -5.439  13.093  21.543  0.00  0.00    +0.000 C 
ATOM     25  C   UNL     1      -3.973  13.043  20.961  0.00  0.00    +0.000 C 
ATOM     26  O   UNL     1      -3.838  12.886  19.741  0.00  0.00    +0.000 OA
ATOM     27  N   UNL     1      -4.932  14.449  23.380  0.00  0.00    +0.000 NA
ATOM     28  H   UNL     1      -5.643  14.861  23.987  0.00  0.00    +0.000 HD
ENDBRANCH  11  18
BRANCH  16  29
ATOM     29  C   UNL     1       3.290   4.467  19.325  0.00  0.00    +0.000 A 
ATOM     30  C   UNL     1       2.114   4.107  20.004  0.00  0.00    +0.000 A 
ATOM     31  C   UNL     1       2.093   2.991  20.845  0.00  0.00    +0.000 A 
ATOM     32  C   UNL     1       3.244   2.228  21.019  0.00  0.00    +0.000 A 
ATOM     33  C   UNL     1       4.410   2.570  20.338  0.00  0.00    +0.000 A 
ATOM     34  C   UNL     1       4.436   3.682  19.492  0.00  0.00    +0.000 A 
ENDBRANCH  16  29
BRANCH   1  38
ATOM     35  C   UNL     1       6.827   3.947  15.679  0.00  0.00    +0.000 C 
ATOM     36  N   UNL     1       6.145   5.006  16.405  0.00  0.00    +0.000 N 
ATOM     37  C   UNL     1       6.984   6.075  16.927  0.00  0.00    +0.000 C 
ATOM     38  C   UNL     1       4.753   4.885  16.558  0.00  0.00    +0.000 C 
ATOM     39  O   UNL     1       4.162   3.939  16.040  0.00  0.00    +0.000 OA
ENDBRANCH   1  38
TORSDOF 3
ENDMDL
MODEL 6
REMARK VINA RESULT:      -8.5      1.962      3.639
REMARK  Name = 
REMARK  5 active torsions:
REMARK  status: ('A' for Active; 'I' for Inactive)
REMARK    1  A    between atoms: C_1  and  N_2
REMARK    2  A    between atoms: N_2  and  C_3
REMARK    3  A    between atoms: C_4  and  C_6
REMARK    4  A    between atoms: C_16  and  N_17
REMARK    5  A    between atoms: N_31  and  C_32
REMARK                            x       y       z     vdW  Elec       q    Type
REMARK                         _______ _______ _______ _____ _____    ______ ____
ROOT
ATOM      1  C   UNL     1       3.109   3.972  19.810  0.00  0.00    +0.000 A 
ATOM      2  C   UNL     1       1.916   4.054  20.516  0.00  0.00    +0.000 A 
ATOM      3  C   UNL     1       1.487   5.388  20.532  0.00  0.00    +0.000 A 
ATOM      4  C   UNL     1       0.367   6.055  20.993  0.00  0.00    +0.000 A 
ATOM      5  N   UNL     1       0.313   7.392  20.894  0.00  0.00    +0.000 NA
ATOM      6  C   UNL     1       1.323   8.066  20.308  0.00  0.00    +0.000 A 
ATOM      7  N   UNL     1       1.261   9.456  20.281  0.00  0.00    +0.000 N 
ATOM      8  C   UNL     1       0.402  10.268  21.019  0.00  0.00    +0.000 A 
ATOM      9  C   UNL     1       0.061   9.946  22.329  0.00  0.00    +0.000 A 
ATOM     10  C   UNL     1      -0.760  10.790  23.074  0.00  0.00    +0.000 A 
ATOM     11  C   UNL     1      -1.260  11.964  22.519  0.00  0.00    +0.000 A 
ATOM     12  C   UNL     1      -0.875  12.191  21.193  0.00  0.00    +0.000 A 
ATOM     13  N   UNL     1      -0.050  11.398  20.449  0.00  0.00    +0.000 NA
ATOM     14  N   UNL     1       2.399   7.492  19.751  0.00  0.00    +0.000 NA
ATOM     15  C   UNL     1       2.468   6.152  19.928  0.00  0.00    +0.000 A 
ATOM     16  N   UNL     1       3.479   5.292  19.478  0.00  0.00    +0.000 N 
ATOM     17  H   UNL     1       1.505   9.829  19.378  0.00  0.00    +0.000 HD
ENDROOT
BRANCH  11  18
ATOM     18  N   UNL     1      -2.023  12.890  23.332  0.00  0.00    +0.000 N 
ATOM     19  C   UNL     1      -3.252  12.367  24.048  0.00  0.00    +0.000 C 
ATOM     20  C   UNL     1      -4.671  13.013  23.806  0.00  0.00    +0.000 C 
ATOM     21  C   UNL     1      -5.308  13.082  22.378  0.00  0.00    +0.000 C 
ATOM     22  C   UNL     1      -5.030  14.556  21.866  0.00  0.00    +0.000 C 
ATOM     23  C   UNL     1      -3.865  14.791  22.770  0.00  0.00    +0.000 C 
ATOM     24  C   UNL     1      -2.568  15.429  23.111  0.00  0.00    +0.000 C 
ATOM     25  C   UNL     1      -1.564  14.254  23.435  0.00  0.00    +0.000 C 
ATOM     26  O   UNL     1      -0.370  14.538  23.592  0.00  0.00    +0.000 OA
ATOM     27  N   UNL     1      -4.450  14.418  24.064  0.00  0.00    +0.000 NA
ATOM     28  H   UNL     1      -5.338  14.903  24.202  0.00  0.00    +0.000 HD
ENDBRANCH  11  18
BRANCH  16  29
ATOM     29  C   UNL     1       4.616   5.730  18.721  0.00  0.00    +0.000 A 
ATOM     30  C   UNL     1       4.448   6.244  17.425  0.00  0.00    +0.000 A 
ATOM     31  C   UNL     1       5.557   6.594  16.650  0.00  0.00    +0.000 A 
ATOM     32  C   UNL     1       6.842   6.430  17.159  0.00  0.00    +0.000 A 
ATOM     33  C   UNL     1       7.018   5.934  18.449  0.00  0.00    +0.000 A 
ATOM     34  C   UNL     1       5.912   5.587  19.230  0.00  0.00    +0.000 A 
ENDBRANCH  16  29
BRANCH   1  38
ATOM     35  C   UNL     1       4.459   0.789  18.279  0.00  0.00    +0.000 C 
ATOM     36  N   UNL     1       3.593   1.935  18.504  0.00  0.00    +0.000 N 
ATOM     37  C   UNL     1       2.495   2.110  17.564  0.00  0.00    +0.000 C 
ATOM     38  C   UNL     1       3.911   2.776  19.584  0.00  0.00    +0.000 C 
ATOM     39  O   UNL     1       4.856   2.494  20.319  0.00  0.00    +0.000 OA
ENDBRANCH   1  38
TORSDOF 3
ENDMDL
MODEL 7
REMARK VINA RESULT:      -8.4      2.331      3.966
REMARK  Name = 
REMARK  5 active torsions:
REMARK  status: ('A' for Active; 'I' for Inactive)
REMARK    1  A    between atoms: C_1  and  N_2
REMARK    2  A    between atoms: N_2  and  C_3
REMARK    3  A    between atoms: C_4  and  C_6
REMARK    4  A    between atoms: C_16  and  N_17
REMARK    5  A    between atoms: N_31  and  C_32
REMARK                            x       y       z     vdW  Elec       q    Type
REMARK                         _______ _______ _______ _____ _____    ______ ____
ROOT
ATOM      1  C   UNL     1       3.246   4.646  19.685  0.00  0.00    +0.000 A 
ATOM      2  C   UNL     1       2.439   5.144  20.700  0.00  0.00    +0.000 A 
ATOM      3  C   UNL     1       1.991   6.422  20.340  0.00  0.00    +0.000 A 
ATOM      4  C   UNL     1       1.124   7.349  20.886  0.00  0.00    +0.000 A 
ATOM      5  N   UNL     1       0.971   8.539  20.284  0.00  0.00    +0.000 NA
ATOM      6  C   UNL     1       1.623   8.800  19.133  0.00  0.00    +0.000 A 
ATOM      7  N   UNL     1       1.489  10.066  18.571  0.00  0.00    +0.000 N 
ATOM      8  C   UNL     1       0.966  11.202  19.186  0.00  0.00    +0.000 A 
ATOM      9  C   UNL     1       1.201  11.459  20.533  0.00  0.00    +0.000 A 
ATOM     10  C   UNL     1       0.714  12.622  21.127  0.00  0.00    +0.000 A 
ATOM     11  C   UNL     1      -0.023  13.541  20.386  0.00  0.00    +0.000 A 
ATOM     12  C   UNL     1      -0.220  13.185  19.048  0.00  0.00    +0.000 A 
ATOM     13  N   UNL     1       0.269  12.069  18.432  0.00  0.00    +0.000 NA
ATOM     14  N   UNL     1       2.407   7.925  18.486  0.00  0.00    +0.000 NA
ATOM     15  C   UNL     1       2.605   6.762  19.148  0.00  0.00    +0.000 A 
ATOM     16  N   UNL     1       3.386   5.676  18.732  0.00  0.00    +0.000 N 
ATOM     17  H   UNL     1       1.328  10.025  17.578  0.00  0.00    +0.000 HD
ENDROOT
BRANCH  11  18
ATOM     18  N   UNL     1      -0.434  14.797  20.980  0.00  0.00    +0.000 N 
ATOM     19  C   UNL     1      -0.099  16.079  20.244  0.00  0.00    +0.000 C 
ATOM     20  C   UNL     1       0.752  17.215  20.934  0.00  0.00    +0.000 C 
ATOM     21  C   UNL     1       2.192  16.939  21.485  0.00  0.00    +0.000 C 
ATOM     22  C   UNL     1       2.009  16.729  23.045  0.00  0.00    +0.000 C 
ATOM     23  C   UNL     1       0.568  16.348  22.959  0.00  0.00    +0.000 C 
ATOM     24  C   UNL     1      -0.637  15.626  23.443  0.00  0.00    +0.000 C 
ATOM     25  C   UNL     1      -1.159  14.763  22.228  0.00  0.00    +0.000 C 
ATOM     26  O   UNL     1      -2.066  13.949  22.442  0.00  0.00    +0.000 OA
ATOM     27  N   UNL     1       0.042  17.466  22.168  0.00  0.00    +0.000 NA
ATOM     28  H   UNL     1       0.334  18.356  22.577  0.00  0.00    +0.000 HD
ENDBRANCH  11  18
BRANCH  16  29
ATOM     29  C   UNL     1       4.097   5.640  17.486  0.00  0.00    +0.000 A 
ATOM     30  C   UNL     1       4.092   4.474  16.703  0.00  0.00    +0.000 A 
ATOM     31  C   UNL     1       4.851   4.402  15.531  0.00  0.00    +0.000 A 
ATOM     32  C   UNL     1       5.622   5.490  15.133  0.00  0.00    +0.000 A 
ATOM     33  C   UNL     1       5.621   6.655  15.897  0.00  0.00    +0.000 A 
ATOM     34  C   UNL     1       4.861   6.734  17.067  0.00  0.00    +0.000 A 
ENDBRANCH  16  29
BRANCH   1  38
ATOM     35  C   UNL     1       4.022   0.984  19.148  0.00  0.00    +0.000 C 
ATOM     36  N   UNL     1       3.268   2.225  19.204  0.00  0.00    +0.000 N 
ATOM     37  C   UNL     1       1.890   2.165  18.740  0.00  0.00    +0.000 C 
ATOM     38  C   UNL     1       3.943   3.366  19.672  0.00  0.00    +0.000 C 
ATOM     39  O   UNL     1       5.107   3.269  20.060  0.00  0.00    +0.000 OA
ENDBRANCH   1  38
TORSDOF 3
ENDMDL
MODEL 8
REMARK VINA RESULT:      -8.4      2.811      4.497
REMARK  Name = 
REMARK  5 active torsions:
REMARK  status: ('A' for Active; 'I' for Inactive)
REMARK    1  A    between atoms: C_1  and  N_2
REMARK    2  A    between atoms: N_2  and  C_3
REMARK    3  A    between atoms: C_4  and  C_6
REMARK    4  A    between atoms: C_16  and  N_17
REMARK    5  A    between atoms: N_31  and  C_32
REMARK                            x       y       z     vdW  Elec       q    Type
REMARK                         _______ _______ _______ _____ _____    ______ ____
ROOT
ATOM      1  C   UNL     1       3.168   4.706  19.598  0.00  0.00    +0.000 A 
ATOM      2  C   UNL     1       2.380   5.248  20.606  0.00  0.00    +0.000 A 
ATOM      3  C   UNL     1       1.989   6.540  20.231  0.00  0.00    +0.000 A 
ATOM      4  C   UNL     1       1.161   7.510  20.766  0.00  0.00    +0.000 A 
ATOM      5  N   UNL     1       1.060   8.699  20.151  0.00  0.00    +0.000 NA
ATOM      6  C   UNL     1       1.726   8.920  19.000  0.00  0.00    +0.000 A 
ATOM      7  N   UNL     1       1.648  10.186  18.426  0.00  0.00    +0.000 N 
ATOM      8  C   UNL     1       1.172  11.349  19.028  0.00  0.00    +0.000 A 
ATOM      9  C   UNL     1       1.415  11.609  20.374  0.00  0.00    +0.000 A 
ATOM     10  C   UNL     1       0.976  12.798  20.954  0.00  0.00    +0.000 A 
ATOM     11  C   UNL     1       0.282  13.739  20.202  0.00  0.00    +0.000 A 
ATOM     12  C   UNL     1       0.073  13.379  18.867  0.00  0.00    +0.000 A 
ATOM     13  N   UNL     1       0.515  12.237  18.263  0.00  0.00    +0.000 NA
ATOM     14  N   UNL     1       2.473   8.006  18.364  0.00  0.00    +0.000 NA
ATOM     15  C   UNL     1       2.619   6.843  19.039  0.00  0.00    +0.000 A 
ATOM     16  N   UNL     1       3.355   5.720  18.635  0.00  0.00    +0.000 N 
ATOM     17  H   UNL     1       1.488  10.142  17.433  0.00  0.00    +0.000 HD
ENDROOT
BRANCH  11  18
ATOM     18  N   UNL     1      -0.077  15.018  20.783  0.00  0.00    +0.000 N 
ATOM     19  C   UNL     1      -1.456  15.573  20.491  0.00  0.00    +0.000 C 
ATOM     20  C   UNL     1      -1.638  16.990  19.819  0.00  0.00    +0.000 C 
ATOM     21  C   UNL     1      -1.010  17.321  18.424  0.00  0.00    +0.000 C 
ATOM     22  C   UNL     1       0.318  18.125  18.744  0.00  0.00    +0.000 C 
ATOM     23  C   UNL     1       0.467  17.587  20.129  0.00  0.00    +0.000 C 
ATOM     24  C   UNL     1       1.276  17.183  21.308  0.00  0.00    +0.000 C 
ATOM     25  C   UNL     1       0.887  15.686  21.624  0.00  0.00    +0.000 C 
ATOM     26  O   UNL     1       1.554  15.080  22.472  0.00  0.00    +0.000 OA
ATOM     27  N   UNL     1      -0.868  17.868  20.670  0.00  0.00    +0.000 NA
ATOM     28  H   UNL     1      -1.119  18.844  20.502  0.00  0.00    +0.000 HD
ENDBRANCH  11  18
BRANCH  16  29
ATOM     29  C   UNL     1       4.066   5.641  17.392  0.00  0.00    +0.000 A 
ATOM     30  C   UNL     1       4.163   4.417  16.708  0.00  0.00    +0.000 A 
ATOM     31  C   UNL     1       4.925   4.314  15.541  0.00  0.00    +0.000 A 
ATOM     32  C   UNL     1       5.600   5.427  15.049  0.00  0.00    +0.000 A 
ATOM     33  C   UNL     1       5.498   6.648  15.713  0.00  0.00    +0.000 A 
ATOM     34  C   UNL     1       4.733   6.759  16.877  0.00  0.00    +0.000 A 
ENDBRANCH  16  29
BRANCH   1  38
ATOM     35  C   UNL     1       3.794   1.012  19.086  0.00  0.00    +0.000 C 
ATOM     36  N   UNL     1       3.093   2.285  19.126  0.00  0.00    +0.000 N 
ATOM     37  C   UNL     1       1.719   2.281  18.644  0.00  0.00    +0.000 C 
ATOM     38  C   UNL     1       3.810   3.397  19.599  0.00  0.00    +0.000 C 
ATOM     39  O   UNL     1       4.963   3.253  20.003  0.00  0.00    +0.000 OA
ENDBRANCH   1  38
TORSDOF 3
ENDMDL
MODEL 9
REMARK VINA RESULT:      -8.4      0.892      1.267
REMARK  Name = 
REMARK  5 active torsions:
REMARK  status: ('A' for Active; 'I' for Inactive)
REMARK    1  A    between atoms: C_1  and  N_2
REMARK    2  A    between atoms: N_2  and  C_3
REMARK    3  A    between atoms: C_4  and  C_6
REMARK    4  A    between atoms: C_16  and  N_17
REMARK    5  A    between atoms: N_31  and  C_32
REMARK                            x       y       z     vdW  Elec       q    Type
REMARK                         _______ _______ _______ _____ _____    ______ ____
ROOT
ATOM      1  C   UNL     1       3.934   5.974  17.320  0.00  0.00    +0.000 A 
ATOM      2  C   UNL     1       3.766   7.331  17.075  0.00  0.00    +0.000 A 
ATOM      3  C   UNL     1       3.014   7.892  18.115  0.00  0.00    +0.000 A 
ATOM      4  C   UNL     1       2.609   9.169  18.458  0.00  0.00    +0.000 A 
ATOM      5  N   UNL     1       1.818   9.341  19.528  0.00  0.00    +0.000 NA
ATOM      6  C   UNL     1       1.465   8.282  20.283  0.00  0.00    +0.000 A 
ATOM      7  N   UNL     1       0.592   8.490  21.347  0.00  0.00    +0.000 N 
ATOM      8  C   UNL     1      -0.180   9.626  21.583  0.00  0.00    +0.000 A 
ATOM      9  C   UNL     1      -0.765  10.326  20.532  0.00  0.00    +0.000 A 
ATOM     10  C   UNL     1      -1.575  11.431  20.783  0.00  0.00    +0.000 A 
ATOM     11  C   UNL     1      -1.806  11.860  22.085  0.00  0.00    +0.000 A 
ATOM     12  C   UNL     1      -1.162  11.103  23.070  0.00  0.00    +0.000 A 
ATOM     13  N   UNL     1      -0.388   9.999  22.858  0.00  0.00    +0.000 NA
ATOM     14  N   UNL     1       1.889   7.026  20.078  0.00  0.00    +0.000 NA
ATOM     15  C   UNL     1       2.624   6.865  18.954  0.00  0.00    +0.000 A 
ATOM     16  N   UNL     1       3.182   5.671  18.474  0.00  0.00    +0.000 N 
ATOM     17  H   UNL     1       0.893   8.017  22.183  0.00  0.00    +0.000 HD
ENDROOT
BRANCH  11  18
ATOM     18  N   UNL     1      -2.735  12.942  22.346  0.00  0.00    +0.000 N 
ATOM     19  C   UNL     1      -2.873  14.031  21.301  0.00  0.00    +0.000 C 
ATOM     20  C   UNL     1      -2.609  15.544  21.663  0.00  0.00    +0.000 C 
ATOM     21  C   UNL     1      -1.233  16.020  22.240  0.00  0.00    +0.000 C 
ATOM     22  C   UNL     1      -1.454  16.135  23.805  0.00  0.00    +0.000 C 
ATOM     23  C   UNL     1      -2.611  15.192  23.844  0.00  0.00    +0.000 C 
ATOM     24  C   UNL     1      -3.468  14.182  24.517  0.00  0.00    +0.000 C 
ATOM     25  C   UNL     1      -3.493  12.917  23.573  0.00  0.00    +0.000 C 
ATOM     26  O   UNL     1      -4.017  11.882  24.004  0.00  0.00    +0.000 OA
ATOM     27  N   UNL     1      -3.466  15.773  22.803  0.00  0.00    +0.000 NA
ATOM     28  H   UNL     1      -3.590  16.774  22.966  0.00  0.00    +0.000 HD
ENDBRANCH  11  18
BRANCH  16  29
ATOM     29  C   UNL     1       3.062   4.411  19.148  0.00  0.00    +0.000 A 
ATOM     30  C   UNL     1       4.195   3.793  19.702  0.00  0.00    +0.000 A 
ATOM     31  C   UNL     1       4.101   2.527  20.285  0.00  0.00    +0.000 A 
ATOM     32  C   UNL     1       2.877   1.864  20.316  0.00  0.00    +0.000 A 
ATOM     33  C   UNL     1       1.745   2.475  19.782  0.00  0.00    +0.000 A 
ATOM     34  C   UNL     1       1.832   3.744  19.203  0.00  0.00    +0.000 A 
ENDBRANCH  16  29
BRANCH   1  38
ATOM     35  C   UNL     1       6.673   4.050  15.563  0.00  0.00    +0.000 C 
ATOM     36  N   UNL     1       6.024   5.069  16.370  0.00  0.00    +0.000 N 
ATOM     37  C   UNL     1       6.899   6.035  17.018  0.00  0.00    +0.000 C 
ATOM     38  C   UNL     1       4.623   5.011  16.470  0.00  0.00    +0.000 C 
ATOM     39  O   UNL     1       4.002   4.153  15.845  0.00  0.00    +0.000 OA
ENDBRANCH   1  38
TORSDOF 3
ENDMDL
