MODEL 1
REMARK VINA RESULT:      -7.5      0.000      0.000
REMARK  Name = 
REMARK  20 active torsions:
REMARK  status: ('A' for Active; 'I' for Inactive)
REMARK    1  A    between atoms: C_1  and  C_2
REMARK    2  A    between atoms: C_2  and  C_3
REMARK    3  A    between atoms: C_3  and  C_4
REMARK    4  A    between atoms: C_3  and  C_5
REMARK    5  A    between atoms: C_5  and  N_6
REMARK    6  A    between atoms: C_5  and  C_15
REMARK    7  A    between atoms: C_7  and  C_9
REMARK    8  A    between atoms: C_9  and  N_10
REMARK    9  A    between atoms: C_9  and  C_11
REMARK   10  A    between atoms: C_11  and  C_12
REMARK   11  A    between atoms: C_12  and  C_13
REMARK   12  A    between atoms: C_12  and  C_14
REMARK   13  A    between atoms: N_17  and  C_18
REMARK   14  A    between atoms: C_18  and  C_19
REMARK   15  A    between atoms: C_18  and  C_31
REMARK   16  A    between atoms: C_19  and  C_20
REMARK   17  A    between atoms: C_20  and  C_21
REMARK   18  A    between atoms: C_21  and  O_23
REMARK   19  A    between atoms: O_23  and  C_24
REMARK   20  A    between atoms: C_24  and  C_25
REMARK                            x       y       z     vdW  Elec       q    Type
REMARK                         _______ _______ _______ _____ _____    ______ ____
ROOT
ATOM      1  C   UNL     1       7.083   5.081  16.153  0.00  0.00    +0.000 C 
ATOM      2  O   UNL     1       7.934   4.268  16.509  0.00  0.00    +0.000 OA
ATOM      3  N   UNL     1       7.017   6.351  16.691  0.00  0.00    +0.000 N 
ATOM      4  H   UNL     1       6.211   6.941  16.501  0.00  0.00    +0.000 HD
ENDROOT
BRANCH   3   5
ATOM      5  C   UNL     1       7.892   6.785  17.790  0.00  0.00    +0.000 C 
BRANCH   5   6
ATOM      6  C   UNL     1       7.447   6.035  19.068  0.00  0.00    +0.000 C 
ATOM      7  N   UNL     1       8.436   5.591  19.902  0.00  0.00    +0.000 N 
ATOM      8  O   UNL     1       6.265   5.860  19.362  0.00  0.00    +0.000 OA
ATOM      9  H   UNL     1       9.424   5.658  19.701  0.00  0.00    +0.000 HD
ATOM     10  H   UNL     1       8.165   5.156  20.775  0.00  0.00    +0.000 HD
ENDBRANCH   5   6
BRANCH   5  11
ATOM     11  C   UNL     1       7.812   8.314  17.939  0.00  0.00    +0.000 C 
BRANCH  11  12
ATOM     12  C   UNL     1       8.906   8.894  18.835  0.00  0.00    +0.000 C 
BRANCH  12  13
ATOM     13  C   UNL     1       9.018  10.390  18.766  0.00  0.00    +0.000 C 
ATOM     14  O   UNL     1       8.608  11.096  17.867  0.00  0.00    +0.000 OA
BRANCH  13  15
ATOM     15  O   UNL     1       9.647  10.822  19.906  0.00  0.00    +0.000 OA
BRANCH  15  16
ATOM     16  C   UNL     1       9.846  12.233  20.031  0.00  0.00    +0.000 C 
BRANCH  16  17
ATOM     17  C   UNL     1       9.213  12.697  21.319  0.00  0.00    +0.000 A 
ATOM     18  C   UNL     1       8.576  11.787  22.175  0.00  0.00    +0.000 A 
ATOM     19  C   UNL     1       8.024  12.217  23.382  0.00  0.00    +0.000 A 
ATOM     20  C   UNL     1       8.091  13.562  23.740  0.00  0.00    +0.000 A 
ATOM     21  C   UNL     1       8.699  14.481  22.886  0.00  0.00    +0.000 A 
ATOM     22  C   UNL     1       9.251  14.052  21.678  0.00  0.00    +0.000 A 
ENDBRANCH  16  17
ENDBRANCH  15  16
ENDBRANCH  13  15
ENDBRANCH  12  13
ENDBRANCH  11  12
ENDBRANCH   5  11
ENDBRANCH   3   5
BRANCH   1  23
ATOM     23  C   UNL     1       6.011   4.743  15.080  0.00  0.00    +0.000 C 
BRANCH  23  24
ATOM     24  N   UNL     1       4.989   3.939  15.750  0.00  0.00    +0.000 N 
ATOM     25  C   UNL     1       4.136   4.474  16.698  0.00  0.00    +0.000 C 
ATOM     26  O   UNL     1       4.141   5.655  17.021  0.00  0.00    +0.000 OA
ATOM     27  H   UNL     1       4.994   2.936  15.610  0.00  0.00    +0.000 HD
BRANCH  25  28
ATOM     28  C   UNL     1       3.257   3.414  17.394  0.00  0.00    +0.000 C 
BRANCH  28  29
ATOM     29  N   UNL     1       4.112   2.709  18.376  0.00  0.00    +0.000 NA
ATOM     30  H   UNL     1       3.624   2.721  19.276  0.00  0.00    +0.000 HD
ATOM     31  H   UNL     1       4.957   3.258  18.536  0.00  0.00    +0.000 HD
ENDBRANCH  28  29
BRANCH  28  32
ATOM     32  C   UNL     1       2.049   4.033  18.114  0.00  0.00    +0.000 C 
BRANCH  32  33
ATOM     33  C   UNL     1       1.606   3.290  19.394  0.00  0.00    +0.000 C 
ATOM     34  C   UNL     1       1.023   4.226  20.454  0.00  0.00    +0.000 C 
ATOM     35  C   UNL     1       0.576   2.214  19.036  0.00  0.00    +0.000 C 
ENDBRANCH  32  33
ENDBRANCH  28  32
ENDBRANCH  25  28
ENDBRANCH  23  24
BRANCH  23  36
ATOM     36  C   UNL     1       6.616   4.024  13.840  0.00  0.00    +0.000 C 
ATOM     37  C   UNL     1       7.497   5.001  13.049  0.00  0.00    +0.000 C 
BRANCH  36  39
ATOM     38  C   UNL     1       6.024   2.999  11.550  0.00  0.00    +0.000 C 
ATOM     39  C   UNL     1       5.523   3.419  12.926  0.00  0.00    +0.000 C 
ENDBRANCH  36  39
ENDBRANCH  23  36
ENDBRANCH   1  23
TORSDOF 16
ENDMDL
MODEL 2
REMARK VINA RESULT:      -7.3      1.140      1.534
REMARK  Name = 
REMARK  20 active torsions:
REMARK  status: ('A' for Active; 'I' for Inactive)
REMARK    1  A    between atoms: C_1  and  C_2
REMARK    2  A    between atoms: C_2  and  C_3
REMARK    3  A    between atoms: C_3  and  C_4
REMARK    4  A    between atoms: C_3  and  C_5
REMARK    5  A    between atoms: C_5  and  N_6
REMARK    6  A    between atoms: C_5  and  C_15
REMARK    7  A    between atoms: C_7  and  C_9
REMARK    8  A    between atoms: C_9  and  N_10
REMARK    9  A    between atoms: C_9  and  C_11
REMARK   10  A    between atoms: C_11  and  C_12
REMARK   11  A    between atoms: C_12  and  C_13
REMARK   12  A    between atoms: C_12  and  C_14
REMARK   13  A    between atoms: N_17  and  C_18
REMARK   14  A    between atoms: C_18  and  C_19
REMARK   15  A    between atoms: C_18  and  C_31
REMARK   16  A    between atoms: C_19  and  C_20
REMARK   17  A    between atoms: C_20  and  C_21
REMARK   18  A    between atoms: C_21  and  O_23
REMARK   19  A    between atoms: O_23  and  C_24
REMARK   20  A    between atoms: C_24  and  C_25
REMARK                            x       y       z     vdW  Elec       q    Type
REMARK                         _______ _______ _______ _____ _____    ______ ____
ROOT
ATOM      1  C   UNL     1       7.160   5.097  16.719  0.00  0.00    +0.000 C 
ATOM      2  O   UNL     1       7.910   4.140  16.893  0.00  0.00    +0.000 OA
ATOM      3  N   UNL     1       7.248   6.243  17.485  0.00  0.00    +0.000 N 
ATOM      4  H   UNL     1       6.517   6.947  17.431  0.00  0.00    +0.000 HD
ENDROOT
BRANCH   3   5
ATOM      5  C   UNL     1       8.177   6.360  18.618  0.00  0.00    +0.000 C 
BRANCH   5   6
ATOM      6  C   UNL     1       7.628   5.481  19.767  0.00  0.00    +0.000 C 
ATOM      7  N   UNL     1       6.357   4.995  19.623  0.00  0.00    +0.000 N 
ATOM      8  O   UNL     1       8.293   5.188  20.759  0.00  0.00    +0.000 OA
ATOM      9  H   UNL     1       5.739   5.233  18.860  0.00  0.00    +0.000 HD
ATOM     10  H   UNL     1       6.004   4.365  20.332  0.00  0.00    +0.000 HD
ENDBRANCH   5   6
BRANCH   5  11
ATOM     11  C   UNL     1       8.320   7.839  19.018  0.00  0.00    +0.000 C 
BRANCH  11  12
ATOM     12  C   UNL     1       8.185   8.802  17.839  0.00  0.00    +0.000 C 
BRANCH  12  13
ATOM     13  C   UNL     1       8.652  10.198  18.138  0.00  0.00    +0.000 C 
ATOM     14  O   UNL     1       8.334  11.202  17.533  0.00  0.00    +0.000 OA
BRANCH  13  15
ATOM     15  O   UNL     1       9.483  10.143  19.227  0.00  0.00    +0.000 OA
BRANCH  15  16
ATOM     16  C   UNL     1      10.395  11.233  19.391  0.00  0.00    +0.000 C 
BRANCH  16  17
ATOM     17  C   UNL     1       9.918  12.091  20.537  0.00  0.00    +0.000 A 
ATOM     18  C   UNL     1      10.378  13.407  20.689  0.00  0.00    +0.000 A 
ATOM     19  C   UNL     1       9.905  14.207  21.730  0.00  0.00    +0.000 A 
ATOM     20  C   UNL     1       8.979  13.696  22.638  0.00  0.00    +0.000 A 
ATOM     21  C   UNL     1       8.534  12.381  22.512  0.00  0.00    +0.000 A 
ATOM     22  C   UNL     1       9.005  11.581  21.472  0.00  0.00    +0.000 A 
ENDBRANCH  16  17
ENDBRANCH  15  16
ENDBRANCH  13  15
ENDBRANCH  12  13
ENDBRANCH  11  12
ENDBRANCH   5  11
ENDBRANCH   3   5
BRANCH   1  23
ATOM     23  C   UNL     1       6.047   5.092  15.634  0.00  0.00    +0.000 C 
BRANCH  23  24
ATOM     24  N   UNL     1       4.850   4.534  16.266  0.00  0.00    +0.000 N 
ATOM     25  C   UNL     1       3.999   5.303  17.039  0.00  0.00    +0.000 C 
ATOM     26  O   UNL     1       4.154   6.503  17.224  0.00  0.00    +0.000 OA
ATOM     27  H   UNL     1       4.715   3.531  16.242  0.00  0.00    +0.000 HD
BRANCH  25  28
ATOM     28  C   UNL     1       2.903   4.477  17.742  0.00  0.00    +0.000 C 
BRANCH  28  29
ATOM     29  N   UNL     1       2.679   3.260  16.930  0.00  0.00    +0.000 NA
ATOM     30  H   UNL     1       3.308   3.305  16.123  0.00  0.00    +0.000 HD
ATOM     31  H   UNL     1       1.743   3.296  16.527  0.00  0.00    +0.000 HD
ENDBRANCH  28  29
BRANCH  28  32
ATOM     32  C   UNL     1       3.295   4.076  19.173  0.00  0.00    +0.000 C 
BRANCH  32  33
ATOM     33  C   UNL     1       2.237   3.237  19.925  0.00  0.00    +0.000 C 
ATOM     34  C   UNL     1       2.728   2.743  21.287  0.00  0.00    +0.000 C 
ATOM     35  C   UNL     1       0.960   4.063  20.109  0.00  0.00    +0.000 C 
ENDBRANCH  32  33
ENDBRANCH  28  32
ENDBRANCH  25  28
ENDBRANCH  23  24
BRANCH  23  36
ATOM     36  C   UNL     1       6.464   4.310  14.356  0.00  0.00    +0.000 C 
ATOM     37  C   UNL     1       7.469   5.139  13.543  0.00  0.00    +0.000 C 
BRANCH  36  39
ATOM     38  C   UNL     1       5.611   3.245  12.170  0.00  0.00    +0.000 C 
ATOM     39  C   UNL     1       5.246   3.927  13.482  0.00  0.00    +0.000 C 
ENDBRANCH  36  39
ENDBRANCH  23  36
ENDBRANCH   1  23
TORSDOF 16
ENDMDL
MODEL 3
REMARK VINA RESULT:      -7.2      4.597      6.963
REMARK  Name = 
REMARK  20 active torsions:
REMARK  status: ('A' for Active; 'I' for Inactive)
REMARK    1  A    between atoms: C_1  and  C_2
REMARK    2  A    between atoms: C_2  and  C_3
REMARK    3  A    between atoms: C_3  and  C_4
REMARK    4  A    between atoms: C_3  and  C_5
REMARK    5  A    between atoms: C_5  and  N_6
REMARK    6  A    between atoms: C_5  and  C_15
REMARK    7  A    between atoms: C_7  and  C_9
REMARK    8  A    between atoms: C_9  and  N_10
REMARK    9  A    between atoms: C_9  and  C_11
REMARK   10  A    between atoms: C_11  and  C_12
REMARK   11  A    between atoms: C_12  and  C_13
REMARK   12  A    between atoms: C_12  and  C_14
REMARK   13  A    between atoms: N_17  and  C_18
REMARK   14  A    between atoms: C_18  and  C_19
REMARK   15  A    between atoms: C_18  and  C_31
REMARK   16  A    between atoms: C_19  and  C_20
REMARK   17  A    between atoms: C_20  and  C_21
REMARK   18  A    between atoms: C_21  and  O_23
REMARK   19  A    between atoms: O_23  and  C_24
REMARK   20  A    between atoms: C_24  and  C_25
REMARK                            x       y       z     vdW  Elec       q    Type
REMARK                         _______ _______ _______ _____ _____    ______ ____
ROOT
ATOM      1  C   UNL     1       2.752   5.166  19.094  0.00  0.00    +0.000 C 
ATOM      2  O   UNL     1       2.018   5.006  18.121  0.00  0.00    +0.000 OA
ATOM      3  N   UNL     1       2.686   6.299  19.880  0.00  0.00    +0.000 N 
ATOM      4  H   UNL     1       3.408   6.479  20.572  0.00  0.00    +0.000 HD
ENDROOT
BRANCH   3   5
ATOM      5  C   UNL     1       1.806   7.431  19.553  0.00  0.00    +0.000 C 
BRANCH   5   6
ATOM      6  C   UNL     1       2.415   8.161  18.332  0.00  0.00    +0.000 C 
ATOM      7  N   UNL     1       1.636   9.106  17.724  0.00  0.00    +0.000 N 
ATOM      8  O   UNL     1       3.555   7.944  17.925  0.00  0.00    +0.000 OA
ATOM      9  H   UNL     1       0.677   9.302  17.974  0.00  0.00    +0.000 HD
ATOM     10  H   UNL     1       2.039   9.642  16.965  0.00  0.00    +0.000 HD
ENDBRANCH   5   6
BRANCH   5  11
ATOM     11  C   UNL     1       1.664   8.345  20.782  0.00  0.00    +0.000 C 
BRANCH  11  12
ATOM     12  C   UNL     1       0.252   8.901  20.964  0.00  0.00    +0.000 C 
BRANCH  12  13
ATOM     13  C   UNL     1       0.126   9.879  22.097  0.00  0.00    +0.000 C 
ATOM     14  O   UNL     1      -0.591   9.756  23.070  0.00  0.00    +0.000 OA
BRANCH  13  15
ATOM     15  O   UNL     1       0.976  10.926  21.850  0.00  0.00    +0.000 OA
BRANCH  15  16
ATOM     16  C   UNL     1       0.395  12.100  21.275  0.00  0.00    +0.000 C 
BRANCH  16  17
ATOM     17  C   UNL     1       1.382  12.701  20.306  0.00  0.00    +0.000 A 
ATOM     18  C   UNL     1       1.356  12.358  18.947  0.00  0.00    +0.000 A 
ATOM     19  C   UNL     1       2.248  12.945  18.050  0.00  0.00    +0.000 A 
ATOM     20  C   UNL     1       3.186  13.871  18.503  0.00  0.00    +0.000 A 
ATOM     21  C   UNL     1       3.239  14.202  19.856  0.00  0.00    +0.000 A 
ATOM     22  C   UNL     1       2.348  13.616  20.754  0.00  0.00    +0.000 A 
ENDBRANCH  16  17
ENDBRANCH  15  16
ENDBRANCH  13  15
ENDBRANCH  12  13
ENDBRANCH  11  12
ENDBRANCH   5  11
ENDBRANCH   3   5
BRANCH   1  23
ATOM     23  C   UNL     1       3.816   4.113  19.512  0.00  0.00    +0.000 C 
BRANCH  23  24
ATOM     24  N   UNL     1       4.858   4.143  18.485  0.00  0.00    +0.000 N 
ATOM     25  C   UNL     1       6.098   4.713  18.710  0.00  0.00    +0.000 C 
ATOM     26  O   UNL     1       6.434   5.197  19.783  0.00  0.00    +0.000 OA
ATOM     27  H   UNL     1       4.618   3.856  17.544  0.00  0.00    +0.000 HD
BRANCH  25  28
ATOM     28  C   UNL     1       6.975   4.786  17.443  0.00  0.00    +0.000 C 
BRANCH  28  29
ATOM     29  N   UNL     1       8.269   4.144  17.766  0.00  0.00    +0.000 NA
ATOM     30  H   UNL     1       8.121   3.131  17.771  0.00  0.00    +0.000 HD
ATOM     31  H   UNL     1       8.522   4.370  18.728  0.00  0.00    +0.000 HD
ENDBRANCH  28  29
BRANCH  28  32
ATOM     32  C   UNL     1       6.333   4.074  16.243  0.00  0.00    +0.000 C 
BRANCH  32  33
ATOM     33  C   UNL     1       6.155   4.954  14.985  0.00  0.00    +0.000 C 
ATOM     34  C   UNL     1       5.534   4.195  13.811  0.00  0.00    +0.000 C 
ATOM     35  C   UNL     1       5.289   6.170  15.325  0.00  0.00    +0.000 C 
ENDBRANCH  32  33
ENDBRANCH  28  32
ENDBRANCH  25  28
ENDBRANCH  23  24
BRANCH  23  36
ATOM     36  C   UNL     1       3.209   2.694  19.701  0.00  0.00    +0.000 C 
ATOM     37  C   UNL     1       3.226   1.937  18.365  0.00  0.00    +0.000 C 
BRANCH  36  39
ATOM     38  C   UNL     1       0.705   2.203  19.333  0.00  0.00    +0.000 C 
ATOM     39  C   UNL     1       1.772   2.745  20.274  0.00  0.00    +0.000 C 
ENDBRANCH  36  39
ENDBRANCH  23  36
ENDBRANCH   1  23
TORSDOF 16
ENDMDL
MODEL 4
REMARK VINA RESULT:      -7.2      2.705      7.274
REMARK  Name = 
REMARK  20 active torsions:
REMARK  status: ('A' for Active; 'I' for Inactive)
REMARK    1  A    between atoms: C_1  and  C_2
REMARK    2  A    between atoms: C_2  and  C_3
REMARK    3  A    between atoms: C_3  and  C_4
REMARK    4  A    between atoms: C_3  and  C_5
REMARK    5  A    between atoms: C_5  and  N_6
REMARK    6  A    between atoms: C_5  and  C_15
REMARK    7  A    between atoms: C_7  and  C_9
REMARK    8  A    between atoms: C_9  and  N_10
REMARK    9  A    between atoms: C_9  and  C_11
REMARK   10  A    between atoms: C_11  and  C_12
REMARK   11  A    between atoms: C_12  and  C_13
REMARK   12  A    between atoms: C_12  and  C_14
REMARK   13  A    between atoms: N_17  and  C_18
REMARK   14  A    between atoms: C_18  and  C_19
REMARK   15  A    between atoms: C_18  and  C_31
REMARK   16  A    between atoms: C_19  and  C_20
REMARK   17  A    between atoms: C_20  and  C_21
REMARK   18  A    between atoms: C_21  and  O_23
REMARK   19  A    between atoms: O_23  and  C_24
REMARK   20  A    between atoms: C_24  and  C_25
REMARK                            x       y       z     vdW  Elec       q    Type
REMARK                         _______ _______ _______ _____ _____    ______ ____
ROOT
ATOM      1  C   UNL     1       5.565   4.818  17.065  0.00  0.00    +0.000 C 
ATOM      2  O   UNL     1       4.851   5.800  17.257  0.00  0.00    +0.000 OA
ATOM      3  N   UNL     1       5.197   3.554  17.482  0.00  0.00    +0.000 N 
ATOM      4  H   UNL     1       5.872   2.795  17.458  0.00  0.00    +0.000 HD
ENDROOT
BRANCH   3   5
ATOM      5  C   UNL     1       3.978   3.311  18.267  0.00  0.00    +0.000 C 
BRANCH   5   6
ATOM      6  C   UNL     1       4.219   2.049  19.129  0.00  0.00    +0.000 C 
ATOM      7  N   UNL     1       3.895   0.844  18.568  0.00  0.00    +0.000 N 
ATOM      8  O   UNL     1       4.707   2.094  20.257  0.00  0.00    +0.000 OA
ATOM      9  H   UNL     1       3.448   0.736  17.668  0.00  0.00    +0.000 HD
ATOM     10  H   UNL     1       4.106   0.002  19.090  0.00  0.00    +0.000 HD
ENDBRANCH   5   6
BRANCH   5  11
ATOM     11  C   UNL     1       2.775   3.163  17.319  0.00  0.00    +0.000 C 
BRANCH  11  12
ATOM     12  C   UNL     1       1.501   3.821  17.848  0.00  0.00    +0.000 C 
BRANCH  12  13
ATOM     13  C   UNL     1       1.708   4.629  19.097  0.00  0.00    +0.000 C 
ATOM     14  O   UNL     1       1.538   4.242  20.235  0.00  0.00    +0.000 OA
BRANCH  13  15
ATOM     15  O   UNL     1       2.144   5.876  18.727  0.00  0.00    +0.000 OA
BRANCH  15  16
ATOM     16  C   UNL     1       2.659   6.709  19.771  0.00  0.00    +0.000 C 
BRANCH  16  17
ATOM     17  C   UNL     1       1.757   7.908  19.920  0.00  0.00    +0.000 A 
ATOM     18  C   UNL     1       1.080   8.153  21.123  0.00  0.00    +0.000 A 
ATOM     19  C   UNL     1       0.276   9.284  21.267  0.00  0.00    +0.000 A 
ATOM     20  C   UNL     1       0.128  10.175  20.206  0.00  0.00    +0.000 A 
ATOM     21  C   UNL     1       0.776   9.930  18.996  0.00  0.00    +0.000 A 
ATOM     22  C   UNL     1       1.580   8.799  18.851  0.00  0.00    +0.000 A 
ENDBRANCH  16  17
ENDBRANCH  15  16
ENDBRANCH  13  15
ENDBRANCH  12  13
ENDBRANCH  11  12
ENDBRANCH   5  11
ENDBRANCH   3   5
BRANCH   1  23
ATOM     23  C   UNL     1       6.940   4.920  16.347  0.00  0.00    +0.000 C 
BRANCH  23  24
ATOM     24  N   UNL     1       7.369   6.315  16.464  0.00  0.00    +0.000 N 
ATOM     25  C   UNL     1       7.833   6.846  17.654  0.00  0.00    +0.000 C 
ATOM     26  O   UNL     1       7.957   6.192  18.681  0.00  0.00    +0.000 OA
ATOM     27  H   UNL     1       7.197   6.940  15.686  0.00  0.00    +0.000 HD
BRANCH  25  28
ATOM     28  C   UNL     1       8.066   8.369  17.591  0.00  0.00    +0.000 C 
BRANCH  28  29
ATOM     29  N   UNL     1       6.738   9.015  17.500  0.00  0.00    +0.000 NA
ATOM     30  H   UNL     1       6.885   9.987  17.213  0.00  0.00    +0.000 HD
ATOM     31  H   UNL     1       6.336   9.083  18.436  0.00  0.00    +0.000 HD
ENDBRANCH  28  29
BRANCH  28  32
ATOM     32  C   UNL     1       8.814   8.900  18.824  0.00  0.00    +0.000 C 
BRANCH  32  33
ATOM     33  C   UNL     1       8.950  10.438  18.887  0.00  0.00    +0.000 C 
ATOM     34  C   UNL     1       9.354  10.943  20.274  0.00  0.00    +0.000 C 
ATOM     35  C   UNL     1       9.974  10.909  17.851  0.00  0.00    +0.000 C 
ENDBRANCH  32  33
ENDBRANCH  28  32
ENDBRANCH  25  28
ENDBRANCH  23  24
BRANCH  23  36
ATOM     36  C   UNL     1       6.879   4.438  14.870  0.00  0.00    +0.000 C 
ATOM     37  C   UNL     1       7.666   5.405  13.973  0.00  0.00    +0.000 C 
BRANCH  36  39
ATOM     38  C   UNL     1       5.306   3.688  12.970  0.00  0.00    +0.000 C 
ATOM     39  C   UNL     1       5.424   4.294  14.363  0.00  0.00    +0.000 C 
ENDBRANCH  36  39
ENDBRANCH  23  36
ENDBRANCH   1  23
TORSDOF 16
ENDMDL
MODEL 5
REMARK VINA RESULT:      -7.1      5.779      7.727
REMARK  Name = 
REMARK  20 active torsions:
REMARK  status: ('A' for Active; 'I' for Inactive)
REMARK    1  A    between atoms: C_1  and  C_2
REMARK    2  A    between atoms: C_2  and  C_3
REMARK    3  A    between atoms: C_3  and  C_4
REMARK    4  A    between atoms: C_3  and  C_5
REMARK    5  A    between atoms: C_5  and  N_6
REMARK    6  A    between atoms: C_5  and  C_15
REMARK    7  A    between atoms: C_7  and  C_9
REMARK    8  A    between atoms: C_9  and  N_10
REMARK    9  A    between atoms: C_9  and  C_11
REMARK   10  A    between atoms: C_11  and  C_12
REMARK   11  A    between atoms: C_12  and  C_13
REMARK   12  A    between atoms: C_12  and  C_14
REMARK   13  A    between atoms: N_17  and  C_18
REMARK   14  A    between atoms: C_18  and  C_19
REMARK   15  A    between atoms: C_18  and  C_31
REMARK   16  A    between atoms: C_19  and  C_20
REMARK   17  A    between atoms: C_20  and  C_21
REMARK   18  A    between atoms: C_21  and  O_23
REMARK   19  A    between atoms: O_23  and  C_24
REMARK   20  A    between atoms: C_24  and  C_25
REMARK                            x       y       z     vdW  Elec       q    Type
REMARK                         _______ _______ _______ _____ _____    ______ ____
ROOT
ATOM      1  C   UNL     1       2.289   7.129  19.674  0.00  0.00    +0.000 C 
ATOM      2  O   UNL     1       2.546   7.889  18.742  0.00  0.00    +0.000 OA
ATOM      3  N   UNL     1       1.572   7.545  20.778  0.00  0.00    +0.000 N 
ATOM      4  H   UNL     1       1.516   6.950  21.600  0.00  0.00    +0.000 HD
ENDROOT
BRANCH   3   5
ATOM      5  C   UNL     1       1.152   8.942  20.962  0.00  0.00    +0.000 C 
BRANCH   5   6
ATOM      6  C   UNL     1       1.129   9.229  22.481  0.00  0.00    +0.000 C 
ATOM      7  N   UNL     1      -0.096   9.245  23.091  0.00  0.00    +0.000 N 
ATOM      8  O   UNL     1       2.151   9.406  23.143  0.00  0.00    +0.000 OA
ATOM      9  H   UNL     1      -0.976   9.155  22.603  0.00  0.00    +0.000 HD
ATOM     10  H   UNL     1      -0.128   9.366  24.096  0.00  0.00    +0.000 HD
ENDBRANCH   5   6
BRANCH   5  11
ATOM     11  C   UNL     1      -0.216   9.161  20.294  0.00  0.00    +0.000 C 
BRANCH  11  12
ATOM     12  C   UNL     1      -0.284  10.434  19.452  0.00  0.00    +0.000 C 
BRANCH  12  13
ATOM     13  C   UNL     1      -0.952  11.586  20.146  0.00  0.00    +0.000 C 
ATOM     14  O   UNL     1      -0.930  11.811  21.339  0.00  0.00    +0.000 OA
BRANCH  13  15
ATOM     15  O   UNL     1      -1.573  12.353  19.193  0.00  0.00    +0.000 OA
BRANCH  15  16
ATOM     16  C   UNL     1      -0.759  12.813  18.111  0.00  0.00    +0.000 C 
BRANCH  16  17
ATOM     17  C   UNL     1       0.137  13.916  18.618  0.00  0.00    +0.000 A 
ATOM     18  C   UNL     1       1.525  13.735  18.699  0.00  0.00    +0.000 A 
ATOM     19  C   UNL     1       2.352  14.771  19.134  0.00  0.00    +0.000 A 
ATOM     20  C   UNL     1       1.799  15.995  19.506  0.00  0.00    +0.000 A 
ATOM     21  C   UNL     1       0.419  16.180  19.455  0.00  0.00    +0.000 A 
ATOM     22  C   UNL     1      -0.409  15.144  19.020  0.00  0.00    +0.000 A 
ENDBRANCH  16  17
ENDBRANCH  15  16
ENDBRANCH  13  15
ENDBRANCH  12  13
ENDBRANCH  11  12
ENDBRANCH   5  11
ENDBRANCH   3   5
BRANCH   1  23
ATOM     23  C   UNL     1       2.757   5.647  19.688  0.00  0.00    +0.000 C 
BRANCH  23  24
ATOM     24  N   UNL     1       3.859   5.548  18.730  0.00  0.00    +0.000 N 
ATOM     25  C   UNL     1       4.937   4.706  18.933  0.00  0.00    +0.000 C 
ATOM     26  O   UNL     1       5.038   3.958  19.897  0.00  0.00    +0.000 OA
ATOM     27  H   UNL     1       3.894   6.209  17.965  0.00  0.00    +0.000 HD
BRANCH  25  28
ATOM     28  C   UNL     1       6.056   4.887  17.887  0.00  0.00    +0.000 C 
BRANCH  28  29
ATOM     29  N   UNL     1       7.310   4.385  18.493  0.00  0.00    +0.000 NA
ATOM     30  H   UNL     1       7.130   3.438  18.840  0.00  0.00    +0.000 HD
ATOM     31  H   UNL     1       7.517   4.930  19.330  0.00  0.00    +0.000 HD
ENDBRANCH  28  29
BRANCH  28  32
ATOM     32  C   UNL     1       5.773   4.124  16.584  0.00  0.00    +0.000 C 
BRANCH  32  33
ATOM     33  C   UNL     1       6.004   4.938  15.291  0.00  0.00    +0.000 C 
ATOM     34  C   UNL     1       5.558   4.193  14.031  0.00  0.00    +0.000 C 
ATOM     35  C   UNL     1       5.265   6.276  15.386  0.00  0.00    +0.000 C 
ENDBRANCH  32  33
ENDBRANCH  28  32
ENDBRANCH  25  28
ENDBRANCH  23  24
BRANCH  23  36
ATOM     36  C   UNL     1       1.602   4.654  19.372  0.00  0.00    +0.000 C 
ATOM     37  C   UNL     1       1.505   3.596  20.480  0.00  0.00    +0.000 C 
BRANCH  36  39
ATOM     38  C   UNL     1       2.063   2.482  18.062  0.00  0.00    +0.000 C 
ATOM     39  C   UNL     1       1.777   3.977  17.991  0.00  0.00    +0.000 C 
ENDBRANCH  36  39
ENDBRANCH  23  36
ENDBRANCH   1  23
TORSDOF 16
ENDMDL
MODEL 6
REMARK VINA RESULT:      -7.1      5.679      8.039
REMARK  Name = 
REMARK  20 active torsions:
REMARK  status: ('A' for Active; 'I' for Inactive)
REMARK    1  A    between atoms: C_1  and  C_2
REMARK    2  A    between atoms: C_2  and  C_3
REMARK    3  A    between atoms: C_3  and  C_4
REMARK    4  A    between atoms: C_3  and  C_5
REMARK    5  A    between atoms: C_5  and  N_6
REMARK    6  A    between atoms: C_5  and  C_15
REMARK    7  A    between atoms: C_7  and  C_9
REMARK    8  A    between atoms: C_9  and  N_10
REMARK    9  A    between atoms: C_9  and  C_11
REMARK   10  A    between atoms: C_11  and  C_12
REMARK   11  A    between atoms: C_12  and  C_13
REMARK   12  A    between atoms: C_12  and  C_14
REMARK   13  A    between atoms: N_17  and  C_18
REMARK   14  A    between atoms: C_18  and  C_19
REMARK   15  A    between atoms: C_18  and  C_31
REMARK   16  A    between atoms: C_19  and  C_20
REMARK   17  A    between atoms: C_20  and  C_21
REMARK   18  A    between atoms: C_21  and  O_23
REMARK   19  A    between atoms: O_23  and  C_24
REMARK   20  A    between atoms: C_24  and  C_25
REMARK                            x       y       z     vdW  Elec       q    Type
REMARK                         _______ _______ _______ _____ _____    ______ ____
ROOT
ATOM      1  C   UNL     1       2.662   6.797  19.180  0.00  0.00    +0.000 C 
ATOM      2  O   UNL     1       3.179   7.514  18.326  0.00  0.00    +0.000 OA
ATOM      3  N   UNL     1       1.846   7.311  20.168  0.00  0.00    +0.000 N 
ATOM      4  H   UNL     1       1.568   6.727  20.951  0.00  0.00    +0.000 HD
ENDROOT
BRANCH   3   5
ATOM      5  C   UNL     1       1.618   8.755  20.325  0.00  0.00    +0.000 C 
BRANCH   5   6
ATOM      6  C   UNL     1       0.865   8.968  21.660  0.00  0.00    +0.000 C 
ATOM      7  N   UNL     1      -0.409   8.475  21.739  0.00  0.00    +0.000 N 
ATOM      8  O   UNL     1       1.373   9.523  22.633  0.00  0.00    +0.000 OA
ATOM      9  H   UNL     1      -0.905   8.051  20.967  0.00  0.00    +0.000 HD
ATOM     10  H   UNL     1      -0.895   8.545  22.625  0.00  0.00    +0.000 HD
ENDBRANCH   5   6
BRANCH   5  11
ATOM     11  C   UNL     1       0.839   9.289  19.111  0.00  0.00    +0.000 C 
BRANCH  11  12
ATOM     12  C   UNL     1       1.425  10.577  18.533  0.00  0.00    +0.000 C 
BRANCH  12  13
ATOM     13  C   UNL     1       0.671  11.816  18.923  0.00  0.00    +0.000 C 
ATOM     14  O   UNL     1       1.085  12.956  18.850  0.00  0.00    +0.000 OA
BRANCH  13  15
ATOM     15  O   UNL     1      -0.573  11.437  19.357  0.00  0.00    +0.000 OA
BRANCH  15  16
ATOM     16  C   UNL     1      -1.537  12.480  19.525  0.00  0.00    +0.000 C 
BRANCH  16  17
ATOM     17  C   UNL     1      -2.111  12.387  20.917  0.00  0.00    +0.000 A 
ATOM     18  C   UNL     1      -1.362  11.843  21.968  0.00  0.00    +0.000 A 
ATOM     19  C   UNL     1      -1.885  11.793  23.261  0.00  0.00    +0.000 A 
ATOM     20  C   UNL     1      -3.168  12.275  23.513  0.00  0.00    +0.000 A 
ATOM     21  C   UNL     1      -3.934  12.795  22.471  0.00  0.00    +0.000 A 
ATOM     22  C   UNL     1      -3.411  12.845  21.178  0.00  0.00    +0.000 A 
ENDBRANCH  16  17
ENDBRANCH  15  16
ENDBRANCH  13  15
ENDBRANCH  12  13
ENDBRANCH  11  12
ENDBRANCH   5  11
ENDBRANCH   3   5
BRANCH   1  23
ATOM     23  C   UNL     1       2.893   5.261  19.223  0.00  0.00    +0.000 C 
BRANCH  23  24
ATOM     24  N   UNL     1       3.776   4.940  18.102  0.00  0.00    +0.000 N 
ATOM     25  C   UNL     1       4.911   4.164  18.256  0.00  0.00    +0.000 C 
ATOM     26  O   UNL     1       5.243   3.658  19.321  0.00  0.00    +0.000 OA
ATOM     27  H   UNL     1       3.623   5.406  17.216  0.00  0.00    +0.000 HD
BRANCH  25  28
ATOM     28  C   UNL     1       5.780   4.095  16.984  0.00  0.00    +0.000 C 
BRANCH  28  29
ATOM     29  N   UNL     1       5.017   4.744  15.894  0.00  0.00    +0.000 NA
ATOM     30  H   UNL     1       4.033   4.481  16.005  0.00  0.00    +0.000 HD
ATOM     31  H   UNL     1       5.293   4.330  15.003  0.00  0.00    +0.000 HD
ENDBRANCH  28  29
BRANCH  28  32
ATOM     32  C   UNL     1       7.132   4.803  17.157  0.00  0.00    +0.000 C 
BRANCH  32  33
ATOM     33  C   UNL     1       7.108   6.028  18.100  0.00  0.00    +0.000 C 
ATOM     34  C   UNL     1       7.951   5.826  19.360  0.00  0.00    +0.000 C 
ATOM     35  C   UNL     1       7.599   7.268  17.347  0.00  0.00    +0.000 C 
ENDBRANCH  32  33
ENDBRANCH  28  32
ENDBRANCH  25  28
ENDBRANCH  23  24
BRANCH  23  36
ATOM     36  C   UNL     1       1.562   4.457  19.181  0.00  0.00    +0.000 C 
ATOM     37  C   UNL     1       1.324   3.772  20.535  0.00  0.00    +0.000 C 
BRANCH  36  39
ATOM     38  C   UNL     1       1.807   1.985  18.493  0.00  0.00    +0.000 C 
ATOM     39  C   UNL     1       1.545   3.415  18.037  0.00  0.00    +0.000 C 
ENDBRANCH  36  39
ENDBRANCH  23  36
ENDBRANCH   1  23
TORSDOF 16
ENDMDL
MODEL 7
REMARK VINA RESULT:      -7.1      5.775      8.231
REMARK  Name = 
REMARK  20 active torsions:
REMARK  status: ('A' for Active; 'I' for Inactive)
REMARK    1  A    between atoms: C_1  and  C_2
REMARK    2  A    between atoms: C_2  and  C_3
REMARK    3  A    between atoms: C_3  and  C_4
REMARK    4  A    between atoms: C_3  and  C_5
REMARK    5  A    between atoms: C_5  and  N_6
REMARK    6  A    between atoms: C_5  and  C_15
REMARK    7  A    between atoms: C_7  and  C_9
REMARK    8  A    between atoms: C_9  and  N_10
REMARK    9  A    between atoms: C_9  and  C_11
REMARK   10  A    between atoms: C_11  and  C_12
REMARK   11  A    between atoms: C_12  and  C_13
REMARK   12  A    between atoms: C_12  and  C_14
REMARK   13  A    between atoms: N_17  and  C_18
REMARK   14  A    between atoms: C_18  and  C_19
REMARK   15  A    between atoms: C_18  and  C_31
REMARK   16  A    between atoms: C_19  and  C_20
REMARK   17  A    between atoms: C_20  and  C_21
REMARK   18  A    between atoms: C_21  and  O_23
REMARK   19  A    between atoms: O_23  and  C_24
REMARK   20  A    between atoms: C_24  and  C_25
REMARK                            x       y       z     vdW  Elec       q    Type
REMARK                         _______ _______ _______ _____ _____    ______ ____
ROOT
ATOM      1  C   UNL     1       2.448   5.761  19.931  0.00  0.00    +0.000 C 
ATOM      2  O   UNL     1       1.473   5.509  20.636  0.00  0.00    +0.000 OA
ATOM      3  N   UNL     1       2.583   6.969  19.275  0.00  0.00    +0.000 N 
ATOM      4  H   UNL     1       3.309   7.088  18.575  0.00  0.00    +0.000 HD
ENDROOT
BRANCH   3   5
ATOM      5  C   UNL     1       1.530   7.994  19.295  0.00  0.00    +0.000 C 
BRANCH   5   6
ATOM      6  C   UNL     1       1.774   8.941  18.096  0.00  0.00    +0.000 C 
ATOM      7  N   UNL     1       0.882   9.963  17.921  0.00  0.00    +0.000 N 
ATOM      8  O   UNL     1       2.735   8.824  17.338  0.00  0.00    +0.000 OA
ATOM      9  H   UNL     1       0.047  10.092  18.475  0.00  0.00    +0.000 HD
ATOM     10  H   UNL     1       1.060  10.632  17.183  0.00  0.00    +0.000 HD
ENDBRANCH   5   6
BRANCH   5  11
ATOM     11  C   UNL     1       1.550   8.729  20.647  0.00  0.00    +0.000 C 
BRANCH  11  12
ATOM     12  C   UNL     1       0.241   8.603  21.426  0.00  0.00    +0.000 C 
BRANCH  12  13
ATOM     13  C   UNL     1       0.025   9.699  22.430  0.00  0.00    +0.000 C 
ATOM     14  O   UNL     1       0.491   9.742  23.551  0.00  0.00    +0.000 OA
BRANCH  13  15
ATOM     15  O   UNL     1      -0.775  10.652  21.853  0.00  0.00    +0.000 OA
BRANCH  15  16
ATOM     16  C   UNL     1      -0.495  12.013  22.192  0.00  0.00    +0.000 C 
BRANCH  16  17
ATOM     17  C   UNL     1      -1.762  12.654  22.700  0.00  0.00    +0.000 A 
ATOM     18  C   UNL     1      -2.069  13.986  22.389  0.00  0.00    +0.000 A 
ATOM     19  C   UNL     1      -3.260  14.561  22.832  0.00  0.00    +0.000 A 
ATOM     20  C   UNL     1      -4.151  13.816  23.602  0.00  0.00    +0.000 A 
ATOM     21  C   UNL     1      -3.846  12.498  23.940  0.00  0.00    +0.000 A 
ATOM     22  C   UNL     1      -2.655  11.922  23.497  0.00  0.00    +0.000 A 
ENDBRANCH  16  17
ENDBRANCH  15  16
ENDBRANCH  13  15
ENDBRANCH  12  13
ENDBRANCH  11  12
ENDBRANCH   5  11
ENDBRANCH   3   5
BRANCH   1  23
ATOM     23  C   UNL     1       3.601   4.741  19.714  0.00  0.00    +0.000 C 
BRANCH  23  24
ATOM     24  N   UNL     1       4.223   5.080  18.433  0.00  0.00    +0.000 N 
ATOM     25  C   UNL     1       5.592   5.208  18.291  0.00  0.00    +0.000 C 
ATOM     26  O   UNL     1       6.387   5.013  19.202  0.00  0.00    +0.000 OA
ATOM     27  H   UNL     1       3.625   5.356  17.664  0.00  0.00    +0.000 HD
BRANCH  25  28
ATOM     28  C   UNL     1       6.014   5.735  16.904  0.00  0.00    +0.000 C 
BRANCH  28  29
ATOM     29  N   UNL     1       6.517   7.114  17.091  0.00  0.00    +0.000 NA
ATOM     30  H   UNL     1       6.705   7.504  16.162  0.00  0.00    +0.000 HD
ATOM     31  H   UNL     1       7.431   7.077  17.542  0.00  0.00    +0.000 HD
ENDBRANCH  28  29
BRANCH  28  32
ATOM     32  C   UNL     1       7.107   4.872  16.255  0.00  0.00    +0.000 C 
BRANCH  32  33
ATOM     33  C   UNL     1       6.752   4.317  14.857  0.00  0.00    +0.000 C 
ATOM     34  C   UNL     1       5.249   4.340  14.572  0.00  0.00    +0.000 C 
ATOM     35  C   UNL     1       7.491   5.118  13.781  0.00  0.00    +0.000 C 
ENDBRANCH  32  33
ENDBRANCH  28  32
ENDBRANCH  25  28
ENDBRANCH  23  24
BRANCH  23  36
ATOM     36  C   UNL     1       3.108   3.266  19.764  0.00  0.00    +0.000 C 
ATOM     37  C   UNL     1       4.294   2.329  20.032  0.00  0.00    +0.000 C 
BRANCH  36  39
ATOM     38  C   UNL     1       0.938   2.390  18.683  0.00  0.00    +0.000 C 
ATOM     39  C   UNL     1       2.374   2.852  18.466  0.00  0.00    +0.000 C 
ENDBRANCH  36  39
ENDBRANCH  23  36
ENDBRANCH   1  23
TORSDOF 16
ENDMDL
MODEL 8
REMARK VINA RESULT:      -7.1      5.531      8.517
REMARK  Name = 
REMARK  20 active torsions:
REMARK  status: ('A' for Active; 'I' for Inactive)
REMARK    1  A    between atoms: C_1  and  C_2
REMARK    2  A    between atoms: C_2  and  C_3
REMARK    3  A    between atoms: C_3  and  C_4
REMARK    4  A    between atoms: C_3  and  C_5
REMARK    5  A    between atoms: C_5  and  N_6
REMARK    6  A    between atoms: C_5  and  C_15
REMARK    7  A    between atoms: C_7  and  C_9
REMARK    8  A    between atoms: C_9  and  N_10
REMARK    9  A    between atoms: C_9  and  C_11
REMARK   10  A    between atoms: C_11  and  C_12
REMARK   11  A    between atoms: C_12  and  C_13
REMARK   12  A    between atoms: C_12  and  C_14
REMARK   13  A    between atoms: N_17  and  C_18
REMARK   14  A    between atoms: C_18  and  C_19
REMARK   15  A    between atoms: C_18  and  C_31
REMARK   16  A    between atoms: C_19  and  C_20
REMARK   17  A    between atoms: C_20  and  C_21
REMARK   18  A    between atoms: C_21  and  O_23
REMARK   19  A    between atoms: O_23  and  C_24
REMARK   20  A    between atoms: C_24  and  C_25
REMARK                            x       y       z     vdW  Elec       q    Type
REMARK                         _______ _______ _______ _____ _____    ______ ____
ROOT
ATOM      1  C   UNL     1       2.626   6.621  19.681  0.00  0.00    +0.000 C 
ATOM      2  O   UNL     1       3.016   7.097  18.616  0.00  0.00    +0.000 OA
ATOM      3  N   UNL     1       1.894   7.362  20.587  0.00  0.00    +0.000 N 
ATOM      4  H   UNL     1       1.727   7.000  21.521  0.00  0.00    +0.000 HD
ENDROOT
BRANCH   3   5
ATOM      5  C   UNL     1       1.613   8.791  20.388  0.00  0.00    +0.000 C 
BRANCH   5   6
ATOM      6  C   UNL     1       0.973   9.329  21.690  0.00  0.00    +0.000 C 
ATOM      7  N   UNL     1      -0.353   9.663  21.637  0.00  0.00    +0.000 N 
ATOM      8  O   UNL     1       1.594   9.432  22.746  0.00  0.00    +0.000 OA
ATOM      9  H   UNL     1      -0.911   9.649  20.795  0.00  0.00    +0.000 HD
ATOM     10  H   UNL     1      -0.807   9.954  22.494  0.00  0.00    +0.000 HD
ENDBRANCH   5   6
BRANCH   5  11
ATOM     11  C   UNL     1       0.704   8.972  19.160  0.00  0.00    +0.000 C 
BRANCH  11  12
ATOM     12  C   UNL     1       1.226  10.011  18.167  0.00  0.00    +0.000 C 
BRANCH  12  13
ATOM     13  C   UNL     1       1.257  11.410  18.712  0.00  0.00    +0.000 C 
ATOM     14  O   UNL     1       2.210  12.163  18.691  0.00  0.00    +0.000 OA
BRANCH  13  15
ATOM     15  O   UNL     1       0.016  11.696  19.220  0.00  0.00    +0.000 OA
BRANCH  15  16
ATOM     16  C   UNL     1      -0.790  12.605  18.464  0.00  0.00    +0.000 C 
BRANCH  16  17
ATOM     17  C   UNL     1      -2.124  11.955  18.193  0.00  0.00    +0.000 A 
ATOM     18  C   UNL     1      -3.209  12.151  19.058  0.00  0.00    +0.000 A 
ATOM     19  C   UNL     1      -4.450  11.577  18.782  0.00  0.00    +0.000 A 
ATOM     20  C   UNL     1      -4.616  10.788  17.645  0.00  0.00    +0.000 A 
ATOM     21  C   UNL     1      -3.539  10.564  16.790  0.00  0.00    +0.000 A 
ATOM     22  C   UNL     1      -2.297  11.138  17.065  0.00  0.00    +0.000 A 
ENDBRANCH  16  17
ENDBRANCH  15  16
ENDBRANCH  13  15
ENDBRANCH  12  13
ENDBRANCH  11  12
ENDBRANCH   5  11
ENDBRANCH   3   5
BRANCH   1  23
ATOM     23  C   UNL     1       2.934   5.155  20.096  0.00  0.00    +0.000 C 
BRANCH  23  24
ATOM     24  N   UNL     1       3.460   4.486  18.905  0.00  0.00    +0.000 N 
ATOM     25  C   UNL     1       4.814   4.271  18.719  0.00  0.00    +0.000 C 
ATOM     26  O   UNL     1       5.666   4.583  19.540  0.00  0.00    +0.000 OA
ATOM     27  H   UNL     1       2.826   4.294  18.139  0.00  0.00    +0.000 HD
BRANCH  25  28
ATOM     28  C   UNL     1       5.154   3.706  17.324  0.00  0.00    +0.000 C 
BRANCH  28  29
ATOM     29  N   UNL     1       4.458   2.406  17.194  0.00  0.00    +0.000 NA
ATOM     30  H   UNL     1       4.959   1.856  16.490  0.00  0.00    +0.000 HD
ATOM     31  H   UNL     1       3.536   2.562  16.787  0.00  0.00    +0.000 HD
ENDBRANCH  28  29
BRANCH  28  32
ATOM     32  C   UNL     1       4.714   4.642  16.188  0.00  0.00    +0.000 C 
BRANCH  32  33
ATOM     33  C   UNL     1       5.837   5.038  15.202  0.00  0.00    +0.000 C 
ATOM     34  C   UNL     1       7.179   5.283  15.895  0.00  0.00    +0.000 C 
ATOM     35  C   UNL     1       5.999   3.948  14.139  0.00  0.00    +0.000 C 
ENDBRANCH  32  33
ENDBRANCH  28  32
ENDBRANCH  25  28
ENDBRANCH  23  24
BRANCH  23  36
ATOM     36  C   UNL     1       1.692   4.430  20.686  0.00  0.00    +0.000 C 
ATOM     37  C   UNL     1       2.142   3.349  21.679  0.00  0.00    +0.000 C 
BRANCH  36  39
ATOM     38  C   UNL     1       1.003   2.316  19.381  0.00  0.00    +0.000 C 
ATOM     39  C   UNL     1       0.798   3.812  19.584  0.00  0.00    +0.000 C 
ENDBRANCH  36  39
ENDBRANCH  23  36
ENDBRANCH   1  23
TORSDOF 16
ENDMDL
MODEL 9
REMARK VINA RESULT:      -7.0      5.077      7.579
REMARK  Name = 
REMARK  20 active torsions:
REMARK  status: ('A' for Active; 'I' for Inactive)
REMARK    1  A    between atoms: C_1  and  C_2
REMARK    2  A    between atoms: C_2  and  C_3
REMARK    3  A    between atoms: C_3  and  C_4
REMARK    4  A    between atoms: C_3  and  C_5
REMARK    5  A    between atoms: C_5  and  N_6
REMARK    6  A    between atoms: C_5  and  C_15
REMARK    7  A    between atoms: C_7  and  C_9
REMARK    8  A    between atoms: C_9  and  N_10
REMARK    9  A    between atoms: C_9  and  C_11
REMARK   10  A    between atoms: C_11  and  C_12
REMARK   11  A    between atoms: C_12  and  C_13
REMARK   12  A    between atoms: C_12  and  C_14
REMARK   13  A    between atoms: N_17  and  C_18
REMARK   14  A    between atoms: C_18  and  C_19
REMARK   15  A    between atoms: C_18  and  C_31
REMARK   16  A    between atoms: C_19  and  C_20
REMARK   17  A    between atoms: C_20  and  C_21
REMARK   18  A    between atoms: C_21  and  O_23
REMARK   19  A    between atoms: O_23  and  C_24
REMARK   20  A    between atoms: C_24  and  C_25
REMARK                            x       y       z     vdW  Elec       q    Type
REMARK                         _______ _______ _______ _____ _____    ______ ____
ROOT
ATOM      1  C   UNL     1       2.769   5.486  19.234  0.00  0.00    +0.000 C 
ATOM      2  O   UNL     1       1.970   5.203  18.344  0.00  0.00    +0.000 OA
ATOM      3  N   UNL     1       2.658   6.648  19.972  0.00  0.00    +0.000 N 
ATOM      4  H   UNL     1       3.418   6.934  20.583  0.00  0.00    +0.000 HD
ENDROOT
BRANCH   3   5
ATOM      5  C   UNL     1       1.641   7.668  19.682  0.00  0.00    +0.000 C 
BRANCH   5   6
ATOM      6  C   UNL     1       2.091   8.433  18.415  0.00  0.00    +0.000 C 
ATOM      7  N   UNL     1       1.181   9.283  17.848  0.00  0.00    +0.000 N 
ATOM      8  O   UNL     1       3.218   8.325  17.935  0.00  0.00    +0.000 OA
ATOM      9  H   UNL     1       0.226   9.385  18.159  0.00  0.00    +0.000 HD
ATOM     10  H   UNL     1       1.478   9.842  17.058  0.00  0.00    +0.000 HD
ENDBRANCH   5   6
BRANCH   5  11
ATOM     11  C   UNL     1       1.470   8.588  20.903  0.00  0.00    +0.000 C 
BRANCH  11  12
ATOM     12  C   UNL     1       0.010   8.895  21.232  0.00  0.00    +0.000 C 
BRANCH  12  13
ATOM     13  C   UNL     1      -0.167   9.983  22.253  0.00  0.00    +0.000 C 
ATOM     14  O   UNL     1       0.211   9.948  23.406  0.00  0.00    +0.000 OA
BRANCH  13  15
ATOM     15  O   UNL     1      -0.812  11.031  21.648  0.00  0.00    +0.000 OA
BRANCH  15  16
ATOM     16  C   UNL     1      -0.809  11.045  20.218  0.00  0.00    +0.000 C 
BRANCH  16  17
ATOM     17  C   UNL     1      -0.034  12.252  19.749  0.00  0.00    +0.000 A 
ATOM     18  C   UNL     1      -0.697  13.393  19.277  0.00  0.00    +0.000 A 
ATOM     19  C   UNL     1       0.025  14.519  18.880  0.00  0.00    +0.000 A 
ATOM     20  C   UNL     1       1.418  14.511  18.937  0.00  0.00    +0.000 A 
ATOM     21  C   UNL     1       2.090  13.373  19.381  0.00  0.00    +0.000 A 
ATOM     22  C   UNL     1       1.369  12.247  19.779  0.00  0.00    +0.000 A 
ENDBRANCH  16  17
ENDBRANCH  15  16
ENDBRANCH  13  15
ENDBRANCH  12  13
ENDBRANCH  11  12
ENDBRANCH   5  11
ENDBRANCH   3   5
BRANCH   1  23
ATOM     23  C   UNL     1       3.970   4.567  19.593  0.00  0.00    +0.000 C 
BRANCH  23  24
ATOM     24  N   UNL     1       4.854   4.562  18.427  0.00  0.00    +0.000 N 
ATOM     25  C   UNL     1       6.179   4.953  18.505  0.00  0.00    +0.000 C 
ATOM     26  O   UNL     1       6.721   5.293  19.548  0.00  0.00    +0.000 OA
ATOM     27  H   UNL     1       4.450   4.392  17.514  0.00  0.00    +0.000 HD
BRANCH  25  28
ATOM     28  C   UNL     1       6.873   5.031  17.130  0.00  0.00    +0.000 C 
BRANCH  28  29
ATOM     29  N   UNL     1       7.998   4.069  17.150  0.00  0.00    +0.000 NA
ATOM     30  H   UNL     1       7.727   3.286  17.752  0.00  0.00    +0.000 HD
ATOM     31  H   UNL     1       8.792   4.496  17.628  0.00  0.00    +0.000 HD
ENDBRANCH  28  29
BRANCH  28  32
ATOM     32  C   UNL     1       5.924   4.688  15.972  0.00  0.00    +0.000 C 
BRANCH  32  33
ATOM     33  C   UNL     1       6.624   4.231  14.672  0.00  0.00    +0.000 C 
ATOM     34  C   UNL     1       5.642   3.724  13.613  0.00  0.00    +0.000 C 
ATOM     35  C   UNL     1       7.449   5.385  14.097  0.00  0.00    +0.000 C 
ENDBRANCH  32  33
ENDBRANCH  28  32
ENDBRANCH  25  28
ENDBRANCH  23  24
BRANCH  23  36
ATOM     36  C   UNL     1       3.523   3.136  20.007  0.00  0.00    +0.000 C 
ATOM     37  C   UNL     1       2.923   2.406  18.796  0.00  0.00    +0.000 C 
BRANCH  36  39
ATOM     38  C   UNL     1       1.082   2.826  20.776  0.00  0.00    +0.000 C 
ATOM     39  C   UNL     1       2.513   3.156  21.180  0.00  0.00    +0.000 C 
ENDBRANCH  36  39
ENDBRANCH  23  36
ENDBRANCH   1  23
TORSDOF 16
ENDMDL
