MODEL 1
REMARK VINA RESULT:      -6.5      0.000      0.000
REMARK  Name = 
REMARK  4 active torsions:
REMARK  status: ('A' for Active; 'I' for Inactive)
REMARK    1  A    between atoms: C_1  and  N_2
REMARK    2  A    between atoms: C_6  and  C_7
REMARK    3  A    between atoms: C_13  and  C_14
REMARK    4  A    between atoms: C_13  and  C_15
REMARK                            x       y       z     vdW  Elec       q    Type
REMARK                         _______ _______ _______ _____ _____    ______ ____
ROOT
ATOM      1  C   UNL     1       6.826   4.587  16.219  0.00  0.00    +0.000 C 
ATOM      2  O   UNL     1       7.963   4.584  16.696  0.00  0.00    +0.000 OA
ATOM      3  N   UNL     1       5.679   4.461  17.030  0.00  0.00    +0.000 N 
ATOM      4  C   UNL     1       5.868   4.649  18.469  0.00  0.00    +0.000 C 
ATOM      5  C   UNL     1       4.953   3.835  19.387  0.00  0.00    +0.000 C 
ATOM      6  C   UNL     1       3.491   4.284  19.341  0.00  0.00    +0.000 C 
ATOM      7  C   UNL     1       2.642   3.623  18.229  0.00  0.00    +0.000 C 
ATOM      8  C   UNL     1       1.420   4.521  17.941  0.00  0.00    +0.000 C 
ATOM      9  C   UNL     1       2.116   2.256  18.713  0.00  0.00    +0.000 C 
ATOM     10  C   UNL     1       3.432   3.391  16.925  0.00  0.00    +0.000 C 
ATOM     11  C   UNL     1       4.313   4.562  16.500  0.00  0.00    +0.000 C 
ENDROOT
BRANCH   1  17
ATOM     12  C   UNL     1       4.893   3.945  12.169  0.00  0.00    +0.000 C 
ATOM     13  N   UNL     1       6.165   3.351  12.578  0.00  0.00    +0.000 NA
ATOM     14  C   UNL     1       7.319   4.074  12.002  0.00  0.00    +0.000 C 
ATOM     15  C   UNL     1       7.606   5.421  12.679  0.00  0.00    +0.000 C 
ATOM     16  O   UNL     1       7.790   5.253  14.087  0.00  0.00    +0.000 OA
ATOM     17  C   UNL     1       6.610   4.687  14.692  0.00  0.00    +0.000 C 
ATOM     18  C   UNL     1       6.310   3.312  14.058  0.00  0.00    +0.000 C 
ENDBRANCH   1  17
TORSDOF 1
ENDMDL
MODEL 2
REMARK VINA RESULT:      -6.2      4.431      6.831
REMARK  Name = 
REMARK  4 active torsions:
REMARK  status: ('A' for Active; 'I' for Inactive)
REMARK    1  A    between atoms: C_1  and  N_2
REMARK    2  A    between atoms: C_6  and  C_7
REMARK    3  A    between atoms: C_13  and  C_14
REMARK    4  A    between atoms: C_13  and  C_15
REMARK                            x       y       z     vdW  Elec       q    Type
REMARK                         _______ _______ _______ _____ _____    ______ ____
ROOT
ATOM      1  C   UNL     1       2.888   7.353  18.310  0.00  0.00    +0.000 C 
ATOM      2  O   UNL     1       3.683   7.771  17.465  0.00  0.00    +0.000 OA
ATOM      3  N   UNL     1       2.983   6.050  18.841  0.00  0.00    +0.000 N 
ATOM      4  C   UNL     1       4.234   5.331  18.596  0.00  0.00    +0.000 C 
ATOM      5  C   UNL     1       4.127   3.810  18.455  0.00  0.00    +0.000 C 
ATOM      6  C   UNL     1       3.770   3.102  19.763  0.00  0.00    +0.000 C 
ATOM      7  C   UNL     1       2.253   2.988  20.049  0.00  0.00    +0.000 C 
ATOM      8  C   UNL     1       2.050   2.782  21.565  0.00  0.00    +0.000 C 
ATOM      9  C   UNL     1       1.674   1.756  19.325  0.00  0.00    +0.000 C 
ATOM     10  C   UNL     1       1.458   4.226  19.584  0.00  0.00    +0.000 C 
ATOM     11  C   UNL     1       2.112   5.563  19.919  0.00  0.00    +0.000 C 
ENDROOT
BRANCH   1  17
ATOM     12  C   UNL     1      -0.701  10.114  18.095  0.00  0.00    +0.000 C 
ATOM     13  N   UNL     1       0.619  10.517  18.575  0.00  0.00    +0.000 NA
ATOM     14  C   UNL     1       0.674  10.571  20.051  0.00  0.00    +0.000 C 
ATOM     15  C   UNL     1       0.732   9.191  20.720  0.00  0.00    +0.000 C 
ATOM     16  O   UNL     1       1.834   8.431  20.220  0.00  0.00    +0.000 OA
ATOM     17  C   UNL     1       1.717   8.236  18.797  0.00  0.00    +0.000 C 
ATOM     18  C   UNL     1       1.691   9.607  18.087  0.00  0.00    +0.000 C 
ENDBRANCH   1  17
TORSDOF 1
ENDMDL
MODEL 3
REMARK VINA RESULT:      -5.8      2.965      4.306
REMARK  Name = 
REMARK  4 active torsions:
REMARK  status: ('A' for Active; 'I' for Inactive)
REMARK    1  A    between atoms: C_1  and  N_2
REMARK    2  A    between atoms: C_6  and  C_7
REMARK    3  A    between atoms: C_13  and  C_14
REMARK    4  A    between atoms: C_13  and  C_15
REMARK                            x       y       z     vdW  Elec       q    Type
REMARK                         _______ _______ _______ _____ _____    ______ ____
ROOT
ATOM      1  C   UNL     1       5.220   4.130  17.217  0.00  0.00    +0.000 C 
ATOM      2  O   UNL     1       5.445   3.727  16.074  0.00  0.00    +0.000 OA
ATOM      3  N   UNL     1       4.212   3.560  18.022  0.00  0.00    +0.000 N 
ATOM      4  C   UNL     1       3.666   2.276  17.580  0.00  0.00    +0.000 C 
ATOM      5  C   UNL     1       2.193   2.015  17.908  0.00  0.00    +0.000 C 
ATOM      6  C   UNL     1       1.931   1.814  19.402  0.00  0.00    +0.000 C 
ATOM      7  C   UNL     1       1.677   3.115  20.200  0.00  0.00    +0.000 C 
ATOM      8  C   UNL     1       1.974   2.846  21.690  0.00  0.00    +0.000 C 
ATOM      9  C   UNL     1       0.194   3.522  20.082  0.00  0.00    +0.000 C 
ATOM     10  C   UNL     1       2.533   4.300  19.707  0.00  0.00    +0.000 C 
ATOM     11  C   UNL     1       3.991   3.954  19.420  0.00  0.00    +0.000 C 
ENDROOT
BRANCH   1  17
ATOM     12  C   UNL     1       6.978   8.296  17.540  0.00  0.00    +0.000 C 
ATOM     13  N   UNL     1       7.763   7.088  17.294  0.00  0.00    +0.000 NA
ATOM     14  C   UNL     1       8.446   6.618  18.517  0.00  0.00    +0.000 C 
ATOM     15  C   UNL     1       7.511   5.936  19.525  0.00  0.00    +0.000 C 
ATOM     16  O   UNL     1       6.809   4.851  18.912  0.00  0.00    +0.000 OA
ATOM     17  C   UNL     1       6.014   5.319  17.805  0.00  0.00    +0.000 C 
ATOM     18  C   UNL     1       6.928   5.982  16.753  0.00  0.00    +0.000 C 
ENDBRANCH   1  17
TORSDOF 1
ENDMDL
MODEL 4
REMARK VINA RESULT:      -5.8      4.616      7.182
REMARK  Name = 
REMARK  4 active torsions:
REMARK  status: ('A' for Active; 'I' for Inactive)
REMARK    1  A    between atoms: C_1  and  N_2
REMARK    2  A    between atoms: C_6  and  C_7
REMARK    3  A    between atoms: C_13  and  C_14
REMARK    4  A    between atoms: C_13  and  C_15
REMARK                            x       y       z     vdW  Elec       q    Type
REMARK                         _______ _______ _______ _____ _____    ______ ____
ROOT
ATOM      1  C   UNL     1       2.594   7.930  18.070  0.00  0.00    +0.000 C 
ATOM      2  O   UNL     1       3.115   8.607  17.181  0.00  0.00    +0.000 OA
ATOM      3  N   UNL     1       2.929   6.574  18.265  0.00  0.00    +0.000 N 
ATOM      4  C   UNL     1       4.137   6.093  17.591  0.00  0.00    +0.000 C 
ATOM      5  C   UNL     1       4.128   4.628  17.146  0.00  0.00    +0.000 C 
ATOM      6  C   UNL     1       4.170   3.638  18.312  0.00  0.00    +0.000 C 
ATOM      7  C   UNL     1       2.788   3.266  18.899  0.00  0.00    +0.000 C 
ATOM      8  C   UNL     1       2.988   2.744  20.338  0.00  0.00    +0.000 C 
ATOM      9  C   UNL     1       2.155   2.129  18.071  0.00  0.00    +0.000 C 
ATOM     10  C   UNL     1       1.799   4.450  18.911  0.00  0.00    +0.000 C 
ATOM     11  C   UNL     1       2.399   5.773  19.376  0.00  0.00    +0.000 C 
ENDROOT
BRANCH   1  17
ATOM     12  C   UNL     1      -1.078  10.287  19.298  0.00  0.00    +0.000 C 
ATOM     13  N   UNL     1       0.294  10.674  19.621  0.00  0.00    +0.000 NA
ATOM     14  C   UNL     1       0.644  10.338  21.017  0.00  0.00    +0.000 C 
ATOM     15  C   UNL     1       0.895   8.842  21.251  0.00  0.00    +0.000 C 
ATOM     16  O   UNL     1       1.905   8.352  20.364  0.00  0.00    +0.000 OA
ATOM     17  C   UNL     1       1.509   8.534  18.991  0.00  0.00    +0.000 C 
ATOM     18  C   UNL     1       1.281  10.035  18.710  0.00  0.00    +0.000 C 
ENDBRANCH   1  17
TORSDOF 1
ENDMDL
MODEL 5
REMARK VINA RESULT:      -5.7      1.499      5.844
REMARK  Name = 
REMARK  4 active torsions:
REMARK  status: ('A' for Active; 'I' for Inactive)
REMARK    1  A    between atoms: C_1  and  N_2
REMARK    2  A    between atoms: C_6  and  C_7
REMARK    3  A    between atoms: C_13  and  C_14
REMARK    4  A    between atoms: C_13  and  C_15
REMARK                            x       y       z     vdW  Elec       q    Type
REMARK                         _______ _______ _______ _____ _____    ______ ____
ROOT
ATOM      1  C   UNL     1       6.754   5.453  15.894  0.00  0.00    +0.000 C 
ATOM      2  O   UNL     1       7.473   6.432  16.106  0.00  0.00    +0.000 OA
ATOM      3  N   UNL     1       6.707   4.824  14.633  0.00  0.00    +0.000 N 
ATOM      4  C   UNL     1       7.770   5.169  13.687  0.00  0.00    +0.000 C 
ATOM      5  C   UNL     1       7.390   5.156  12.204  0.00  0.00    +0.000 C 
ATOM      6  C   UNL     1       7.118   3.752  11.659  0.00  0.00    +0.000 C 
ATOM      7  C   UNL     1       5.663   3.255  11.837  0.00  0.00    +0.000 C 
ATOM      8  C   UNL     1       5.657   1.713  11.770  0.00  0.00    +0.000 C 
ATOM      9  C   UNL     1       4.785   3.779  10.683  0.00  0.00    +0.000 C 
ATOM     10  C   UNL     1       5.027   3.719  13.164  0.00  0.00    +0.000 C 
ATOM     11  C   UNL     1       5.938   3.598  14.381  0.00  0.00    +0.000 C 
ENDROOT
BRANCH   1  17
ATOM     12  C   UNL     1       3.034   3.738  17.836  0.00  0.00    +0.000 C 
ATOM     13  N   UNL     1       3.536   5.091  18.071  0.00  0.00    +0.000 NA
ATOM     14  C   UNL     1       4.257   5.194  19.356  0.00  0.00    +0.000 C 
ATOM     15  C   UNL     1       5.656   4.562  19.334  0.00  0.00    +0.000 C 
ATOM     16  O   UNL     1       6.449   5.122  18.285  0.00  0.00    +0.000 OA
ATOM     17  C   UNL     1       5.832   4.895  17.002  0.00  0.00    +0.000 C 
ATOM     18  C   UNL     1       4.434   5.549  16.977  0.00  0.00    +0.000 C 
ENDBRANCH   1  17
TORSDOF 1
ENDMDL
MODEL 6
REMARK VINA RESULT:      -5.7      3.027      6.540
REMARK  Name = 
REMARK  4 active torsions:
REMARK  status: ('A' for Active; 'I' for Inactive)
REMARK    1  A    between atoms: C_1  and  N_2
REMARK    2  A    between atoms: C_6  and  C_7
REMARK    3  A    between atoms: C_13  and  C_14
REMARK    4  A    between atoms: C_13  and  C_15
REMARK                            x       y       z     vdW  Elec       q    Type
REMARK                         _______ _______ _______ _____ _____    ______ ____
ROOT
ATOM      1  C   UNL     1       3.848   3.047  17.717  0.00  0.00    +0.000 C 
ATOM      2  O   UNL     1       3.956   1.903  17.271  0.00  0.00    +0.000 OA
ATOM      3  N   UNL     1       4.807   4.045  17.443  0.00  0.00    +0.000 N 
ATOM      4  C   UNL     1       5.752   3.768  16.361  0.00  0.00    +0.000 C 
ATOM      5  C   UNL     1       7.154   4.365  16.514  0.00  0.00    +0.000 C 
ATOM      6  C   UNL     1       7.182   5.890  16.388  0.00  0.00    +0.000 C 
ATOM      7  C   UNL     1       6.922   6.657  17.707  0.00  0.00    +0.000 C 
ATOM      8  C   UNL     1       6.441   8.082  17.362  0.00  0.00    +0.000 C 
ATOM      9  C   UNL     1       8.235   6.785  18.506  0.00  0.00    +0.000 C 
ATOM     10  C   UNL     1       5.883   5.963  18.612  0.00  0.00    +0.000 C 
ATOM     11  C   UNL     1       4.652   5.440  17.879  0.00  0.00    +0.000 C 
ENDROOT
BRANCH   1  17
ATOM     12  C   UNL     1       1.485   5.335  20.836  0.00  0.00    +0.000 C 
ATOM     13  N   UNL     1       2.013   3.986  21.030  0.00  0.00    +0.000 NA
ATOM     14  C   UNL     1       0.964   2.958  20.873  0.00  0.00    +0.000 C 
ATOM     15  C   UNL     1       0.556   2.706  19.414  0.00  0.00    +0.000 C 
ATOM     16  O   UNL     1       1.696   2.364  18.621  0.00  0.00    +0.000 OA
ATOM     17  C   UNL     1       2.668   3.427  18.640  0.00  0.00    +0.000 C 
ATOM     18  C   UNL     1       3.128   3.685  20.092  0.00  0.00    +0.000 C 
ENDBRANCH   1  17
TORSDOF 1
ENDMDL
MODEL 7
REMARK VINA RESULT:      -5.6      5.584      8.156
REMARK  Name = 
REMARK  4 active torsions:
REMARK  status: ('A' for Active; 'I' for Inactive)
REMARK    1  A    between atoms: C_1  and  N_2
REMARK    2  A    between atoms: C_6  and  C_7
REMARK    3  A    between atoms: C_13  and  C_14
REMARK    4  A    between atoms: C_13  and  C_15
REMARK                            x       y       z     vdW  Elec       q    Type
REMARK                         _______ _______ _______ _____ _____    ______ ____
ROOT
ATOM      1  C   UNL     1       1.883   8.752  18.660  0.00  0.00    +0.000 C 
ATOM      2  O   UNL     1       2.072   9.188  17.522  0.00  0.00    +0.000 OA
ATOM      3  N   UNL     1       2.095   7.395  18.981  0.00  0.00    +0.000 N 
ATOM      4  C   UNL     1       2.847   6.600  18.009  0.00  0.00    +0.000 C 
ATOM      5  C   UNL     1       2.472   5.119  17.908  0.00  0.00    +0.000 C 
ATOM      6  C   UNL     1       2.865   4.306  19.143  0.00  0.00    +0.000 C 
ATOM      7  C   UNL     1       1.813   4.296  20.277  0.00  0.00    +0.000 C 
ATOM      8  C   UNL     1       2.520   3.943  21.603  0.00  0.00    +0.000 C 
ATOM      9  C   UNL     1       0.757   3.206  20.004  0.00  0.00    +0.000 C 
ATOM     10  C   UNL     1       1.074   5.642  20.426  0.00  0.00    +0.000 C 
ATOM     11  C   UNL     1       1.974   6.871  20.348  0.00  0.00    +0.000 C 
ENDROOT
BRANCH   1  17
ATOM     12  C   UNL     1      -0.236   9.997  22.469  0.00  0.00    +0.000 C 
ATOM     13  N   UNL     1      -0.695  10.336  21.123  0.00  0.00    +0.000 NA
ATOM     14  C   UNL     1      -0.356  11.728  20.761  0.00  0.00    +0.000 C 
ATOM     15  C   UNL     1       1.127  11.937  20.426  0.00  0.00    +0.000 C 
ATOM     16  O   UNL     1       1.542  11.049  19.385  0.00  0.00    +0.000 OA
ATOM     17  C   UNL     1       1.359   9.676  19.783  0.00  0.00    +0.000 C 
ATOM     18  C   UNL     1      -0.131   9.420  20.096  0.00  0.00    +0.000 C 
ENDBRANCH   1  17
TORSDOF 1
ENDMDL
MODEL 8
REMARK VINA RESULT:      -5.6      3.186      6.654
REMARK  Name = 
REMARK  4 active torsions:
REMARK  status: ('A' for Active; 'I' for Inactive)
REMARK    1  A    between atoms: C_1  and  N_2
REMARK    2  A    between atoms: C_6  and  C_7
REMARK    3  A    between atoms: C_13  and  C_14
REMARK    4  A    between atoms: C_13  and  C_15
REMARK                            x       y       z     vdW  Elec       q    Type
REMARK                         _______ _______ _______ _____ _____    ______ ____
ROOT
ATOM      1  C   UNL     1       2.935   5.821  18.903  0.00  0.00    +0.000 C 
ATOM      2  O   UNL     1       2.300   6.850  19.145  0.00  0.00    +0.000 OA
ATOM      3  N   UNL     1       3.917   5.773  17.892  0.00  0.00    +0.000 N 
ATOM      4  C   UNL     1       4.379   7.057  17.364  0.00  0.00    +0.000 C 
ATOM      5  C   UNL     1       4.795   7.075  15.890  0.00  0.00    +0.000 C 
ATOM      6  C   UNL     1       6.083   6.297  15.613  0.00  0.00    +0.000 C 
ATOM      7  C   UNL     1       5.884   4.787  15.338  0.00  0.00    +0.000 C 
ATOM      8  C   UNL     1       7.213   4.055  15.621  0.00  0.00    +0.000 C 
ATOM      9  C   UNL     1       5.533   4.566  13.853  0.00  0.00    +0.000 C 
ATOM     10  C   UNL     1       4.758   4.163  16.188  0.00  0.00    +0.000 C 
ATOM     11  C   UNL     1       4.756   4.591  17.652  0.00  0.00    +0.000 C 
ENDROOT
BRANCH   1  17
ATOM     12  C   UNL     1       1.951   1.453  19.615  0.00  0.00    +0.000 C 
ATOM     13  N   UNL     1       1.041   2.560  19.905  0.00  0.00    +0.000 NA
ATOM     14  C   UNL     1       1.013   2.884  21.347  0.00  0.00    +0.000 C 
ATOM     15  C   UNL     1       2.259   3.636  21.837  0.00  0.00    +0.000 C 
ATOM     16  O   UNL     1       2.465   4.827  21.073  0.00  0.00    +0.000 OA
ATOM     17  C   UNL     1       2.647   4.515  19.679  0.00  0.00    +0.000 C 
ATOM     18  C   UNL     1       1.395   3.787  19.142  0.00  0.00    +0.000 C 
ENDBRANCH   1  17
TORSDOF 1
ENDMDL
MODEL 9
REMARK VINA RESULT:      -5.6      3.309      6.445
REMARK  Name = 
REMARK  4 active torsions:
REMARK  status: ('A' for Active; 'I' for Inactive)
REMARK    1  A    between atoms: C_1  and  N_2
REMARK    2  A    between atoms: C_6  and  C_7
REMARK    3  A    between atoms: C_13  and  C_14
REMARK    4  A    between atoms: C_13  and  C_15
REMARK                            x       y       z     vdW  Elec       q    Type
REMARK                         _______ _______ _______ _____ _____    ______ ____
ROOT
ATOM      1  C   UNL     1       2.340   5.823  18.286  0.00  0.00    +0.000 C 
ATOM      2  O   UNL     1       1.590   6.786  18.109  0.00  0.00    +0.000 OA
ATOM      3  N   UNL     1       3.676   5.829  17.834  0.00  0.00    +0.000 N 
ATOM      4  C   UNL     1       4.230   7.124  17.439  0.00  0.00    +0.000 C 
ATOM      5  C   UNL     1       5.271   7.104  16.316  0.00  0.00    +0.000 C 
ATOM      6  C   UNL     1       6.597   6.462  16.727  0.00  0.00    +0.000 C 
ATOM      7  C   UNL     1       6.660   4.926  16.550  0.00  0.00    +0.000 C 
ATOM      8  C   UNL     1       7.764   4.367  17.473  0.00  0.00    +0.000 C 
ATOM      9  C   UNL     1       7.044   4.581  15.097  0.00  0.00    +0.000 C 
ATOM     10  C   UNL     1       5.320   4.229  16.864  0.00  0.00    +0.000 C 
ATOM     11  C   UNL     1       4.618   4.738  18.119  0.00  0.00    +0.000 C 
ENDROOT
BRANCH   1  17
ATOM     12  C   UNL     1       1.448   2.889  21.624  0.00  0.00    +0.000 C 
ATOM     13  N   UNL     1       2.452   2.672  20.584  0.00  0.00    +0.000 NA
ATOM     14  C   UNL     1       1.966   1.750  19.535  0.00  0.00    +0.000 C 
ATOM     15  C   UNL     1       0.951   2.385  18.575  0.00  0.00    +0.000 C 
ATOM     16  O   UNL     1       1.489   3.566  17.975  0.00  0.00    +0.000 OA
ATOM     17  C   UNL     1       1.828   4.540  18.980  0.00  0.00    +0.000 C 
ATOM     18  C   UNL     1       2.877   3.947  19.946  0.00  0.00    +0.000 C 
ENDBRANCH   1  17
TORSDOF 1
ENDMDL
