MODEL 1
REMARK VINA RESULT:      -7.2      0.000      0.000
REMARK  Name = 
REMARK  10 active torsions:
REMARK  status: ('A' for Active; 'I' for Inactive)
REMARK    1  A    between atoms: C_2  and  C_3
REMARK    2  A    between atoms: C_3  and  C_4
REMARK    3  A    between atoms: C_4  and  C_5
REMARK    4  A    between atoms: C_5  and  C_6
REMARK    5  A    between atoms: C_6  and  O_7
REMARK    6  A    between atoms: O_7  and  C_8
REMARK    7  A    between atoms: C_11  and  C_12
REMARK    8  A    between atoms: C_17  and  O_18
REMARK    9  A    between atoms: O_18  and  C_19
REMARK   10  A    between atoms: N_20  and  C_21
REMARK                            x       y       z     vdW  Elec       q    Type
REMARK                         _______ _______ _______ _____ _____    ______ ____
ROOT
ATOM      1  C   UNL     1       6.730   5.737  17.359  0.00  0.00    +0.000 A 
ATOM      2  N   UNL     1       7.391   5.442  18.454  0.00  0.00    +0.000 NA
ATOM      3  C   UNL     1       6.418   5.225  19.400  0.00  0.00    +0.000 A 
ATOM      4  C   UNL     1       5.139   5.341  18.875  0.00  0.00    +0.000 A 
ATOM      5  N   UNL     1       5.382   5.831  17.584  0.00  0.00    +0.000 N 
ATOM      6  C   UNL     1       4.447   6.301  16.598  0.00  0.00    +0.000 C 
ENDROOT
BRANCH   4   7
ATOM      7  C   UNL     1       3.828   4.983  19.457  0.00  0.00    +0.000 A 
ATOM      8  C   UNL     1       2.963   6.041  19.813  0.00  0.00    +0.000 A 
ATOM      9  C   UNL     1       1.744   5.831  20.443  0.00  0.00    +0.000 A 
ATOM     10  C   UNL     1       1.301   4.536  20.651  0.00  0.00    +0.000 A 
ATOM     11  C   UNL     1       2.081   3.467  20.222  0.00  0.00    +0.000 A 
ATOM     12  C   UNL     1       3.336   3.666  19.613  0.00  0.00    +0.000 A 
BRANCH  12  13
ATOM     13  O   UNL     1       4.100   2.599  19.187  0.00  0.00    +0.000 OA
ATOM     14  C   UNL     1       3.487   1.743  18.218  0.00  0.00    +0.000 C 
ENDBRANCH  12  13
ENDBRANCH   4   7
BRANCH   1  15
ATOM     15  O   UNL     1       7.285   5.877  16.146  0.00  0.00    +0.000 OA
BRANCH  15  16
ATOM     16  C   UNL     1       7.343   4.640  15.425  0.00  0.00    +0.000 C 
BRANCH  16  17
ATOM     17  C   UNL     1       6.939   4.849  13.968  0.00  0.00    +0.000 C 
BRANCH  17  18
ATOM     18  C   UNL     1       5.727   3.979  13.622  0.00  0.00    +0.000 C 
BRANCH  18  19
ATOM     19  C   UNL     1       5.723   3.557  12.152  0.00  0.00    +0.000 C 
BRANCH  19  21
ATOM     20  C   UNL     1       3.758   3.500  10.588  0.00  0.00    +0.000 C 
ATOM     21  C   UNL     1       4.351   3.114  11.724  0.00  0.00    +0.000 C 
ENDBRANCH  19  21
ENDBRANCH  18  19
ENDBRANCH  17  18
ENDBRANCH  16  17
ENDBRANCH  15  16
ENDBRANCH   1  15
TORSDOF 8
ENDMDL
MODEL 2
REMARK VINA RESULT:      -7.0      3.398      5.871
REMARK  Name = 
REMARK  10 active torsions:
REMARK  status: ('A' for Active; 'I' for Inactive)
REMARK    1  A    between atoms: C_2  and  C_3
REMARK    2  A    between atoms: C_3  and  C_4
REMARK    3  A    between atoms: C_4  and  C_5
REMARK    4  A    between atoms: C_5  and  C_6
REMARK    5  A    between atoms: C_6  and  O_7
REMARK    6  A    between atoms: O_7  and  C_8
REMARK    7  A    between atoms: C_11  and  C_12
REMARK    8  A    between atoms: C_17  and  O_18
REMARK    9  A    between atoms: O_18  and  C_19
REMARK   10  A    between atoms: N_20  and  C_21
REMARK                            x       y       z     vdW  Elec       q    Type
REMARK                         _______ _______ _______ _____ _____    ______ ____
ROOT
ATOM      1  C   UNL     1       6.868   5.915  16.782  0.00  0.00    +0.000 A 
ATOM      2  N   UNL     1       6.483   5.820  15.531  0.00  0.00    +0.000 NA
ATOM      3  C   UNL     1       5.303   5.118  15.581  0.00  0.00    +0.000 A 
ATOM      4  C   UNL     1       4.927   4.813  16.882  0.00  0.00    +0.000 A 
ATOM      5  N   UNL     1       6.049   5.209  17.624  0.00  0.00    +0.000 N 
ATOM      6  C   UNL     1       6.335   5.008  19.019  0.00  0.00    +0.000 C 
ENDROOT
BRANCH   4   7
ATOM      7  C   UNL     1       3.654   4.280  17.411  0.00  0.00    +0.000 A 
ATOM      8  C   UNL     1       3.533   2.876  17.519  0.00  0.00    +0.000 A 
ATOM      9  C   UNL     1       2.359   2.257  17.924  0.00  0.00    +0.000 A 
ATOM     10  C   UNL     1       1.287   3.032  18.333  0.00  0.00    +0.000 A 
ATOM     11  C   UNL     1       1.405   4.418  18.336  0.00  0.00    +0.000 A 
ATOM     12  C   UNL     1       2.579   5.061  17.894  0.00  0.00    +0.000 A 
BRANCH  12  13
ATOM     13  O   UNL     1       2.688   6.436  17.906  0.00  0.00    +0.000 OA
ATOM     14  C   UNL     1       2.646   7.052  19.197  0.00  0.00    +0.000 C 
ENDBRANCH  12  13
ENDBRANCH   4   7
BRANCH   1  15
ATOM     15  O   UNL     1       7.901   6.655  17.210  0.00  0.00    +0.000 OA
BRANCH  15  16
ATOM     16  C   UNL     1       7.531   8.016  17.464  0.00  0.00    +0.000 C 
BRANCH  16  17
ATOM     17  C   UNL     1       8.466   8.643  18.494  0.00  0.00    +0.000 C 
BRANCH  17  18
ATOM     18  C   UNL     1       8.708  10.119  18.163  0.00  0.00    +0.000 C 
BRANCH  18  19
ATOM     19  C   UNL     1       9.389  10.862  19.313  0.00  0.00    +0.000 C 
BRANCH  19  21
ATOM     20  C   UNL     1      11.034  11.936  17.748  0.00  0.00    +0.000 C 
ATOM     21  C   UNL     1      10.758  11.336  18.912  0.00  0.00    +0.000 C 
ENDBRANCH  19  21
ENDBRANCH  18  19
ENDBRANCH  17  18
ENDBRANCH  16  17
ENDBRANCH  15  16
ENDBRANCH   1  15
TORSDOF 8
ENDMDL
MODEL 3
REMARK VINA RESULT:      -6.9      2.025      6.103
REMARK  Name = 
REMARK  10 active torsions:
REMARK  status: ('A' for Active; 'I' for Inactive)
REMARK    1  A    between atoms: C_2  and  C_3
REMARK    2  A    between atoms: C_3  and  C_4
REMARK    3  A    between atoms: C_4  and  C_5
REMARK    4  A    between atoms: C_5  and  C_6
REMARK    5  A    between atoms: C_6  and  O_7
REMARK    6  A    between atoms: O_7  and  C_8
REMARK    7  A    between atoms: C_11  and  C_12
REMARK    8  A    between atoms: C_17  and  O_18
REMARK    9  A    between atoms: O_18  and  C_19
REMARK   10  A    between atoms: N_20  and  C_21
REMARK                            x       y       z     vdW  Elec       q    Type
REMARK                         _______ _______ _______ _____ _____    ______ ____
ROOT
ATOM      1  C   UNL     1       3.060   5.912  19.681  0.00  0.00    +0.000 A 
ATOM      2  N   UNL     1       2.628   6.932  18.975  0.00  0.00    +0.000 NA
ATOM      3  C   UNL     1       3.454   6.970  17.878  0.00  0.00    +0.000 A 
ATOM      4  C   UNL     1       4.379   5.936  17.879  0.00  0.00    +0.000 A 
ATOM      5  N   UNL     1       4.195   5.364  19.146  0.00  0.00    +0.000 N 
ATOM      6  C   UNL     1       4.967   4.345  19.805  0.00  0.00    +0.000 C 
ENDROOT
BRANCH   4   7
ATOM      7  C   UNL     1       5.294   5.467  16.816  0.00  0.00    +0.000 A 
ATOM      8  C   UNL     1       4.718   4.816  15.703  0.00  0.00    +0.000 A 
ATOM      9  C   UNL     1       5.480   4.260  14.685  0.00  0.00    +0.000 A 
ATOM     10  C   UNL     1       6.855   4.425  14.697  0.00  0.00    +0.000 A 
ATOM     11  C   UNL     1       7.449   5.149  15.726  0.00  0.00    +0.000 A 
ATOM     12  C   UNL     1       6.690   5.689  16.784  0.00  0.00    +0.000 A 
BRANCH  12  13
ATOM     13  O   UNL     1       7.289   6.409  17.798  0.00  0.00    +0.000 OA
ATOM     14  C   UNL     1       7.605   7.770  17.489  0.00  0.00    +0.000 C 
ENDBRANCH  12  13
ENDBRANCH   4   7
BRANCH   1  15
ATOM     15  O   UNL     1       2.445   5.419  20.765  0.00  0.00    +0.000 OA
BRANCH  15  16
ATOM     16  C   UNL     1       1.232   4.727  20.439  0.00  0.00    +0.000 C 
BRANCH  16  17
ATOM     17  C   UNL     1       1.309   3.270  20.886  0.00  0.00    +0.000 C 
BRANCH  17  18
ATOM     18  C   UNL     1       1.253   2.338  19.671  0.00  0.00    +0.000 C 
BRANCH  18  19
ATOM     19  C   UNL     1       1.372   3.104  18.353  0.00  0.00    +0.000 C 
BRANCH  19  21
ATOM     20  C   UNL     1       3.453   1.750  17.971  0.00  0.00    +0.000 C 
ATOM     21  C   UNL     1       2.485   2.549  17.508  0.00  0.00    +0.000 C 
ENDBRANCH  19  21
ENDBRANCH  18  19
ENDBRANCH  17  18
ENDBRANCH  16  17
ENDBRANCH  15  16
ENDBRANCH   1  15
TORSDOF 8
ENDMDL
MODEL 4
REMARK VINA RESULT:      -6.8      3.773      6.358
REMARK  Name = 
REMARK  10 active torsions:
REMARK  status: ('A' for Active; 'I' for Inactive)
REMARK    1  A    between atoms: C_2  and  C_3
REMARK    2  A    between atoms: C_3  and  C_4
REMARK    3  A    between atoms: C_4  and  C_5
REMARK    4  A    between atoms: C_5  and  C_6
REMARK    5  A    between atoms: C_6  and  O_7
REMARK    6  A    between atoms: O_7  and  C_8
REMARK    7  A    between atoms: C_11  and  C_12
REMARK    8  A    between atoms: C_17  and  O_18
REMARK    9  A    between atoms: O_18  and  C_19
REMARK   10  A    between atoms: N_20  and  C_21
REMARK                            x       y       z     vdW  Elec       q    Type
REMARK                         _______ _______ _______ _____ _____    ______ ____
ROOT
ATOM      1  C   UNL     1       6.935   6.688  17.520  0.00  0.00    +0.000 A 
ATOM      2  N   UNL     1       6.576   6.910  16.276  0.00  0.00    +0.000 NA
ATOM      3  C   UNL     1       5.441   6.155  16.101  0.00  0.00    +0.000 A 
ATOM      4  C   UNL     1       5.064   5.494  17.262  0.00  0.00    +0.000 A 
ATOM      5  N   UNL     1       6.148   5.739  18.117  0.00  0.00    +0.000 N 
ATOM      6  C   UNL     1       6.424   5.189  19.417  0.00  0.00    +0.000 C 
ENDROOT
BRANCH   4   7
ATOM      7  C   UNL     1       3.819   4.768  17.590  0.00  0.00    +0.000 A 
ATOM      8  C   UNL     1       3.810   3.370  17.389  0.00  0.00    +0.000 A 
ATOM      9  C   UNL     1       2.675   2.595  17.583  0.00  0.00    +0.000 A 
ATOM     10  C   UNL     1       1.526   3.184  18.084  0.00  0.00    +0.000 A 
ATOM     11  C   UNL     1       1.529   4.542  18.389  0.00  0.00    +0.000 A 
ATOM     12  C   UNL     1       2.664   5.347  18.164  0.00  0.00    +0.000 A 
BRANCH  12  13
ATOM     13  O   UNL     1       2.658   6.691  18.474  0.00  0.00    +0.000 OA
ATOM     14  C   UNL     1       2.268   7.019  19.811  0.00  0.00    +0.000 C 
ENDBRANCH  12  13
ENDBRANCH   4   7
BRANCH   1  15
ATOM     15  O   UNL     1       7.913   7.344  18.161  0.00  0.00    +0.000 OA
BRANCH  15  16
ATOM     16  C   UNL     1       7.974   8.729  17.796  0.00  0.00    +0.000 C 
BRANCH  16  17
ATOM     17  C   UNL     1       8.829   9.508  18.791  0.00  0.00    +0.000 C 
BRANCH  17  18
ATOM     18  C   UNL     1       9.326  10.812  18.158  0.00  0.00    +0.000 C 
BRANCH  18  19
ATOM     19  C   UNL     1      10.491  11.422  18.938  0.00  0.00    +0.000 C 
BRANCH  19  21
ATOM     20  C   UNL     1      10.158  12.710  21.069  0.00  0.00    +0.000 C 
ATOM     21  C   UNL     1      10.152  11.553  20.397  0.00  0.00    +0.000 C 
ENDBRANCH  19  21
ENDBRANCH  18  19
ENDBRANCH  17  18
ENDBRANCH  16  17
ENDBRANCH  15  16
ENDBRANCH   1  15
TORSDOF 8
ENDMDL
MODEL 5
REMARK VINA RESULT:      -6.7      1.006      1.223
REMARK  Name = 
REMARK  10 active torsions:
REMARK  status: ('A' for Active; 'I' for Inactive)
REMARK    1  A    between atoms: C_2  and  C_3
REMARK    2  A    between atoms: C_3  and  C_4
REMARK    3  A    between atoms: C_4  and  C_5
REMARK    4  A    between atoms: C_5  and  C_6
REMARK    5  A    between atoms: C_6  and  O_7
REMARK    6  A    between atoms: O_7  and  C_8
REMARK    7  A    between atoms: C_11  and  C_12
REMARK    8  A    between atoms: C_17  and  O_18
REMARK    9  A    between atoms: O_18  and  C_19
REMARK   10  A    between atoms: N_20  and  C_21
REMARK                            x       y       z     vdW  Elec       q    Type
REMARK                         _______ _______ _______ _____ _____    ______ ____
ROOT
ATOM      1  C   UNL     1       6.956   5.551  16.557  0.00  0.00    +0.000 A 
ATOM      2  N   UNL     1       7.646   4.922  17.480  0.00  0.00    +0.000 NA
ATOM      3  C   UNL     1       6.756   4.729  18.509  0.00  0.00    +0.000 A 
ATOM      4  C   UNL     1       5.488   5.203  18.204  0.00  0.00    +0.000 A 
ATOM      5  N   UNL     1       5.697   5.872  16.989  0.00  0.00    +0.000 N 
ATOM      6  C   UNL     1       4.793   6.705  16.242  0.00  0.00    +0.000 C 
ENDROOT
BRANCH   4   7
ATOM      7  C   UNL     1       4.200   5.014  18.904  0.00  0.00    +0.000 A 
ATOM      8  C   UNL     1       3.479   6.174  19.263  0.00  0.00    +0.000 A 
ATOM      9  C   UNL     1       2.301   6.126  19.995  0.00  0.00    +0.000 A 
ATOM     10  C   UNL     1       1.747   4.897  20.312  0.00  0.00    +0.000 A 
ATOM     11  C   UNL     1       2.378   3.731  19.888  0.00  0.00    +0.000 A 
ATOM     12  C   UNL     1       3.592   3.766  19.174  0.00  0.00    +0.000 A 
BRANCH  12  13
ATOM     13  O   UNL     1       4.207   2.605  18.754  0.00  0.00    +0.000 OA
ATOM     14  C   UNL     1       3.331   1.526  18.412  0.00  0.00    +0.000 C 
ENDBRANCH  12  13
ENDBRANCH   4   7
BRANCH   1  15
ATOM     15  O   UNL     1       7.396   5.806  15.316  0.00  0.00    +0.000 OA
BRANCH  15  16
ATOM     16  C   UNL     1       7.018   4.786  14.381  0.00  0.00    +0.000 C 
BRANCH  16  17
ATOM     17  C   UNL     1       7.752   4.974  13.057  0.00  0.00    +0.000 C 
BRANCH  17  18
ATOM     18  C   UNL     1       7.015   4.240  11.932  0.00  0.00    +0.000 C 
BRANCH  18  19
ATOM     19  C   UNL     1       5.910   3.328  12.468  0.00  0.00    +0.000 C 
BRANCH  19  21
ATOM     20  C   UNL     1       6.638   1.382  11.056  0.00  0.00    +0.000 C 
ATOM     21  C   UNL     1       5.671   2.170  11.539  0.00  0.00    +0.000 C 
ENDBRANCH  19  21
ENDBRANCH  18  19
ENDBRANCH  17  18
ENDBRANCH  16  17
ENDBRANCH  15  16
ENDBRANCH   1  15
TORSDOF 8
ENDMDL
MODEL 6
REMARK VINA RESULT:      -6.7      1.484      2.116
REMARK  Name = 
REMARK  10 active torsions:
REMARK  status: ('A' for Active; 'I' for Inactive)
REMARK    1  A    between atoms: C_2  and  C_3
REMARK    2  A    between atoms: C_3  and  C_4
REMARK    3  A    between atoms: C_4  and  C_5
REMARK    4  A    between atoms: C_5  and  C_6
REMARK    5  A    between atoms: C_6  and  O_7
REMARK    6  A    between atoms: O_7  and  C_8
REMARK    7  A    between atoms: C_11  and  C_12
REMARK    8  A    between atoms: C_17  and  O_18
REMARK    9  A    between atoms: O_18  and  C_19
REMARK   10  A    between atoms: N_20  and  C_21
REMARK                            x       y       z     vdW  Elec       q    Type
REMARK                         _______ _______ _______ _____ _____    ______ ____
ROOT
ATOM      1  C   UNL     1       6.456   4.328  17.109  0.00  0.00    +0.000 A 
ATOM      2  N   UNL     1       7.169   4.838  18.087  0.00  0.00    +0.000 NA
ATOM      3  C   UNL     1       6.279   4.992  19.123  0.00  0.00    +0.000 A 
ATOM      4  C   UNL     1       5.011   4.530  18.800  0.00  0.00    +0.000 A 
ATOM      5  N   UNL     1       5.127   4.253  17.430  0.00  0.00    +0.000 N 
ATOM      6  C   UNL     1       4.105   3.889  16.486  0.00  0.00    +0.000 C 
ENDROOT
BRANCH   4   7
ATOM      7  C   UNL     1       3.829   4.299  19.657  0.00  0.00    +0.000 A 
ATOM      8  C   UNL     1       3.683   3.017  20.232  0.00  0.00    +0.000 A 
ATOM      9  C   UNL     1       2.574   2.657  20.985  0.00  0.00    +0.000 A 
ATOM     10  C   UNL     1       1.610   3.608  21.273  0.00  0.00    +0.000 A 
ATOM     11  C   UNL     1       1.770   4.909  20.807  0.00  0.00    +0.000 A 
ATOM     12  C   UNL     1       2.873   5.279  20.012  0.00  0.00    +0.000 A 
BRANCH  12  13
ATOM     13  O   UNL     1       3.025   6.573  19.559  0.00  0.00    +0.000 OA
ATOM     14  C   UNL     1       2.350   6.887  18.337  0.00  0.00    +0.000 C 
ENDBRANCH  12  13
ENDBRANCH   4   7
BRANCH   1  15
ATOM     15  O   UNL     1       6.961   3.877  15.952  0.00  0.00    +0.000 OA
BRANCH  15  16
ATOM     16  C   UNL     1       6.900   4.859  14.909  0.00  0.00    +0.000 C 
BRANCH  16  17
ATOM     17  C   UNL     1       5.931   4.422  13.815  0.00  0.00    +0.000 C 
BRANCH  17  18
ATOM     18  C   UNL     1       6.690   3.737  12.674  0.00  0.00    +0.000 C 
BRANCH  18  19
ATOM     19  C   UNL     1       5.777   2.848  11.828  0.00  0.00    +0.000 C 
BRANCH  19  21
ATOM     20  C   UNL     1       3.507   3.037  10.772  0.00  0.00    +0.000 C 
ATOM     21  C   UNL     1       4.444   3.505  11.604  0.00  0.00    +0.000 C 
ENDBRANCH  19  21
ENDBRANCH  18  19
ENDBRANCH  17  18
ENDBRANCH  16  17
ENDBRANCH  15  16
ENDBRANCH   1  15
TORSDOF 8
ENDMDL
MODEL 7
REMARK VINA RESULT:      -6.7      1.165      1.178
REMARK  Name = 
REMARK  10 active torsions:
REMARK  status: ('A' for Active; 'I' for Inactive)
REMARK    1  A    between atoms: C_2  and  C_3
REMARK    2  A    between atoms: C_3  and  C_4
REMARK    3  A    between atoms: C_4  and  C_5
REMARK    4  A    between atoms: C_5  and  C_6
REMARK    5  A    between atoms: C_6  and  O_7
REMARK    6  A    between atoms: O_7  and  C_8
REMARK    7  A    between atoms: C_11  and  C_12
REMARK    8  A    between atoms: C_17  and  O_18
REMARK    9  A    between atoms: O_18  and  C_19
REMARK   10  A    between atoms: N_20  and  C_21
REMARK                            x       y       z     vdW  Elec       q    Type
REMARK                         _______ _______ _______ _____ _____    ______ ____
ROOT
ATOM      1  C   UNL     1       6.333   4.322  16.715  0.00  0.00    +0.000 A 
ATOM      2  N   UNL     1       7.118   4.866  17.616  0.00  0.00    +0.000 NA
ATOM      3  C   UNL     1       6.319   5.025  18.722  0.00  0.00    +0.000 A 
ATOM      4  C   UNL     1       5.038   4.532  18.522  0.00  0.00    +0.000 A 
ATOM      5  N   UNL     1       5.039   4.228  17.153  0.00  0.00    +0.000 N 
ATOM      6  C   UNL     1       3.946   3.824  16.310  0.00  0.00    +0.000 C 
ENDROOT
BRANCH   4   7
ATOM      7  C   UNL     1       3.941   4.296  19.484  0.00  0.00    +0.000 A 
ATOM      8  C   UNL     1       3.097   5.387  19.789  0.00  0.00    +0.000 A 
ATOM      9  C   UNL     1       2.087   5.309  20.738  0.00  0.00    +0.000 A 
ATOM     10  C   UNL     1       1.820   4.095  21.348  0.00  0.00    +0.000 A 
ATOM     11  C   UNL     1       2.565   2.973  20.999  0.00  0.00    +0.000 A 
ATOM     12  C   UNL     1       3.616   3.047  20.063  0.00  0.00    +0.000 A 
BRANCH  12  13
ATOM     13  O   UNL     1       4.346   1.928  19.719  0.00  0.00    +0.000 OA
ATOM     14  C   UNL     1       3.778   1.106  18.695  0.00  0.00    +0.000 C 
ENDBRANCH  12  13
ENDBRANCH   4   7
BRANCH   1  15
ATOM     15  O   UNL     1       6.743   3.856  15.526  0.00  0.00    +0.000 OA
BRANCH  15  16
ATOM     16  C   UNL     1       6.932   4.902  14.564  0.00  0.00    +0.000 C 
BRANCH  16  17
ATOM     17  C   UNL     1       6.767   4.364  13.146  0.00  0.00    +0.000 C 
BRANCH  17  18
ATOM     18  C   UNL     1       5.319   3.920  12.912  0.00  0.00    +0.000 C 
BRANCH  18  19
ATOM     19  C   UNL     1       5.218   2.833  11.840  0.00  0.00    +0.000 C 
BRANCH  19  21
ATOM     20  C   UNL     1       3.538   3.998  10.381  0.00  0.00    +0.000 C 
ATOM     21  C   UNL     1       3.915   2.932  11.096  0.00  0.00    +0.000 C 
ENDBRANCH  19  21
ENDBRANCH  18  19
ENDBRANCH  17  18
ENDBRANCH  16  17
ENDBRANCH  15  16
ENDBRANCH   1  15
TORSDOF 8
ENDMDL
MODEL 8
REMARK VINA RESULT:      -6.6      3.377      5.848
REMARK  Name = 
REMARK  10 active torsions:
REMARK  status: ('A' for Active; 'I' for Inactive)
REMARK    1  A    between atoms: C_2  and  C_3
REMARK    2  A    between atoms: C_3  and  C_4
REMARK    3  A    between atoms: C_4  and  C_5
REMARK    4  A    between atoms: C_5  and  C_6
REMARK    5  A    between atoms: C_6  and  O_7
REMARK    6  A    between atoms: O_7  and  C_8
REMARK    7  A    between atoms: C_11  and  C_12
REMARK    8  A    between atoms: C_17  and  O_18
REMARK    9  A    between atoms: O_18  and  C_19
REMARK   10  A    between atoms: N_20  and  C_21
REMARK                            x       y       z     vdW  Elec       q    Type
REMARK                         _______ _______ _______ _____ _____    ______ ____
ROOT
ATOM      1  C   UNL     1       6.629   6.481  17.141  0.00  0.00    +0.000 A 
ATOM      2  N   UNL     1       5.891   6.584  16.059  0.00  0.00    +0.000 NA
ATOM      3  C   UNL     1       4.679   6.042  16.412  0.00  0.00    +0.000 A 
ATOM      4  C   UNL     1       4.647   5.641  17.740  0.00  0.00    +0.000 A 
ATOM      5  N   UNL     1       5.984   5.797  18.137  0.00  0.00    +0.000 N 
ATOM      6  C   UNL     1       6.621   5.400  19.363  0.00  0.00    +0.000 C 
ENDROOT
BRANCH   4   7
ATOM      7  C   UNL     1       3.512   5.222  18.588  0.00  0.00    +0.000 A 
ATOM      8  C   UNL     1       2.962   6.186  19.462  0.00  0.00    +0.000 A 
ATOM      9  C   UNL     1       1.951   5.887  20.364  0.00  0.00    +0.000 A 
ATOM     10  C   UNL     1       1.381   4.625  20.353  0.00  0.00    +0.000 A 
ATOM     11  C   UNL     1       1.829   3.679  19.436  0.00  0.00    +0.000 A 
ATOM     12  C   UNL     1       2.879   3.958  18.539  0.00  0.00    +0.000 A 
BRANCH  12  13
ATOM     13  O   UNL     1       3.312   3.015  17.631  0.00  0.00    +0.000 OA
ATOM     14  C   UNL     1       3.615   1.725  18.171  0.00  0.00    +0.000 C 
ENDBRANCH  12  13
ENDBRANCH   4   7
BRANCH   1  15
ATOM     15  O   UNL     1       7.845   7.025  17.289  0.00  0.00    +0.000 OA
BRANCH  15  16
ATOM     16  C   UNL     1       7.789   8.439  17.519  0.00  0.00    +0.000 C 
BRANCH  16  17
ATOM     17  C   UNL     1       8.683   8.827  18.693  0.00  0.00    +0.000 C 
BRANCH  17  18
ATOM     18  C   UNL     1       9.065  10.308  18.603  0.00  0.00    +0.000 C 
BRANCH  18  19
ATOM     19  C   UNL     1       9.454  10.885  19.965  0.00  0.00    +0.000 C 
BRANCH  19  21
ATOM     20  C   UNL     1      11.099  12.782  19.897  0.00  0.00    +0.000 C 
ATOM     21  C   UNL     1      10.839  11.470  19.925  0.00  0.00    +0.000 C 
ENDBRANCH  19  21
ENDBRANCH  18  19
ENDBRANCH  17  18
ENDBRANCH  16  17
ENDBRANCH  15  16
ENDBRANCH   1  15
TORSDOF 8
ENDMDL
MODEL 9
REMARK VINA RESULT:      -6.6      2.480      6.404
REMARK  Name = 
REMARK  10 active torsions:
REMARK  status: ('A' for Active; 'I' for Inactive)
REMARK    1  A    between atoms: C_2  and  C_3
REMARK    2  A    between atoms: C_3  and  C_4
REMARK    3  A    between atoms: C_4  and  C_5
REMARK    4  A    between atoms: C_5  and  C_6
REMARK    5  A    between atoms: C_6  and  O_7
REMARK    6  A    between atoms: O_7  and  C_8
REMARK    7  A    between atoms: C_11  and  C_12
REMARK    8  A    between atoms: C_17  and  O_18
REMARK    9  A    between atoms: O_18  and  C_19
REMARK   10  A    between atoms: N_20  and  C_21
REMARK                            x       y       z     vdW  Elec       q    Type
REMARK                         _______ _______ _______ _____ _____    ______ ____
ROOT
ATOM      1  C   UNL     1       2.266   3.977  17.475  0.00  0.00    +0.000 A 
ATOM      2  N   UNL     1       2.891   2.940  16.968  0.00  0.00    +0.000 NA
ATOM      3  C   UNL     1       4.210   3.320  16.914  0.00  0.00    +0.000 A 
ATOM      4  C   UNL     1       4.414   4.590  17.435  0.00  0.00    +0.000 A 
ATOM      5  N   UNL     1       3.105   5.048  17.643  0.00  0.00    +0.000 N 
ATOM      6  C   UNL     1       2.648   6.357  18.025  0.00  0.00    +0.000 C 
ENDROOT
BRANCH   4   7
ATOM      7  C   UNL     1       5.667   5.297  17.775  0.00  0.00    +0.000 A 
ATOM      8  C   UNL     1       6.179   5.122  19.079  0.00  0.00    +0.000 A 
ATOM      9  C   UNL     1       7.300   5.799  19.539  0.00  0.00    +0.000 A 
ATOM     10  C   UNL     1       8.012   6.606  18.668  0.00  0.00    +0.000 A 
ATOM     11  C   UNL     1       7.594   6.724  17.346  0.00  0.00    +0.000 A 
ATOM     12  C   UNL     1       6.437   6.070  16.876  0.00  0.00    +0.000 A 
BRANCH  12  13
ATOM     13  O   UNL     1       6.034   6.190  15.562  0.00  0.00    +0.000 OA
ATOM     14  C   UNL     1       6.565   5.215  14.658  0.00  0.00    +0.000 C 
ENDBRANCH  12  13
ENDBRANCH   4   7
BRANCH   1  15
ATOM     15  O   UNL     1       0.977   3.988  17.843  0.00  0.00    +0.000 OA
BRANCH  15  16
ATOM     16  C   UNL     1       0.711   3.096  18.934  0.00  0.00    +0.000 C 
BRANCH  16  17
ATOM     17  C   UNL     1       0.867   3.819  20.268  0.00  0.00    +0.000 C 
BRANCH  17  18
ATOM     18  C   UNL     1       1.194   2.818  21.380  0.00  0.00    +0.000 C 
BRANCH  18  19
ATOM     19  C   UNL     1       2.697   2.733  21.653  0.00  0.00    +0.000 C 
BRANCH  19  21
ATOM     20  C   UNL     1       4.762   2.066  20.389  0.00  0.00    +0.000 C 
ATOM     21  C   UNL     1       3.438   2.254  20.436  0.00  0.00    +0.000 C 
ENDBRANCH  19  21
ENDBRANCH  18  19
ENDBRANCH  17  18
ENDBRANCH  16  17
ENDBRANCH  15  16
ENDBRANCH   1  15
TORSDOF 8
ENDMDL
