MODEL 1
REMARK VINA RESULT:      -8.6      0.000      0.000
REMARK  Name = 
REMARK  5 active torsions:
REMARK  status: ('A' for Active; 'I' for Inactive)
REMARK    1  A    between atoms: O_1  and  C_2
REMARK    2  A    between atoms: C_2  and  C_3
REMARK    3  A    between atoms: C_2  and  C_19
REMARK    4  A    between atoms: C_2  and  C_27
REMARK    5  A    between atoms: N_10  and  C_11
REMARK                            x       y       z     vdW  Elec       q    Type
REMARK                         _______ _______ _______ _____ _____    ______ ____
ROOT
ATOM      1  C   UNL     1       2.478   6.081  18.903  0.00  0.00    +0.000 A 
ATOM      2  C   UNL     1       2.392   7.079  17.918  0.00  0.00    +0.000 A 
ATOM      3  C   UNL     1       1.946   8.373  18.206  0.00  0.00    +0.000 A 
ATOM      4  C   UNL     1       1.526   8.663  19.512  0.00  0.00    +0.000 A 
ATOM      5  C   UNL     1       1.636   7.717  20.523  0.00  0.00    +0.000 A 
ATOM      6  C   UNL     1       1.189   8.375  21.681  0.00  0.00    +0.000 A 
ATOM      7  N   UNL     1       0.889   9.656  21.465  0.00  0.00    +0.000 NA
ATOM      8  N   UNL     1       1.028   9.813  20.121  0.00  0.00    +0.000 N 
ATOM      9  C   UNL     1       2.114   6.421  20.225  0.00  0.00    +0.000 A 
ENDROOT
BRANCH   8  10
ATOM     10  C   UNL     1       0.705  11.061  19.521  0.00  0.00    +0.000 A 
ATOM     11  C   UNL     1      -0.625  11.309  19.148  0.00  0.00    +0.000 A 
ATOM     12  C   UNL     1      -0.980  12.550  18.615  0.00  0.00    +0.000 A 
ATOM     13  C   UNL     1      -0.002  13.519  18.422  0.00  0.00    +0.000 A 
ATOM     14  F   UNL     1      -0.343  14.710  17.914  0.00  0.00    +0.000 F 
ATOM     15  C   UNL     1       1.328  13.271  18.743  0.00  0.00    +0.000 A 
ATOM     16  C   UNL     1       1.686  12.038  19.295  0.00  0.00    +0.000 A 
ENDBRANCH   8  10
BRANCH   1  17
ATOM     17  C   UNL     1       2.918   4.630  18.591  0.00  0.00    +0.000 C 
BRANCH  17  18
ATOM     18  C   UNL     1       4.173   4.545  17.674  0.00  0.00    +0.000 A 
ATOM     19  C   UNL     1       4.022   4.353  16.281  0.00  0.00    +0.000 A 
ATOM     20  C   UNL     1       5.120   4.175  15.435  0.00  0.00    +0.000 A 
ATOM     21  C   UNL     1       6.409   4.222  15.947  0.00  0.00    +0.000 A 
ATOM     22  C   UNL     1       6.608   4.505  17.297  0.00  0.00    +0.000 A 
ATOM     23 CL   UNL     1       8.249   4.616  17.838  0.00  0.00    +0.000 Cl
ATOM     24  C   UNL     1       5.505   4.693  18.157  0.00  0.00    +0.000 A 
ATOM     25 CL   UNL     1       5.821   5.223  19.789  0.00  0.00    +0.000 Cl
ENDBRANCH  17  18
BRANCH  17  26
ATOM     26  C   UNL     1       1.647   3.806  18.078  0.00  0.00    +0.000 C 
ATOM     27  F   UNL     1       0.780   3.543  19.093  0.00  0.00    +0.000 F 
ATOM     28  F   UNL     1       0.937   4.482  17.139  0.00  0.00    +0.000 F 
ATOM     29  F   UNL     1       1.951   2.605  17.533  0.00  0.00    +0.000 F 
ENDBRANCH  17  26
BRANCH  17  30
ATOM     30  O   UNL     1       3.307   4.026  19.852  0.00  0.00    +0.000 OA
ATOM     31  H   UNL     1       3.042   3.087  19.814  0.00  0.00    +0.000 HD
ENDBRANCH  17  30
ENDBRANCH   1  17
TORSDOF 5
ENDMDL
MODEL 2
REMARK VINA RESULT:      -8.4      1.672      2.414
REMARK  Name = 
REMARK  5 active torsions:
REMARK  status: ('A' for Active; 'I' for Inactive)
REMARK    1  A    between atoms: O_1  and  C_2
REMARK    2  A    between atoms: C_2  and  C_3
REMARK    3  A    between atoms: C_2  and  C_19
REMARK    4  A    between atoms: C_2  and  C_27
REMARK    5  A    between atoms: N_10  and  C_11
REMARK                            x       y       z     vdW  Elec       q    Type
REMARK                         _______ _______ _______ _____ _____    ______ ____
ROOT
ATOM      1  C   UNL     1       2.401   5.541  19.108  0.00  0.00    +0.000 A 
ATOM      2  C   UNL     1       1.729   5.807  20.311  0.00  0.00    +0.000 A 
ATOM      3  C   UNL     1       1.242   7.080  20.628  0.00  0.00    +0.000 A 
ATOM      4  C   UNL     1       1.480   8.131  19.731  0.00  0.00    +0.000 A 
ATOM      5  C   UNL     1       2.103   7.901  18.512  0.00  0.00    +0.000 A 
ATOM      6  C   UNL     1       2.108   9.150  17.869  0.00  0.00    +0.000 A 
ATOM      7  N   UNL     1       1.477  10.093  18.568  0.00  0.00    +0.000 NA
ATOM      8  N   UNL     1       1.153   9.485  19.741  0.00  0.00    +0.000 N 
ATOM      9  C   UNL     1       2.566   6.604  18.192  0.00  0.00    +0.000 A 
ENDROOT
BRANCH   8  10
ATOM     10  C   UNL     1       0.528  10.236  20.773  0.00  0.00    +0.000 A 
ATOM     11  C   UNL     1       0.409  11.627  20.623  0.00  0.00    +0.000 A 
ATOM     12  C   UNL     1      -0.257  12.379  21.593  0.00  0.00    +0.000 A 
ATOM     13  C   UNL     1      -0.765  11.746  22.722  0.00  0.00    +0.000 A 
ATOM     14  F   UNL     1      -1.406  12.467  23.651  0.00  0.00    +0.000 F 
ATOM     15  C   UNL     1      -0.614  10.377  22.907  0.00  0.00    +0.000 A 
ATOM     16  C   UNL     1       0.035   9.616  21.931  0.00  0.00    +0.000 A 
ENDBRANCH   8  10
BRANCH   1  17
ATOM     17  C   UNL     1       2.994   4.153  18.767  0.00  0.00    +0.000 C 
BRANCH  17  18
ATOM     18  C   UNL     1       4.239   4.221  17.835  0.00  0.00    +0.000 A 
ATOM     19  C   UNL     1       4.103   3.972  16.450  0.00  0.00    +0.000 A 
ATOM     20  C   UNL     1       5.205   3.928  15.592  0.00  0.00    +0.000 A 
ATOM     21  C   UNL     1       6.480   4.172  16.084  0.00  0.00    +0.000 A 
ATOM     22  C   UNL     1       6.651   4.517  17.423  0.00  0.00    +0.000 A 
ATOM     23 CL   UNL     1       8.265   4.875  17.938  0.00  0.00    +0.000 Cl
ATOM     24  C   UNL     1       5.542   4.570  18.294  0.00  0.00    +0.000 A 
ATOM     25 CL   UNL     1       5.797   5.184  19.907  0.00  0.00    +0.000 Cl
ENDBRANCH  17  18
BRANCH  17  26
ATOM     26  C   UNL     1       1.816   3.201  18.255  0.00  0.00    +0.000 C 
ATOM     27  F   UNL     1       1.085   2.710  19.292  0.00  0.00    +0.000 F 
ATOM     28  F   UNL     1       0.939   3.851  17.448  0.00  0.00    +0.000 F 
ATOM     29  F   UNL     1       2.242   2.120  17.560  0.00  0.00    +0.000 F 
ENDBRANCH  17  26
BRANCH  17  30
ATOM     30  O   UNL     1       3.465   3.576  20.014  0.00  0.00    +0.000 OA
ATOM     31  H   UNL     1       2.676   3.353  20.542  0.00  0.00    +0.000 HD
ENDBRANCH  17  30
ENDBRANCH   1  17
TORSDOF 5
ENDMDL
MODEL 3
REMARK VINA RESULT:      -8.4      4.449      8.585
REMARK  Name = 
REMARK  5 active torsions:
REMARK  status: ('A' for Active; 'I' for Inactive)
REMARK    1  A    between atoms: O_1  and  C_2
REMARK    2  A    between atoms: C_2  and  C_3
REMARK    3  A    between atoms: C_2  and  C_19
REMARK    4  A    between atoms: C_2  and  C_27
REMARK    5  A    between atoms: N_10  and  C_11
REMARK                            x       y       z     vdW  Elec       q    Type
REMARK                         _______ _______ _______ _____ _____    ______ ____
ROOT
ATOM      1  C   UNL     1       0.843   9.641  19.062  0.00  0.00    +0.000 A 
ATOM      2  C   UNL     1       1.575   9.547  17.868  0.00  0.00    +0.000 A 
ATOM      3  C   UNL     1       2.443   8.481  17.608  0.00  0.00    +0.000 A 
ATOM      4  C   UNL     1       2.620   7.504  18.597  0.00  0.00    +0.000 A 
ATOM      5  C   UNL     1       1.883   7.538  19.773  0.00  0.00    +0.000 A 
ATOM      6  C   UNL     1       2.275   6.387  20.477  0.00  0.00    +0.000 A 
ATOM      7  N   UNL     1       3.130   5.628  19.791  0.00  0.00    +0.000 NA
ATOM      8  N   UNL     1       3.396   6.349  18.669  0.00  0.00    +0.000 N 
ATOM      9  C   UNL     1       0.988   8.606  20.012  0.00  0.00    +0.000 A 
ENDROOT
BRANCH   8  10
ATOM     10  C   UNL     1       4.349   5.864  17.731  0.00  0.00    +0.000 A 
ATOM     11  C   UNL     1       5.490   6.638  17.465  0.00  0.00    +0.000 A 
ATOM     12  C   UNL     1       6.471   6.156  16.596  0.00  0.00    +0.000 A 
ATOM     13  C   UNL     1       6.291   4.928  15.970  0.00  0.00    +0.000 A 
ATOM     14  F   UNL     1       7.234   4.465  15.140  0.00  0.00    +0.000 F 
ATOM     15  C   UNL     1       5.144   4.173  16.188  0.00  0.00    +0.000 A 
ATOM     16  C   UNL     1       4.168   4.641  17.071  0.00  0.00    +0.000 A 
ENDBRANCH   8  10
BRANCH   1  17
ATOM     17  C   UNL     1      -0.080  10.840  19.388  0.00  0.00    +0.000 C 
BRANCH  17  18
ATOM     18  C   UNL     1      -1.436  10.806  18.626  0.00  0.00    +0.000 A 
ATOM     19  C   UNL     1      -1.604   9.947  17.515  0.00  0.00    +0.000 A 
ATOM     20  C   UNL     1      -2.769   9.954  16.743  0.00  0.00    +0.000 A 
ATOM     21  C   UNL     1      -3.824  10.790  17.080  0.00  0.00    +0.000 A 
ATOM     22  C   UNL     1      -3.741  11.582  18.224  0.00  0.00    +0.000 A 
ATOM     23 CL   UNL     1      -5.129  12.542  18.611  0.00  0.00    +0.000 Cl
ATOM     24  C   UNL     1      -2.570  11.577  19.012  0.00  0.00    +0.000 A 
ATOM     25 CL   UNL     1      -2.599  12.447  20.524  0.00  0.00    +0.000 Cl
ENDBRANCH  17  18
BRANCH  17  26
ATOM     26  C   UNL     1       0.756  12.193  19.224  0.00  0.00    +0.000 C 
ATOM     27  F   UNL     1       0.555  12.758  18.002  0.00  0.00    +0.000 F 
ATOM     28  F   UNL     1       0.404  13.133  20.138  0.00  0.00    +0.000 F 
ATOM     29  F   UNL     1       2.095  12.033  19.340  0.00  0.00    +0.000 F 
ENDBRANCH  17  26
BRANCH  17  30
ATOM     30  O   UNL     1      -0.416  10.744  20.798  0.00  0.00    +0.000 OA
ATOM     31  H   UNL     1       0.420  10.613  21.283  0.00  0.00    +0.000 HD
ENDBRANCH  17  30
ENDBRANCH   1  17
TORSDOF 5
ENDMDL
MODEL 4
REMARK VINA RESULT:      -8.2      2.359      3.159
REMARK  Name = 
REMARK  5 active torsions:
REMARK  status: ('A' for Active; 'I' for Inactive)
REMARK    1  A    between atoms: O_1  and  C_2
REMARK    2  A    between atoms: C_2  and  C_3
REMARK    3  A    between atoms: C_2  and  C_19
REMARK    4  A    between atoms: C_2  and  C_27
REMARK    5  A    between atoms: N_10  and  C_11
REMARK                            x       y       z     vdW  Elec       q    Type
REMARK                         _______ _______ _______ _____ _____    ______ ____
ROOT
ATOM      1  C   UNL     1       3.327   5.222  19.260  0.00  0.00    +0.000 A 
ATOM      2  C   UNL     1       2.609   5.404  20.453  0.00  0.00    +0.000 A 
ATOM      3  C   UNL     1       1.883   6.571  20.716  0.00  0.00    +0.000 A 
ATOM      4  C   UNL     1       1.918   7.608  19.774  0.00  0.00    +0.000 A 
ATOM      5  C   UNL     1       2.580   7.451  18.564  0.00  0.00    +0.000 A 
ATOM      6  C   UNL     1       2.346   8.649  17.867  0.00  0.00    +0.000 A 
ATOM      7  N   UNL     1       1.539   9.481  18.527  0.00  0.00    +0.000 NA
ATOM      8  N   UNL     1       1.334   8.873  19.726  0.00  0.00    +0.000 N 
ATOM      9  C   UNL     1       3.287   6.256  18.298  0.00  0.00    +0.000 A 
ENDROOT
BRANCH   8  10
ATOM     10  C   UNL     1       0.570   9.532  20.728  0.00  0.00    +0.000 A 
ATOM     11  C   UNL     1      -0.152  10.685  20.380  0.00  0.00    +0.000 A 
ATOM     12  C   UNL     1      -0.960  11.314  21.328  0.00  0.00    +0.000 A 
ATOM     13  C   UNL     1      -1.013  10.814  22.625  0.00  0.00    +0.000 A 
ATOM     14  F   UNL     1      -1.791  11.416  23.534  0.00  0.00    +0.000 F 
ATOM     15  C   UNL     1      -0.268   9.701  22.995  0.00  0.00    +0.000 A 
ATOM     16  C   UNL     1       0.528   9.056  22.046  0.00  0.00    +0.000 A 
ENDBRANCH   8  10
BRANCH   1  17
ATOM     17  C   UNL     1       4.179   3.962  18.977  0.00  0.00    +0.000 C 
BRANCH  17  18
ATOM     18  C   UNL     1       5.159   4.130  17.779  0.00  0.00    +0.000 A 
ATOM     19  C   UNL     1       6.534   4.358  18.015  0.00  0.00    +0.000 A 
ATOM     20  C   UNL     1       7.432   4.610  16.974  0.00  0.00    +0.000 A 
ATOM     21  C   UNL     1       6.993   4.603  15.658  0.00  0.00    +0.000 A 
ATOM     22  C   UNL     1       5.666   4.287  15.373  0.00  0.00    +0.000 A 
ATOM     23 CL   UNL     1       5.218   4.231  13.701  0.00  0.00    +0.000 Cl
ATOM     24  C   UNL     1       4.754   4.025  16.417  0.00  0.00    +0.000 A 
ATOM     25 CL   UNL     1       3.160   3.458  15.990  0.00  0.00    +0.000 Cl
ENDBRANCH  17  18
BRANCH  17  26
ATOM     26  C   UNL     1       3.210   2.694  18.886  0.00  0.00    +0.000 C 
ATOM     27  F   UNL     1       2.929   2.191  20.120  0.00  0.00    +0.000 F 
ATOM     28  F   UNL     1       2.014   2.996  18.320  0.00  0.00    +0.000 F 
ATOM     29  F   UNL     1       3.717   1.660  18.174  0.00  0.00    +0.000 F 
ENDBRANCH  17  26
BRANCH  17  30
ATOM     30  O   UNL     1       5.016   3.746  20.145  0.00  0.00    +0.000 OA
ATOM     31  H   UNL     1       5.858   3.368  19.828  0.00  0.00    +0.000 HD
ENDBRANCH  17  30
ENDBRANCH   1  17
TORSDOF 5
ENDMDL
MODEL 5
REMARK VINA RESULT:      -8.2      2.350      3.240
REMARK  Name = 
REMARK  5 active torsions:
REMARK  status: ('A' for Active; 'I' for Inactive)
REMARK    1  A    between atoms: O_1  and  C_2
REMARK    2  A    between atoms: C_2  and  C_3
REMARK    3  A    between atoms: C_2  and  C_19
REMARK    4  A    between atoms: C_2  and  C_27
REMARK    5  A    between atoms: N_10  and  C_11
REMARK                            x       y       z     vdW  Elec       q    Type
REMARK                         _______ _______ _______ _____ _____    ______ ____
ROOT
ATOM      1  C   UNL     1       3.383   5.337  19.346  0.00  0.00    +0.000 A 
ATOM      2  C   UNL     1       2.614   5.523  20.505  0.00  0.00    +0.000 A 
ATOM      3  C   UNL     1       1.847   6.675  20.715  0.00  0.00    +0.000 A 
ATOM      4  C   UNL     1       1.892   7.694  19.754  0.00  0.00    +0.000 A 
ATOM      5  C   UNL     1       2.607   7.531  18.575  0.00  0.00    +0.000 A 
ATOM      6  C   UNL     1       2.370   8.708  17.845  0.00  0.00    +0.000 A 
ATOM      7  N   UNL     1       1.516   9.532  18.454  0.00  0.00    +0.000 NA
ATOM      8  N   UNL     1       1.279   8.942  19.657  0.00  0.00    +0.000 N 
ATOM      9  C   UNL     1       3.355   6.351  18.362  0.00  0.00    +0.000 A 
ENDROOT
BRANCH   8  10
ATOM     10  C   UNL     1       0.458   9.599  20.613  0.00  0.00    +0.000 A 
ATOM     11  C   UNL     1       0.383   9.078  21.915  0.00  0.00    +0.000 A 
ATOM     12  C   UNL     1      -0.366   9.740  22.889  0.00  0.00    +0.000 A 
ATOM     13  C   UNL     1      -1.065  10.893  22.551  0.00  0.00    +0.000 A 
ATOM     14  F   UNL     1      -1.781  11.530  23.487  0.00  0.00    +0.000 F 
ATOM     15  C   UNL     1      -1.039  11.395  21.255  0.00  0.00    +0.000 A 
ATOM     16  C   UNL     1      -0.276  10.747  20.280  0.00  0.00    +0.000 A 
ENDBRANCH   8  10
BRANCH   1  17
ATOM     17  C   UNL     1       4.279   4.095  19.123  0.00  0.00    +0.000 C 
BRANCH  17  18
ATOM     18  C   UNL     1       5.206   4.213  17.878  0.00  0.00    +0.000 A 
ATOM     19  C   UNL     1       6.594   4.423  18.045  0.00  0.00    +0.000 A 
ATOM     20  C   UNL     1       7.448   4.630  16.958  0.00  0.00    +0.000 A 
ATOM     21  C   UNL     1       6.949   4.593  15.664  0.00  0.00    +0.000 A 
ATOM     22  C   UNL     1       5.606   4.292  15.448  0.00  0.00    +0.000 A 
ATOM     23 CL   UNL     1       5.082   4.196  13.800  0.00  0.00    +0.000 Cl
ATOM     24  C   UNL     1       4.738   4.076  16.539  0.00  0.00    +0.000 A 
ATOM     25 CL   UNL     1       3.118   3.525  16.200  0.00  0.00    +0.000 Cl
ENDBRANCH  17  18
BRANCH  17  26
ATOM     26  C   UNL     1       3.363   2.785  19.164  0.00  0.00    +0.000 C 
ATOM     27  F   UNL     1       3.921   1.763  18.459  0.00  0.00    +0.000 F 
ATOM     28  F   UNL     1       3.183   2.319  20.427  0.00  0.00    +0.000 F 
ATOM     29  F   UNL     1       2.126   2.959  18.643  0.00  0.00    +0.000 F 
ENDBRANCH  17  26
BRANCH  17  30
ATOM     30  O   UNL     1       5.166   4.002  20.269  0.00  0.00    +0.000 OA
ATOM     31  H   UNL     1       4.861   3.248  20.807  0.00  0.00    +0.000 HD
ENDBRANCH  17  30
ENDBRANCH   1  17
TORSDOF 5
ENDMDL
MODEL 6
REMARK VINA RESULT:      -8.1      1.681      2.412
REMARK  Name = 
REMARK  5 active torsions:
REMARK  status: ('A' for Active; 'I' for Inactive)
REMARK    1  A    between atoms: O_1  and  C_2
REMARK    2  A    between atoms: C_2  and  C_3
REMARK    3  A    between atoms: C_2  and  C_19
REMARK    4  A    between atoms: C_2  and  C_27
REMARK    5  A    between atoms: N_10  and  C_11
REMARK                            x       y       z     vdW  Elec       q    Type
REMARK                         _______ _______ _______ _____ _____    ______ ____
ROOT
ATOM      1  C   UNL     1       2.402   5.598  19.236  0.00  0.00    +0.000 A 
ATOM      2  C   UNL     1       1.715   5.922  20.417  0.00  0.00    +0.000 A 
ATOM      3  C   UNL     1       1.224   7.209  20.665  0.00  0.00    +0.000 A 
ATOM      4  C   UNL     1       1.473   8.214  19.721  0.00  0.00    +0.000 A 
ATOM      5  C   UNL     1       2.111   7.925  18.522  0.00  0.00    +0.000 A 
ATOM      6  C   UNL     1       2.123   9.142  17.819  0.00  0.00    +0.000 A 
ATOM      7  N   UNL     1       1.483  10.118  18.463  0.00  0.00    +0.000 NA
ATOM      8  N   UNL     1       1.146   9.568  19.660  0.00  0.00    +0.000 N 
ATOM      9  C   UNL     1       2.578   6.615  18.271  0.00  0.00    +0.000 A 
ENDROOT
BRANCH   8  10
ATOM     10  C   UNL     1       0.508  10.368  20.648  0.00  0.00    +0.000 A 
ATOM     11  C   UNL     1      -0.122   9.733  21.731  0.00  0.00    +0.000 A 
ATOM     12  C   UNL     1      -0.700  10.497  22.746  0.00  0.00    +0.000 A 
ATOM     13  C   UNL     1      -0.683  11.885  22.655  0.00  0.00    +0.000 A 
ATOM     14  F   UNL     1      -1.235  12.617  23.630  0.00  0.00    +0.000 F 
ATOM     15  C   UNL     1      -0.105  12.525  21.566  0.00  0.00    +0.000 A 
ATOM     16  C   UNL     1       0.493  11.767  20.556  0.00  0.00    +0.000 A 
ENDBRANCH   8  10
BRANCH   1  17
ATOM     17  C   UNL     1       2.999   4.195  18.970  0.00  0.00    +0.000 C 
BRANCH  17  18
ATOM     18  C   UNL     1       4.161   4.201  17.935  0.00  0.00    +0.000 A 
ATOM     19  C   UNL     1       3.905   3.888  16.580  0.00  0.00    +0.000 A 
ATOM     20  C   UNL     1       4.931   3.787  15.636  0.00  0.00    +0.000 A 
ATOM     21  C   UNL     1       6.245   4.036  16.006  0.00  0.00    +0.000 A 
ATOM     22  C   UNL     1       6.532   4.442  17.308  0.00  0.00    +0.000 A 
ATOM     23 CL   UNL     1       8.188   4.800  17.666  0.00  0.00    +0.000 Cl
ATOM     24  C   UNL     1       5.502   4.552  18.265  0.00  0.00    +0.000 A 
ATOM     25 CL   UNL     1       5.899   5.239  19.819  0.00  0.00    +0.000 Cl
ENDBRANCH  17  18
BRANCH  17  26
ATOM     26  C   UNL     1       1.807   3.181  18.645  0.00  0.00    +0.000 C 
ATOM     27  F   UNL     1       0.917   3.721  17.768  0.00  0.00    +0.000 F 
ATOM     28  F   UNL     1       2.248   2.030  18.075  0.00  0.00    +0.000 F 
ATOM     29  F   UNL     1       1.082   2.815  19.728  0.00  0.00    +0.000 F 
ENDBRANCH  17  26
BRANCH  17  30
ATOM     30  O   UNL     1       3.585   3.741  20.219  0.00  0.00    +0.000 OA
ATOM     31  H   UNL     1       2.847   3.524  20.819  0.00  0.00    +0.000 HD
ENDBRANCH  17  30
ENDBRANCH   1  17
TORSDOF 5
ENDMDL
MODEL 7
REMARK VINA RESULT:      -7.8      4.387      8.311
REMARK  Name = 
REMARK  5 active torsions:
REMARK  status: ('A' for Active; 'I' for Inactive)
REMARK    1  A    between atoms: O_1  and  C_2
REMARK    2  A    between atoms: C_2  and  C_3
REMARK    3  A    between atoms: C_2  and  C_19
REMARK    4  A    between atoms: C_2  and  C_27
REMARK    5  A    between atoms: N_10  and  C_11
REMARK                            x       y       z     vdW  Elec       q    Type
REMARK                         _______ _______ _______ _____ _____    ______ ____
ROOT
ATOM      1  C   UNL     1       1.220   9.229  18.901  0.00  0.00    +0.000 A 
ATOM      2  C   UNL     1       2.058   9.226  17.775  0.00  0.00    +0.000 A 
ATOM      3  C   UNL     1       2.947   8.178  17.510  0.00  0.00    +0.000 A 
ATOM      4  C   UNL     1       3.034   7.125  18.430  0.00  0.00    +0.000 A 
ATOM      5  C   UNL     1       2.194   7.070  19.534  0.00  0.00    +0.000 A 
ATOM      6  C   UNL     1       2.521   5.864  20.176  0.00  0.00    +0.000 A 
ATOM      7  N   UNL     1       3.435   5.156  19.512  0.00  0.00    +0.000 NA
ATOM      8  N   UNL     1       3.801   5.962  18.479  0.00  0.00    +0.000 N 
ATOM      9  C   UNL     1       1.280   8.121  19.776  0.00  0.00    +0.000 A 
ENDROOT
BRANCH   8  10
ATOM     10  C   UNL     1       4.836   5.548  17.596  0.00  0.00    +0.000 A 
ATOM     11  C   UNL     1       4.588   4.485  16.713  0.00  0.00    +0.000 A 
ATOM     12  C   UNL     1       5.565   4.101  15.793  0.00  0.00    +0.000 A 
ATOM     13  C   UNL     1       6.794   4.752  15.785  0.00  0.00    +0.000 A 
ATOM     14  F   UNL     1       7.729   4.385  14.900  0.00  0.00    +0.000 F 
ATOM     15  C   UNL     1       7.070   5.775  16.684  0.00  0.00    +0.000 A 
ATOM     16  C   UNL     1       6.090   6.176  17.595  0.00  0.00    +0.000 A 
ENDBRANCH   8  10
BRANCH   1  17
ATOM     17  C   UNL     1       0.271  10.405  19.238  0.00  0.00    +0.000 C 
BRANCH  17  18
ATOM     18  C   UNL     1      -0.148  10.455  20.737  0.00  0.00    +0.000 A 
ATOM     19  C   UNL     1       0.219   9.406  21.611  0.00  0.00    +0.000 A 
ATOM     20  C   UNL     1      -0.216   9.362  22.939  0.00  0.00    +0.000 A 
ATOM     21  C   UNL     1      -0.999  10.388  23.450  0.00  0.00    +0.000 A 
ATOM     22  C   UNL     1      -1.302  11.490  22.652  0.00  0.00    +0.000 A 
ATOM     23 CL   UNL     1      -2.224  12.757  23.390  0.00  0.00    +0.000 Cl
ATOM     24  C   UNL     1      -0.863  11.545  21.313  0.00  0.00    +0.000 A 
ATOM     25 CL   UNL     1      -1.118  13.026  20.428  0.00  0.00    +0.000 Cl
ENDBRANCH  17  18
BRANCH  17  26
ATOM     26  C   UNL     1      -0.941  10.403  18.196  0.00  0.00    +0.000 C 
ATOM     27  F   UNL     1      -2.107  10.022  18.787  0.00  0.00    +0.000 F 
ATOM     28  F   UNL     1      -1.170  11.632  17.666  0.00  0.00    +0.000 F 
ATOM     29  F   UNL     1      -0.768   9.564  17.148  0.00  0.00    +0.000 F 
ENDBRANCH  17  26
BRANCH  17  30
ATOM     30  O   UNL     1       1.011  11.630  18.993  0.00  0.00    +0.000 OA
ATOM     31  H   UNL     1       0.366  12.300  18.699  0.00  0.00    +0.000 HD
ENDBRANCH  17  30
ENDBRANCH   1  17
TORSDOF 5
ENDMDL
MODEL 8
REMARK VINA RESULT:      -7.6      4.435      8.433
REMARK  Name = 
REMARK  5 active torsions:
REMARK  status: ('A' for Active; 'I' for Inactive)
REMARK    1  A    between atoms: O_1  and  C_2
REMARK    2  A    between atoms: C_2  and  C_3
REMARK    3  A    between atoms: C_2  and  C_19
REMARK    4  A    between atoms: C_2  and  C_27
REMARK    5  A    between atoms: N_10  and  C_11
REMARK                            x       y       z     vdW  Elec       q    Type
REMARK                         _______ _______ _______ _____ _____    ______ ____
ROOT
ATOM      1  C   UNL     1       1.049   9.417  18.882  0.00  0.00    +0.000 A 
ATOM      2  C   UNL     1       1.845   9.368  17.726  0.00  0.00    +0.000 A 
ATOM      3  C   UNL     1       2.739   8.320  17.481  0.00  0.00    +0.000 A 
ATOM      4  C   UNL     1       2.877   7.315  18.449  0.00  0.00    +0.000 A 
ATOM      5  C   UNL     1       2.078   7.305  19.584  0.00  0.00    +0.000 A 
ATOM      6  C   UNL     1       2.447   6.138  20.273  0.00  0.00    +0.000 A 
ATOM      7  N   UNL     1       3.347   5.409  19.612  0.00  0.00    +0.000 NA
ATOM      8  N   UNL     1       3.662   6.167  18.527  0.00  0.00    +0.000 N 
ATOM      9  C   UNL     1       1.158   8.355  19.807  0.00  0.00    +0.000 A 
ENDROOT
BRANCH   8  10
ATOM     10  C   UNL     1       4.669   5.723  17.627  0.00  0.00    +0.000 A 
ATOM     11  C   UNL     1       5.898   6.402  17.597  0.00  0.00    +0.000 A 
ATOM     12  C   UNL     1       6.926   5.947  16.769  0.00  0.00    +0.000 A 
ATOM     13  C   UNL     1       6.709   4.845  15.948  0.00  0.00    +0.000 A 
ATOM     14  F   UNL     1       7.696   4.408  15.156  0.00  0.00    +0.000 F 
ATOM     15  C   UNL     1       5.482   4.192  15.933  0.00  0.00    +0.000 A 
ATOM     16  C   UNL     1       4.457   4.630  16.774  0.00  0.00    +0.000 A 
ENDBRANCH   8  10
BRANCH   1  17
ATOM     17  C   UNL     1       0.096  10.595  19.195  0.00  0.00    +0.000 C 
BRANCH  17  18
ATOM     18  C   UNL     1      -0.317  10.679  20.693  0.00  0.00    +0.000 A 
ATOM     19  C   UNL     1       0.087   9.670  21.598  0.00  0.00    +0.000 A 
ATOM     20  C   UNL     1      -0.340   9.654  22.928  0.00  0.00    +0.000 A 
ATOM     21  C   UNL     1      -1.152  10.669  23.412  0.00  0.00    +0.000 A 
ATOM     22  C   UNL     1      -1.495  11.736  22.582  0.00  0.00    +0.000 A 
ATOM     23 CL   UNL     1      -2.453  12.995  23.286  0.00  0.00    +0.000 Cl
ATOM     24  C   UNL     1      -1.064  11.763  21.240  0.00  0.00    +0.000 A 
ATOM     25 CL   UNL     1      -1.371  13.207  20.310  0.00  0.00    +0.000 Cl
ENDBRANCH  17  18
BRANCH  17  26
ATOM     26  C   UNL     1      -1.121  10.563  18.158  0.00  0.00    +0.000 C 
ATOM     27  F   UNL     1      -1.266  11.757  17.521  0.00  0.00    +0.000 F 
ATOM     28  F   UNL     1      -0.946   9.634  17.184  0.00  0.00    +0.000 F 
ATOM     29  F   UNL     1      -2.322  10.299  18.723  0.00  0.00    +0.000 F 
ENDBRANCH  17  26
BRANCH  17  30
ATOM     30  O   UNL     1       0.829  11.818  18.918  0.00  0.00    +0.000 OA
ATOM     31  H   UNL     1       0.302  12.556  19.279  0.00  0.00    +0.000 HD
ENDBRANCH  17  30
ENDBRANCH   1  17
TORSDOF 5
ENDMDL
MODEL 9
REMARK VINA RESULT:      -7.6      2.077      2.900
REMARK  Name = 
REMARK  5 active torsions:
REMARK  status: ('A' for Active; 'I' for Inactive)
REMARK    1  A    between atoms: O_1  and  C_2
REMARK    2  A    between atoms: C_2  and  C_3
REMARK    3  A    between atoms: C_2  and  C_19
REMARK    4  A    between atoms: C_2  and  C_27
REMARK    5  A    between atoms: N_10  and  C_11
REMARK                            x       y       z     vdW  Elec       q    Type
REMARK                         _______ _______ _______ _____ _____    ______ ____
ROOT
ATOM      1  C   UNL     1       2.772   5.853  19.344  0.00  0.00    +0.000 A 
ATOM      2  C   UNL     1       1.975   6.040  20.484  0.00  0.00    +0.000 A 
ATOM      3  C   UNL     1       1.275   7.230  20.717  0.00  0.00    +0.000 A 
ATOM      4  C   UNL     1       1.419   8.283  19.802  0.00  0.00    +0.000 A 
ATOM      5  C   UNL     1       2.164   8.122  18.642  0.00  0.00    +0.000 A 
ATOM      6  C   UNL     1       2.028   9.341  17.956  0.00  0.00    +0.000 A 
ATOM      7  N   UNL     1       1.206  10.192  18.571  0.00  0.00    +0.000 NA
ATOM      8  N   UNL     1       0.889   9.570  19.738  0.00  0.00    +0.000 N 
ATOM      9  C   UNL     1       2.844   6.906  18.404  0.00  0.00    +0.000 A 
ENDROOT
BRANCH   8  10
ATOM     10  C   UNL     1       0.076  10.239  20.694  0.00  0.00    +0.000 A 
ATOM     11  C   UNL     1       0.068   9.775  22.020  0.00  0.00    +0.000 A 
ATOM     12  C   UNL     1      -0.671  10.453  22.990  0.00  0.00    +0.000 A 
ATOM     13  C   UNL     1      -1.427  11.562  22.628  0.00  0.00    +0.000 A 
ATOM     14  F   UNL     1      -2.134  12.214  23.559  0.00  0.00    +0.000 F 
ATOM     15  C   UNL     1      -1.466  12.004  21.310  0.00  0.00    +0.000 A 
ATOM     16  C   UNL     1      -0.712  11.342  20.338  0.00  0.00    +0.000 A 
ENDBRANCH   8  10
BRANCH   1  17
ATOM     17  C   UNL     1       3.596   4.566  19.098  0.00  0.00    +0.000 C 
BRANCH  17  18
ATOM     18  C   UNL     1       5.010   4.837  18.507  0.00  0.00    +0.000 A 
ATOM     19  C   UNL     1       6.092   5.137  19.367  0.00  0.00    +0.000 A 
ATOM     20  C   UNL     1       7.355   5.481  18.877  0.00  0.00    +0.000 A 
ATOM     21  C   UNL     1       7.591   5.496  17.510  0.00  0.00    +0.000 A 
ATOM     22  C   UNL     1       6.581   5.113  16.629  0.00  0.00    +0.000 A 
ATOM     23 CL   UNL     1       6.982   5.092  14.944  0.00  0.00    +0.000 Cl
ATOM     24  C   UNL     1       5.306   4.759  17.116  0.00  0.00    +0.000 A 
ATOM     25 CL   UNL     1       4.147   4.115  15.982  0.00  0.00    +0.000 Cl
ENDBRANCH  17  18
BRANCH  17  26
ATOM     26  C   UNL     1       2.702   3.533  18.267  0.00  0.00    +0.000 C 
ATOM     27  F   UNL     1       1.727   2.983  19.041  0.00  0.00    +0.000 F 
ATOM     28  F   UNL     1       2.067   4.122  17.221  0.00  0.00    +0.000 F 
ATOM     29  F   UNL     1       3.396   2.491  17.753  0.00  0.00    +0.000 F 
ENDBRANCH  17  26
BRANCH  17  30
ATOM     30  O   UNL     1       3.820   3.953  20.395  0.00  0.00    +0.000 OA
ATOM     31  H   UNL     1       4.682   4.274  20.718  0.00  0.00    +0.000 HD
ENDBRANCH  17  30
ENDBRANCH   1  17
TORSDOF 5
ENDMDL
