MODEL 1
REMARK VINA RESULT:      -6.8      0.000      0.000
REMARK  Name = 
REMARK  5 active torsions:
REMARK  status: ('A' for Active; 'I' for Inactive)
REMARK    1  A    between atoms: C_1  and  C_2
REMARK    2  A    between atoms: C_2  and  C_3
REMARK    3  A    between atoms: C_3  and  C_4
REMARK    4  A    between atoms: C_4  and  N_5
REMARK    5  A    between atoms: N_17  and  C_18
REMARK                            x       y       z     vdW  Elec       q    Type
REMARK                         _______ _______ _______ _____ _____    ______ ____
ROOT
ATOM      1  N   UNL     1       0.662  10.352  20.010  0.00  0.00    +0.000 N 
ATOM      2  C   UNL     1      -0.453  10.338  19.181  0.00  0.00    +0.000 C 
ATOM      3  O   UNL     1      -1.490  10.947  19.436  0.00  0.00    +0.000 OA
ATOM      4  C   UNL     1      -0.230   9.727  17.811  0.00  0.00    +0.000 C 
ATOM      5  C   UNL     1       0.739   8.557  17.770  0.00  0.00    +0.000 C 
ATOM      6  C   UNL     1       1.980   8.849  18.609  0.00  0.00    +0.000 C 
ATOM      7  C   UNL     1       2.959   7.697  18.662  0.00  0.00    +0.000 C 
ATOM      8  N   UNL     1       2.406   6.513  19.310  0.00  0.00    +0.000 N 
ATOM      9  C   UNL     1       2.460   5.298  18.658  0.00  0.00    +0.000 A 
ATOM     10  N   UNL     1       1.505   4.395  18.556  0.00  0.00    +0.000 NA
ATOM     11  N   UNL     1       1.911   3.488  17.613  0.00  0.00    +0.000 NA
ATOM     12  N   UNL     1       3.119   3.783  17.159  0.00  0.00    +0.000 NA
ATOM     13  N   UNL     1       3.551   4.824  17.911  0.00  0.00    +0.000 N 
ATOM     14  C   UNL     1       1.448   6.633  20.410  0.00  0.00    +0.000 C 
ATOM     15  C   UNL     1       1.074   8.051  20.854  0.00  0.00    +0.000 C 
ATOM     16  C   UNL     1       1.606   9.228  20.029  0.00  0.00    +0.000 C 
ENDROOT
BRANCH  13  17
ATOM     17  C   UNL     1       4.894   5.257  17.883  0.00  0.00    +0.000 A 
ATOM     18  C   UNL     1       5.412   5.868  16.737  0.00  0.00    +0.000 A 
ATOM     19  C   UNL     1       6.697   6.412  16.770  0.00  0.00    +0.000 A 
ATOM     20  C   UNL     1       7.472   6.324  17.930  0.00  0.00    +0.000 A 
ATOM     21  C   UNL     1       6.979   5.660  19.049  0.00  0.00    +0.000 A 
ATOM     22  C   UNL     1       5.698   5.107  19.018  0.00  0.00    +0.000 A 
ENDBRANCH  13  17
BRANCH   1  23
ATOM     23  C   UNL     1       0.835  11.455  20.952  0.00  0.00    +0.000 C 
BRANCH  23  24
ATOM     24  C   UNL     1       0.954  12.814  20.239  0.00  0.00    +0.000 C 
BRANCH  24  26
ATOM     25  C   UNL     1       2.426  12.735  18.183  0.00  0.00    +0.000 C 
ATOM     26  C   UNL     1       2.350  13.079  19.664  0.00  0.00    +0.000 C 
ENDBRANCH  24  26
ENDBRANCH  23  24
ENDBRANCH   1  23
TORSDOF 4
ENDMDL
MODEL 2
REMARK VINA RESULT:      -6.8      1.007      1.747
REMARK  Name = 
REMARK  5 active torsions:
REMARK  status: ('A' for Active; 'I' for Inactive)
REMARK    1  A    between atoms: C_1  and  C_2
REMARK    2  A    between atoms: C_2  and  C_3
REMARK    3  A    between atoms: C_3  and  C_4
REMARK    4  A    between atoms: C_4  and  N_5
REMARK    5  A    between atoms: N_17  and  C_18
REMARK                            x       y       z     vdW  Elec       q    Type
REMARK                         _______ _______ _______ _____ _____    ______ ____
ROOT
ATOM      1  N   UNL     1       0.591  10.217  20.086  0.00  0.00    +0.000 N 
ATOM      2  C   UNL     1      -0.485  10.230  19.207  0.00  0.00    +0.000 C 
ATOM      3  O   UNL     1      -1.540  10.817  19.440  0.00  0.00    +0.000 OA
ATOM      4  C   UNL     1      -0.193   9.682  17.823  0.00  0.00    +0.000 C 
ATOM      5  C   UNL     1       0.789   8.524  17.775  0.00  0.00    +0.000 C 
ATOM      6  C   UNL     1       1.988   8.790  18.682  0.00  0.00    +0.000 C 
ATOM      7  C   UNL     1       2.977   7.646  18.729  0.00  0.00    +0.000 C 
ATOM      8  N   UNL     1       2.408   6.429  19.299  0.00  0.00    +0.000 N 
ATOM      9  C   UNL     1       2.506   5.246  18.598  0.00  0.00    +0.000 A 
ATOM     10  N   UNL     1       1.566   4.339  18.413  0.00  0.00    +0.000 NA
ATOM     11  N   UNL     1       2.025   3.478  17.451  0.00  0.00    +0.000 NA
ATOM     12  N   UNL     1       3.249   3.804  17.065  0.00  0.00    +0.000 NA
ATOM     13  N   UNL     1       3.635   4.815  17.881  0.00  0.00    +0.000 N 
ATOM     14  C   UNL     1       1.400   6.492  20.358  0.00  0.00    +0.000 C 
ATOM     15  C   UNL     1       0.991   7.885  20.846  0.00  0.00    +0.000 C 
ATOM     16  C   UNL     1       1.546   9.103  20.098  0.00  0.00    +0.000 C 
ENDROOT
BRANCH  13  17
ATOM     17  C   UNL     1       4.972   5.261  17.934  0.00  0.00    +0.000 A 
ATOM     18  C   UNL     1       5.528   5.944  16.847  0.00  0.00    +0.000 A 
ATOM     19  C   UNL     1       6.805   6.498  16.965  0.00  0.00    +0.000 A 
ATOM     20  C   UNL     1       7.533   6.348  18.148  0.00  0.00    +0.000 A 
ATOM     21  C   UNL     1       7.004   5.613  19.205  0.00  0.00    +0.000 A 
ATOM     22  C   UNL     1       5.732   5.051  19.090  0.00  0.00    +0.000 A 
ENDBRANCH  13  17
BRANCH   1  23
ATOM     23  C   UNL     1       0.709  11.280  21.082  0.00  0.00    +0.000 C 
BRANCH  23  24
ATOM     24  C   UNL     1      -0.196  11.034  22.302  0.00  0.00    +0.000 C 
BRANCH  24  26
ATOM     25  C   UNL     1      -2.417  11.900  23.149  0.00  0.00    +0.000 C 
ATOM     26  C   UNL     1      -1.005  12.269  22.718  0.00  0.00    +0.000 C 
ENDBRANCH  24  26
ENDBRANCH  23  24
ENDBRANCH   1  23
TORSDOF 4
ENDMDL
MODEL 3
REMARK VINA RESULT:      -6.5      0.561      1.159
REMARK  Name = 
REMARK  5 active torsions:
REMARK  status: ('A' for Active; 'I' for Inactive)
REMARK    1  A    between atoms: C_1  and  C_2
REMARK    2  A    between atoms: C_2  and  C_3
REMARK    3  A    between atoms: C_3  and  C_4
REMARK    4  A    between atoms: C_4  and  N_5
REMARK    5  A    between atoms: N_17  and  C_18
REMARK                            x       y       z     vdW  Elec       q    Type
REMARK                         _______ _______ _______ _____ _____    ______ ____
ROOT
ATOM      1  N   UNL     1       0.680  10.439  19.927  0.00  0.00    +0.000 N 
ATOM      2  C   UNL     1      -0.471  10.407  19.150  0.00  0.00    +0.000 C 
ATOM      3  O   UNL     1      -1.490  11.037  19.426  0.00  0.00    +0.000 OA
ATOM      4  C   UNL     1      -0.315   9.740  17.796  0.00  0.00    +0.000 C 
ATOM      5  C   UNL     1       0.638   8.558  17.758  0.00  0.00    +0.000 C 
ATOM      6  C   UNL     1       1.918   8.867  18.529  0.00  0.00    +0.000 C 
ATOM      7  C   UNL     1       2.887   7.707  18.584  0.00  0.00    +0.000 C 
ATOM      8  N   UNL     1       2.351   6.555  19.302  0.00  0.00    +0.000 N 
ATOM      9  C   UNL     1       2.364   5.316  18.696  0.00  0.00    +0.000 A 
ATOM     10  N   UNL     1       1.395   4.421  18.672  0.00  0.00    +0.000 NA
ATOM     11  N   UNL     1       1.750   3.473  17.748  0.00  0.00    +0.000 NA
ATOM     12  N   UNL     1       2.939   3.735  17.229  0.00  0.00    +0.000 NA
ATOM     13  N   UNL     1       3.415   4.800  17.920  0.00  0.00    +0.000 N 
ATOM     14  C   UNL     1       1.445   6.729  20.437  0.00  0.00    +0.000 C 
ATOM     15  C   UNL     1       1.106   8.167  20.842  0.00  0.00    +0.000 C 
ATOM     16  C   UNL     1       1.613   9.306  19.948  0.00  0.00    +0.000 C 
ENDROOT
BRANCH  13  17
ATOM     17  C   UNL     1       4.760   5.215  17.816  0.00  0.00    +0.000 A 
ATOM     18  C   UNL     1       5.589   5.196  18.942  0.00  0.00    +0.000 A 
ATOM     19  C   UNL     1       6.949   5.479  18.797  0.00  0.00    +0.000 A 
ATOM     20  C   UNL     1       7.473   5.805  17.544  0.00  0.00    +0.000 A 
ATOM     21  C   UNL     1       6.634   5.886  16.436  0.00  0.00    +0.000 A 
ATOM     22  C   UNL     1       5.273   5.613  16.577  0.00  0.00    +0.000 A 
ENDBRANCH  13  17
BRANCH   1  23
ATOM     23  C   UNL     1       0.906  11.576  20.817  0.00  0.00    +0.000 C 
BRANCH  23  24
ATOM     24  C   UNL     1       1.648  12.726  20.112  0.00  0.00    +0.000 C 
BRANCH  24  26
ATOM     25  C   UNL     1       1.486  14.988  18.991  0.00  0.00    +0.000 C 
ATOM     26  C   UNL     1       0.744  13.919  19.780  0.00  0.00    +0.000 C 
ENDBRANCH  24  26
ENDBRANCH  23  24
ENDBRANCH   1  23
TORSDOF 4
ENDMDL
MODEL 4
REMARK VINA RESULT:      -6.4      0.934      1.448
REMARK  Name = 
REMARK  5 active torsions:
REMARK  status: ('A' for Active; 'I' for Inactive)
REMARK    1  A    between atoms: C_1  and  C_2
REMARK    2  A    between atoms: C_2  and  C_3
REMARK    3  A    between atoms: C_3  and  C_4
REMARK    4  A    between atoms: C_4  and  N_5
REMARK    5  A    between atoms: N_17  and  C_18
REMARK                            x       y       z     vdW  Elec       q    Type
REMARK                         _______ _______ _______ _____ _____    ______ ____
ROOT
ATOM      1  N   UNL     1       0.408  11.164  19.233  0.00  0.00    +0.000 N 
ATOM      2  C   UNL     1      -0.836  10.869  18.689  0.00  0.00    +0.000 C 
ATOM      3  O   UNL     1      -1.850  11.521  18.929  0.00  0.00    +0.000 OA
ATOM      4  C   UNL     1      -0.824   9.837  17.577  0.00  0.00    +0.000 C 
ATOM      5  C   UNL     1       0.201   8.726  17.730  0.00  0.00    +0.000 C 
ATOM      6  C   UNL     1       1.551   9.288  18.168  0.00  0.00    +0.000 C 
ATOM      7  C   UNL     1       2.602   8.226  18.401  0.00  0.00    +0.000 C 
ATOM      8  N   UNL     1       2.262   7.322  19.495  0.00  0.00    +0.000 N 
ATOM      9  C   UNL     1       2.282   5.960  19.277  0.00  0.00    +0.000 A 
ATOM     10  N   UNL     1       1.390   5.069  19.664  0.00  0.00    +0.000 NA
ATOM     11  N   UNL     1       1.681   3.902  19.008  0.00  0.00    +0.000 NA
ATOM     12  N   UNL     1       2.761   4.035  18.255  0.00  0.00    +0.000 NA
ATOM     13  N   UNL     1       3.248   5.270  18.526  0.00  0.00    +0.000 N 
ATOM     14  C   UNL     1       1.515   7.796  20.661  0.00  0.00    +0.000 C 
ATOM     15  C   UNL     1       1.129   9.279  20.682  0.00  0.00    +0.000 C 
ATOM     16  C   UNL     1       1.417  10.117  19.431  0.00  0.00    +0.000 C 
ENDROOT
BRANCH  13  17
ATOM     17  C   UNL     1       4.529   5.677  18.097  0.00  0.00    +0.000 A 
ATOM     18  C   UNL     1       5.625   5.574  18.960  0.00  0.00    +0.000 A 
ATOM     19  C   UNL     1       6.906   5.851  18.478  0.00  0.00    +0.000 A 
ATOM     20  C   UNL     1       7.091   6.255  17.154  0.00  0.00    +0.000 A 
ATOM     21  C   UNL     1       5.993   6.419  16.315  0.00  0.00    +0.000 A 
ATOM     22  C   UNL     1       4.710   6.151  16.793  0.00  0.00    +0.000 A 
ENDBRANCH  13  17
BRANCH   1  23
ATOM     23  C   UNL     1       0.672  12.520  19.710  0.00  0.00    +0.000 C 
BRANCH  23  24
ATOM     24  C   UNL     1       1.024  13.482  18.562  0.00  0.00    +0.000 C 
BRANCH  24  26
ATOM     25  C   UNL     1       3.258  14.615  18.208  0.00  0.00    +0.000 C 
ATOM     26  C   UNL     1       2.463  13.326  18.057  0.00  0.00    +0.000 C 
ENDBRANCH  24  26
ENDBRANCH  23  24
ENDBRANCH   1  23
TORSDOF 4
ENDMDL
MODEL 5
REMARK VINA RESULT:      -6.2      1.021      1.625
REMARK  Name = 
REMARK  5 active torsions:
REMARK  status: ('A' for Active; 'I' for Inactive)
REMARK    1  A    between atoms: C_1  and  C_2
REMARK    2  A    between atoms: C_2  and  C_3
REMARK    3  A    between atoms: C_3  and  C_4
REMARK    4  A    between atoms: C_4  and  N_5
REMARK    5  A    between atoms: N_17  and  C_18
REMARK                            x       y       z     vdW  Elec       q    Type
REMARK                         _______ _______ _______ _____ _____    ______ ____
ROOT
ATOM      1  N   UNL     1       0.414  11.102  19.215  0.00  0.00    +0.000 N 
ATOM      2  C   UNL     1      -0.826  10.802  18.666  0.00  0.00    +0.000 C 
ATOM      3  O   UNL     1      -1.842  11.456  18.895  0.00  0.00    +0.000 OA
ATOM      4  C   UNL     1      -0.807   9.762  17.562  0.00  0.00    +0.000 C 
ATOM      5  C   UNL     1       0.217   8.653  17.729  0.00  0.00    +0.000 C 
ATOM      6  C   UNL     1       1.564   9.219  18.171  0.00  0.00    +0.000 C 
ATOM      7  C   UNL     1       2.614   8.158  18.418  0.00  0.00    +0.000 C 
ATOM      8  N   UNL     1       2.268   7.262  19.516  0.00  0.00    +0.000 N 
ATOM      9  C   UNL     1       2.290   5.899  19.308  0.00  0.00    +0.000 A 
ATOM     10  N   UNL     1       1.396   5.010  19.696  0.00  0.00    +0.000 NA
ATOM     11  N   UNL     1       1.691   3.839  19.050  0.00  0.00    +0.000 NA
ATOM     12  N   UNL     1       2.776   3.967  18.302  0.00  0.00    +0.000 NA
ATOM     13  N   UNL     1       3.261   5.204  18.568  0.00  0.00    +0.000 N 
ATOM     14  C   UNL     1       1.514   7.744  20.674  0.00  0.00    +0.000 C 
ATOM     15  C   UNL     1       1.127   9.227  20.683  0.00  0.00    +0.000 C 
ATOM     16  C   UNL     1       1.422  10.057  19.427  0.00  0.00    +0.000 C 
ENDROOT
BRANCH  13  17
ATOM     17  C   UNL     1       4.545   5.608  18.144  0.00  0.00    +0.000 A 
ATOM     18  C   UNL     1       4.711   6.222  16.898  0.00  0.00    +0.000 A 
ATOM     19  C   UNL     1       5.961   6.738  16.549  0.00  0.00    +0.000 A 
ATOM     20  C   UNL     1       7.044   6.620  17.424  0.00  0.00    +0.000 A 
ATOM     21  C   UNL     1       6.892   5.953  18.636  0.00  0.00    +0.000 A 
ATOM     22  C   UNL     1       5.647   5.427  18.986  0.00  0.00    +0.000 A 
ENDBRANCH  13  17
BRANCH   1  23
ATOM     23  C   UNL     1       0.674  12.461  19.685  0.00  0.00    +0.000 C 
BRANCH  23  24
ATOM     24  C   UNL     1       0.770  12.537  21.219  0.00  0.00    +0.000 C 
BRANCH  24  26
ATOM     25  C   UNL     1      -1.081  11.492  22.590  0.00  0.00    +0.000 C 
ATOM     26  C   UNL     1      -0.585  12.756  21.902  0.00  0.00    +0.000 C 
ENDBRANCH  24  26
ENDBRANCH  23  24
ENDBRANCH   1  23
TORSDOF 4
ENDMDL
MODEL 6
REMARK VINA RESULT:      -6.1      0.928      1.181
REMARK  Name = 
REMARK  5 active torsions:
REMARK  status: ('A' for Active; 'I' for Inactive)
REMARK    1  A    between atoms: C_1  and  C_2
REMARK    2  A    between atoms: C_2  and  C_3
REMARK    3  A    between atoms: C_3  and  C_4
REMARK    4  A    between atoms: C_4  and  N_5
REMARK    5  A    between atoms: N_17  and  C_18
REMARK                            x       y       z     vdW  Elec       q    Type
REMARK                         _______ _______ _______ _____ _____    ______ ____
ROOT
ATOM      1  N   UNL     1       0.439  11.164  19.122  0.00  0.00    +0.000 N 
ATOM      2  C   UNL     1      -0.811  10.858  18.598  0.00  0.00    +0.000 C 
ATOM      3  O   UNL     1      -1.817  11.530  18.817  0.00  0.00    +0.000 OA
ATOM      4  C   UNL     1      -0.816   9.781  17.530  0.00  0.00    +0.000 C 
ATOM      5  C   UNL     1       0.199   8.667  17.723  0.00  0.00    +0.000 C 
ATOM      6  C   UNL     1       1.557   9.234  18.129  0.00  0.00    +0.000 C 
ATOM      7  C   UNL     1       2.599   8.171  18.400  0.00  0.00    +0.000 C 
ATOM      8  N   UNL     1       2.258   7.317  19.532  0.00  0.00    +0.000 N 
ATOM      9  C   UNL     1       2.263   5.947  19.371  0.00  0.00    +0.000 A 
ATOM     10  N   UNL     1       1.365   5.082  19.800  0.00  0.00    +0.000 NA
ATOM     11  N   UNL     1       1.640   3.886  19.191  0.00  0.00    +0.000 NA
ATOM     12  N   UNL     1       2.717   3.977  18.427  0.00  0.00    +0.000 NA
ATOM     13  N   UNL     1       3.218   5.217  18.644  0.00  0.00    +0.000 N 
ATOM     14  C   UNL     1       1.523   7.847  20.682  0.00  0.00    +0.000 C 
ATOM     15  C   UNL     1       1.152   9.333  20.644  0.00  0.00    +0.000 C 
ATOM     16  C   UNL     1       1.439  10.116  19.357  0.00  0.00    +0.000 C 
ENDROOT
BRANCH  13  17
ATOM     17  C   UNL     1       4.500   5.593  18.190  0.00  0.00    +0.000 A 
ATOM     18  C   UNL     1       4.651   6.212  16.945  0.00  0.00    +0.000 A 
ATOM     19  C   UNL     1       5.904   6.700  16.569  0.00  0.00    +0.000 A 
ATOM     20  C   UNL     1       7.005   6.549  17.416  0.00  0.00    +0.000 A 
ATOM     21  C   UNL     1       6.867   5.876  18.626  0.00  0.00    +0.000 A 
ATOM     22  C   UNL     1       5.618   5.378  19.003  0.00  0.00    +0.000 A 
ENDBRANCH  13  17
BRANCH   1  23
ATOM     23  C   UNL     1       0.719  12.535  19.541  0.00  0.00    +0.000 C 
BRANCH  23  24
ATOM     24  C   UNL     1       1.578  13.292  18.513  0.00  0.00    +0.000 C 
BRANCH  24  26
ATOM     25  C   UNL     1       2.902  13.719  20.627  0.00  0.00    +0.000 C 
ATOM     26  C   UNL     1       2.840  13.919  19.119  0.00  0.00    +0.000 C 
ENDBRANCH  24  26
ENDBRANCH  23  24
ENDBRANCH   1  23
TORSDOF 4
ENDMDL
MODEL 7
REMARK VINA RESULT:      -5.9      5.723     10.722
REMARK  Name = 
REMARK  5 active torsions:
REMARK  status: ('A' for Active; 'I' for Inactive)
REMARK    1  A    between atoms: C_1  and  C_2
REMARK    2  A    between atoms: C_2  and  C_3
REMARK    3  A    between atoms: C_3  and  C_4
REMARK    4  A    between atoms: C_4  and  N_5
REMARK    5  A    between atoms: N_17  and  C_18
REMARK                            x       y       z     vdW  Elec       q    Type
REMARK                         _______ _______ _______ _____ _____    ______ ____
ROOT
ATOM      1  N   UNL     1      -0.616  11.511  19.233  0.00  0.00    +0.000 N 
ATOM      2  C   UNL     1       0.258  12.537  18.897  0.00  0.00    +0.000 C 
ATOM      3  O   UNL     1       1.328  12.352  18.320  0.00  0.00    +0.000 OA
ATOM      4  C   UNL     1      -0.299  13.939  19.063  0.00  0.00    +0.000 C 
ATOM      5  C   UNL     1      -1.250  14.128  20.232  0.00  0.00    +0.000 C 
ATOM      6  C   UNL     1      -2.243  12.972  20.317  0.00  0.00    +0.000 C 
ATOM      7  C   UNL     1      -3.181  13.066  21.501  0.00  0.00    +0.000 C 
ATOM      8  N   UNL     1      -2.487  12.986  22.781  0.00  0.00    +0.000 N 
ATOM      9  C   UNL     1      -2.704  13.964  23.730  0.00  0.00    +0.000 A 
ATOM     10  N   UNL     1      -1.806  14.575  24.477  0.00  0.00    +0.000 NA
ATOM     11  N   UNL     1      -2.435  15.637  25.070  0.00  0.00    +0.000 NA
ATOM     12  N   UNL     1      -3.718  15.674  24.744  0.00  0.00    +0.000 NA
ATOM     13  N   UNL     1      -3.947  14.546  24.029  0.00  0.00    +0.000 N 
ATOM     14  C   UNL     1      -1.286  12.165  22.939  0.00  0.00    +0.000 C 
ATOM     15  C   UNL     1      -0.811  11.386  21.707  0.00  0.00    +0.000 C 
ATOM     16  C   UNL     1      -1.529  11.636  20.375  0.00  0.00    +0.000 C 
ENDROOT
BRANCH  13  17
ATOM     17  C   UNL     1      -5.254  14.115  23.716  0.00  0.00    +0.000 A 
ATOM     18  C   UNL     1      -5.706  12.868  24.158  0.00  0.00    +0.000 A 
ATOM     19  C   UNL     1      -7.042  12.512  23.958  0.00  0.00    +0.000 A 
ATOM     20  C   UNL     1      -7.914  13.382  23.299  0.00  0.00    +0.000 A 
ATOM     21  C   UNL     1      -7.446  14.596  22.804  0.00  0.00    +0.000 A 
ATOM     22  C   UNL     1      -6.110  14.953  22.993  0.00  0.00    +0.000 A 
ENDBRANCH  13  17
BRANCH   1  23
ATOM     23  C   UNL     1      -0.548  10.250  18.498  0.00  0.00    +0.000 C 
BRANCH  23  24
ATOM     24  C   UNL     1      -1.530  10.213  17.315  0.00  0.00    +0.000 C 
BRANCH  24  26
ATOM     25  C   UNL     1      -3.982  10.835  17.309  0.00  0.00    +0.000 C 
ATOM     26  C   UNL     1      -2.949   9.794  17.715  0.00  0.00    +0.000 C 
ENDBRANCH  24  26
ENDBRANCH  23  24
ENDBRANCH   1  23
TORSDOF 4
ENDMDL
MODEL 8
REMARK VINA RESULT:      -5.8      5.813     10.702
REMARK  Name = 
REMARK  5 active torsions:
REMARK  status: ('A' for Active; 'I' for Inactive)
REMARK    1  A    between atoms: C_1  and  C_2
REMARK    2  A    between atoms: C_2  and  C_3
REMARK    3  A    between atoms: C_3  and  C_4
REMARK    4  A    between atoms: C_4  and  N_5
REMARK    5  A    between atoms: N_17  and  C_18
REMARK                            x       y       z     vdW  Elec       q    Type
REMARK                         _______ _______ _______ _____ _____    ______ ____
ROOT
ATOM      1  N   UNL     1      -0.645  11.662  19.257  0.00  0.00    +0.000 N 
ATOM      2  C   UNL     1       0.227  12.707  18.981  0.00  0.00    +0.000 C 
ATOM      3  O   UNL     1       1.319  12.550  18.439  0.00  0.00    +0.000 OA
ATOM      4  C   UNL     1      -0.354  14.097  19.163  0.00  0.00    +0.000 C 
ATOM      5  C   UNL     1      -1.350  14.243  20.302  0.00  0.00    +0.000 C 
ATOM      6  C   UNL     1      -2.330  13.073  20.319  0.00  0.00    +0.000 C 
ATOM      7  C   UNL     1      -3.312  13.124  21.470  0.00  0.00    +0.000 C 
ATOM      8  N   UNL     1      -2.663  13.017  22.772  0.00  0.00    +0.000 N 
ATOM      9  C   UNL     1      -2.927  13.966  23.738  0.00  0.00    +0.000 A 
ATOM     10  N   UNL     1      -2.065  14.568  24.534  0.00  0.00    +0.000 NA
ATOM     11  N   UNL     1      -2.730  15.606  25.131  0.00  0.00    +0.000 NA
ATOM     12  N   UNL     1      -3.999  15.636  24.759  0.00  0.00    +0.000 NA
ATOM     13  N   UNL     1      -4.188  14.525  24.007  0.00  0.00    +0.000 N 
ATOM     14  C   UNL     1      -1.458  12.207  22.951  0.00  0.00    +0.000 C 
ATOM     15  C   UNL     1      -0.928  11.468  21.718  0.00  0.00    +0.000 C 
ATOM     16  C   UNL     1      -1.601  11.745  20.368  0.00  0.00    +0.000 C 
ENDROOT
BRANCH  13  17
ATOM     17  C   UNL     1      -5.477  14.087  23.635  0.00  0.00    +0.000 A 
ATOM     18  C   UNL     1      -6.237  14.832  22.728  0.00  0.00    +0.000 A 
ATOM     19  C   UNL     1      -7.451  14.318  22.266  0.00  0.00    +0.000 A 
ATOM     20  C   UNL     1      -7.917  13.084  22.725  0.00  0.00    +0.000 A 
ATOM     21  C   UNL     1      -7.189  12.373  23.676  0.00  0.00    +0.000 A 
ATOM     22  C   UNL     1      -5.980  12.886  24.147  0.00  0.00    +0.000 A 
ENDBRANCH  13  17
BRANCH   1  23
ATOM     23  C   UNL     1      -0.534  10.422  18.492  0.00  0.00    +0.000 C 
BRANCH  23  24
ATOM     24  C   UNL     1      -1.868  10.022  17.837  0.00  0.00    +0.000 C 
BRANCH  24  26
ATOM     25  C   UNL     1      -3.784  10.793  16.376  0.00  0.00    +0.000 C 
ATOM     26  C   UNL     1      -2.318  10.988  16.735  0.00  0.00    +0.000 C 
ENDBRANCH  24  26
ENDBRANCH  23  24
ENDBRANCH   1  23
TORSDOF 4
ENDMDL
MODEL 9
REMARK VINA RESULT:      -5.8      5.643     10.357
REMARK  Name = 
REMARK  5 active torsions:
REMARK  status: ('A' for Active; 'I' for Inactive)
REMARK    1  A    between atoms: C_1  and  C_2
REMARK    2  A    between atoms: C_2  and  C_3
REMARK    3  A    between atoms: C_3  and  C_4
REMARK    4  A    between atoms: C_4  and  N_5
REMARK    5  A    between atoms: N_17  and  C_18
REMARK                            x       y       z     vdW  Elec       q    Type
REMARK                         _______ _______ _______ _____ _____    ______ ____
ROOT
ATOM      1  N   UNL     1       0.328  12.699  21.227  0.00  0.00    +0.000 N 
ATOM      2  C   UNL     1       0.743  13.957  21.643  0.00  0.00    +0.000 C 
ATOM      3  O   UNL     1       1.872  14.188  22.070  0.00  0.00    +0.000 OA
ATOM      4  C   UNL     1      -0.205  15.093  21.307  0.00  0.00    +0.000 C 
ATOM      5  C   UNL     1      -1.683  14.745  21.360  0.00  0.00    +0.000 C 
ATOM      6  C   UNL     1      -1.949  13.399  20.690  0.00  0.00    +0.000 C 
ATOM      7  C   UNL     1      -3.395  12.962  20.763  0.00  0.00    +0.000 C 
ATOM      8  N   UNL     1      -3.850  12.734  22.131  0.00  0.00    +0.000 N 
ATOM      9  C   UNL     1      -4.996  13.360  22.575  0.00  0.00    +0.000 A 
ATOM     10  N   UNL     1      -5.189  13.963  23.731  0.00  0.00    +0.000 NA
ATOM     11  N   UNL     1      -6.366  14.656  23.629  0.00  0.00    +0.000 NA
ATOM     12  N   UNL     1      -6.933  14.461  22.449  0.00  0.00    +0.000 NA
ATOM     13  N   UNL     1      -6.174  13.528  21.827  0.00  0.00    +0.000 N 
ATOM     14  C   UNL     1      -2.938  12.218  23.153  0.00  0.00    +0.000 C 
ATOM     15  C   UNL     1      -1.502  11.913  22.713  0.00  0.00    +0.000 C 
ATOM     16  C   UNL     1      -1.085  12.307  21.291  0.00  0.00    +0.000 C 
ENDROOT
BRANCH  13  17
ATOM     17  C   UNL     1      -6.602  12.884  20.646  0.00  0.00    +0.000 A 
ATOM     18  C   UNL     1      -6.799  13.623  19.475  0.00  0.00    +0.000 A 
ATOM     19  C   UNL     1      -7.091  12.956  18.284  0.00  0.00    +0.000 A 
ATOM     20  C   UNL     1      -7.212  11.564  18.264  0.00  0.00    +0.000 A 
ATOM     21  C   UNL     1      -7.078  10.836  19.443  0.00  0.00    +0.000 A 
ATOM     22  C   UNL     1      -6.795  11.498  20.638  0.00  0.00    +0.000 A 
ENDBRANCH  13  17
BRANCH   1  23
ATOM     23  C   UNL     1       1.331  11.718  20.817  0.00  0.00    +0.000 C 
BRANCH  23  24
ATOM     24  C   UNL     1       0.697  10.482  20.155  0.00  0.00    +0.000 C 
BRANCH  24  26
ATOM     25  C   UNL     1      -0.240   8.651  21.628  0.00  0.00    +0.000 C 
ATOM     26  C   UNL     1       0.990   9.175  20.901  0.00  0.00    +0.000 C 
ENDBRANCH  24  26
ENDBRANCH  23  24
ENDBRANCH   1  23
TORSDOF 4
ENDMDL
