MODEL 1
REMARK VINA RESULT:      -7.7      0.000      0.000
REMARK  Name = 
REMARK  8 active torsions:
REMARK  status: ('A' for Active; 'I' for Inactive)
REMARK    1  A    between atoms: C_1  and  C_2
REMARK    2  A    between atoms: C_5  and  C_6
REMARK    3  A    between atoms: C_6  and  S_7
REMARK    4  A    between atoms: S_7  and  C_8
REMARK    5  A    between atoms: C_8  and  C_9
REMARK    6  A    between atoms: C_9  and  N_10
REMARK    7  A    between atoms: C_9  and  C_11
REMARK    8  A    between atoms: C_11  and  O_13
REMARK                            x       y       z     vdW  Elec       q    Type
REMARK                         _______ _______ _______ _____ _____    ______ ____
ROOT
ATOM      1  C   UNK     1       4.050   5.052  18.116  0.00  0.00    +0.000 C 
ATOM      2  C   UNK     1       3.268   3.673  18.524  0.00  0.00    +0.000 A 
ATOM      3  C   UNK     1       3.939   2.492  18.916  0.00  0.00    +0.000 A 
ATOM      4  C   UNK     1       3.238   1.310  19.214  0.00  0.00    +0.000 A 
ATOM      5  C   UNK     1       1.863   1.227  19.013  0.00  0.00    +0.000 A 
ATOM      6  C   UNK     1       1.161   2.362  18.648  0.00  0.00    +0.000 A 
ATOM      7  C   UNK     1       1.849   3.572  18.513  0.00  0.00    +0.000 A 
ATOM      8  C   UNK     1       1.082   4.785  18.743  0.00  0.00    +0.000 C 
ATOM      9  C   UNK     1       1.573   5.393  19.845  0.00  0.00    +0.000 C 
ATOM     10  C   UNK     1       2.308   6.583  19.431  0.00  0.00    +0.000 A 
ATOM     11  C   UNK     1       1.721   7.794  19.789  0.00  0.00    +0.000 A 
ATOM     12  C   UNK     1       1.885   8.892  18.959  0.00  0.00    +0.000 A 
ATOM     13  C   UNK     1       2.605   8.737  17.783  0.00  0.00    +0.000 A 
ATOM     14  C   UNK     1       3.282   7.537  17.503  0.00  0.00    +0.000 A 
ATOM     15  C   UNK     1       3.249   6.428  18.369  0.00  0.00    +0.000 A 
ENDROOT
BRANCH   1  20
ATOM     16  C   UNK     1       6.844   4.512  12.906  0.00  0.00    +0.000 C 
ATOM     17  C   UNK     1       6.023   4.669  14.149  0.00  0.00    +0.000 A 
ATOM     18  C   UNK     1       5.764   5.922  14.706  0.00  0.00    +0.000 A 
ATOM     19  C   UNK     1       5.086   6.047  15.930  0.00  0.00    +0.000 A 
ATOM     20  C   UNK     1       4.632   4.926  16.649  0.00  0.00    +0.000 A 
ATOM     21  C   UNK     1       4.848   3.682  16.018  0.00  0.00    +0.000 A 
ATOM     22  C   UNK     1       5.540   3.546  14.808  0.00  0.00    +0.000 A 
ENDBRANCH   1  20
BRANCH   1  23
ATOM     23  S   UNK     1       5.593   5.038  19.428  0.00  0.00    +0.000 S 
BRANCH  23  24
ATOM     24  C   UNK     1       7.123   4.827  18.454  0.00  0.00    +0.000 C 
BRANCH  24  25
ATOM     25  C   UNK     1       8.259   5.728  18.983  0.00  0.00    +0.000 C 
BRANCH  25  26
ATOM     26  N   UNK     1       8.368   5.694  20.466  0.00  0.00    +0.000 NA
ATOM     27  H   UNK     1       7.632   5.141  20.896  0.00  0.00    +0.000 HD
ATOM     28  H   UNK     1       8.405   6.635  20.858  0.00  0.00    +0.000 HD
ENDBRANCH  25  26
BRANCH  25  29
ATOM     29  C   UNK     1       8.135   7.156  18.457  0.00  0.00    +0.000 C 
ATOM     30  O   UNK     1       7.490   7.481  17.472  0.00  0.00    +0.000 OA
BRANCH  29  31
ATOM     31  O   UNK     1       8.826   8.064  19.189  0.00  0.00    +0.000 OA
ATOM     32  H   UNK     1       8.216   8.575  19.756  0.00  0.00    +0.000 HD
ENDBRANCH  29  31
ENDBRANCH  25  29
ENDBRANCH  24  25
ENDBRANCH  23  24
ENDBRANCH   1  23
TORSDOF 7
ENDMDL
MODEL 2
REMARK VINA RESULT:      -7.7      2.724      5.167
REMARK  Name = 
REMARK  8 active torsions:
REMARK  status: ('A' for Active; 'I' for Inactive)
REMARK    1  A    between atoms: C_1  and  C_2
REMARK    2  A    between atoms: C_5  and  C_6
REMARK    3  A    between atoms: C_6  and  S_7
REMARK    4  A    between atoms: S_7  and  C_8
REMARK    5  A    between atoms: C_8  and  C_9
REMARK    6  A    between atoms: C_9  and  N_10
REMARK    7  A    between atoms: C_9  and  C_11
REMARK    8  A    between atoms: C_11  and  O_13
REMARK                            x       y       z     vdW  Elec       q    Type
REMARK                         _______ _______ _______ _____ _____    ______ ____
ROOT
ATOM      1  C   UNK     1       4.936   5.562  16.658  0.00  0.00    +0.000 C 
ATOM      2  C   UNK     1       6.184   6.164  17.530  0.00  0.00    +0.000 A 
ATOM      3  C   UNK     1       6.744   7.441  17.298  0.00  0.00    +0.000 A 
ATOM      4  C   UNK     1       7.847   7.907  18.034  0.00  0.00    +0.000 A 
ATOM      5  C   UNK     1       8.504   7.077  18.937  0.00  0.00    +0.000 A 
ATOM      6  C   UNK     1       7.981   5.826  19.212  0.00  0.00    +0.000 A 
ATOM      7  C   UNK     1       6.790   5.436  18.592  0.00  0.00    +0.000 A 
ATOM      8  C   UNK     1       5.970   4.472  19.307  0.00  0.00    +0.000 C 
ATOM      9  C   UNK     1       4.814   5.077  19.657  0.00  0.00    +0.000 C 
ATOM     10  C   UNK     1       3.743   4.553  18.817  0.00  0.00    +0.000 A 
ATOM     11  C   UNK     1       2.803   3.767  19.482  0.00  0.00    +0.000 A 
ATOM     12  C   UNK     1       2.195   2.725  18.799  0.00  0.00    +0.000 A 
ATOM     13  C   UNK     1       2.567   2.483  17.484  0.00  0.00    +0.000 A 
ATOM     14  C   UNK     1       3.431   3.359  16.804  0.00  0.00    +0.000 A 
ATOM     15  C   UNK     1       3.985   4.501  17.411  0.00  0.00    +0.000 A 
ENDROOT
BRANCH   1  20
ATOM     16  C   UNK     1       7.024   3.039  11.706  0.00  0.00    +0.000 C 
ATOM     17  C   UNK     1       6.484   3.793  12.883  0.00  0.00    +0.000 A 
ATOM     18  C   UNK     1       7.314   4.540  13.720  0.00  0.00    +0.000 A 
ATOM     19  C   UNK     1       6.813   5.152  14.882  0.00  0.00    +0.000 A 
ATOM     20  C   UNK     1       5.460   5.048  15.256  0.00  0.00    +0.000 A 
ATOM     21  C   UNK     1       4.640   4.346  14.346  0.00  0.00    +0.000 A 
ATOM     22  C   UNK     1       5.134   3.717  13.196  0.00  0.00    +0.000 A 
ENDBRANCH   1  20
BRANCH   1  23
ATOM     23  S   UNK     1       3.819   7.225  16.362  0.00  0.00    +0.000 S 
BRANCH  23  24
ATOM     24  C   UNK     1       3.476   7.942  18.007  0.00  0.00    +0.000 C 
BRANCH  24  25
ATOM     25  C   UNK     1       2.044   8.510  18.088  0.00  0.00    +0.000 C 
BRANCH  25  26
ATOM     26  N   UNK     1       1.924   9.844  17.441  0.00  0.00    +0.000 NA
ATOM     27  H   UNK     1       2.316  10.588  18.011  0.00  0.00    +0.000 HD
ATOM     28  H   UNK     1       0.960  10.045  17.177  0.00  0.00    +0.000 HD
ENDBRANCH  25  26
BRANCH  25  29
ATOM     29  C   UNK     1       1.528   8.530  19.525  0.00  0.00    +0.000 C 
ATOM     30  O   UNK     1       0.671   9.291  19.946  0.00  0.00    +0.000 OA
BRANCH  29  31
ATOM     31  O   UNK     1       2.120   7.609  20.325  0.00  0.00    +0.000 OA
ATOM     32  H   UNK     1       1.542   7.400  21.084  0.00  0.00    +0.000 HD
ENDBRANCH  29  31
ENDBRANCH  25  29
ENDBRANCH  24  25
ENDBRANCH  23  24
ENDBRANCH   1  23
TORSDOF 7
ENDMDL
MODEL 3
REMARK VINA RESULT:      -7.6      6.167      9.778
REMARK  Name = 
REMARK  8 active torsions:
REMARK  status: ('A' for Active; 'I' for Inactive)
REMARK    1  A    between atoms: C_1  and  C_2
REMARK    2  A    between atoms: C_5  and  C_6
REMARK    3  A    between atoms: C_6  and  S_7
REMARK    4  A    between atoms: S_7  and  C_8
REMARK    5  A    between atoms: C_8  and  C_9
REMARK    6  A    between atoms: C_9  and  N_10
REMARK    7  A    between atoms: C_9  and  C_11
REMARK    8  A    between atoms: C_11  and  O_13
REMARK                            x       y       z     vdW  Elec       q    Type
REMARK                         _______ _______ _______ _____ _____    ______ ____
ROOT
ATOM      1  C   UNK     1       0.406  11.941  19.684  0.00  0.00    +0.000 C 
ATOM      2  C   UNK     1       1.623  12.983  19.349  0.00  0.00    +0.000 A 
ATOM      3  C   UNK     1       2.000  13.333  18.033  0.00  0.00    +0.000 A 
ATOM      4  C   UNK     1       3.081  14.196  17.780  0.00  0.00    +0.000 A 
ATOM      5  C   UNK     1       3.897  14.639  18.817  0.00  0.00    +0.000 A 
ATOM      6  C   UNK     1       3.555  14.339  20.124  0.00  0.00    +0.000 A 
ATOM      7  C   UNK     1       2.385  13.615  20.371  0.00  0.00    +0.000 A 
ATOM      8  C   UNK     1       1.742  13.838  21.656  0.00  0.00    +0.000 C 
ATOM      9  C   UNK     1       0.545  14.422  21.435  0.00  0.00    +0.000 C 
ATOM     10  C   UNK     1      -0.505  13.442  21.689  0.00  0.00    +0.000 A 
ATOM     11  C   UNK     1      -1.291  13.697  22.811  0.00  0.00    +0.000 A 
ATOM     12  C   UNK     1      -1.806  12.627  23.528  0.00  0.00    +0.000 A 
ATOM     13  C   UNK     1      -1.495  11.339  23.120  0.00  0.00    +0.000 A 
ATOM     14  C   UNK     1      -0.796  11.109  21.921  0.00  0.00    +0.000 A 
ATOM     15  C   UNK     1      -0.352  12.155  21.090  0.00  0.00    +0.000 A 
ENDROOT
BRANCH   1  20
ATOM     16  C   UNK     1       2.857   6.571  19.048  0.00  0.00    +0.000 C 
ATOM     17  C   UNK     1       2.123   7.872  19.156  0.00  0.00    +0.000 A 
ATOM     18  C   UNK     1       2.051   8.766  18.088  0.00  0.00    +0.000 A 
ATOM     19  C   UNK     1       1.453  10.029  18.236  0.00  0.00    +0.000 A 
ATOM     20  C   UNK     1       0.897  10.452  19.457  0.00  0.00    +0.000 A 
ATOM     21  C   UNK     1       0.924   9.492  20.492  0.00  0.00    +0.000 A 
ATOM     22  C   UNK     1       1.534   8.239  20.359  0.00  0.00    +0.000 A 
ENDBRANCH   1  20
BRANCH   1  23
ATOM     23  S   UNK     1      -0.930  12.409  18.235  0.00  0.00    +0.000 S 
BRANCH  23  24
ATOM     24  C   UNK     1      -2.475  11.515  18.623  0.00  0.00    +0.000 C 
BRANCH  24  25
ATOM     25  C   UNK     1      -2.900  10.592  17.461  0.00  0.00    +0.000 C 
BRANCH  25  26
ATOM     26  N   UNK     1      -1.736   9.976  16.769  0.00  0.00    +0.000 NA
ATOM     27  H   UNK     1      -1.962   9.074  16.360  0.00  0.00    +0.000 HD
ATOM     28  H   UNK     1      -0.927   9.915  17.386  0.00  0.00    +0.000 HD
ENDBRANCH  25  26
BRANCH  25  29
ATOM     29  C   UNK     1      -3.826  11.310  16.482  0.00  0.00    +0.000 C 
ATOM     30  O   UNK     1      -4.956  11.691  16.744  0.00  0.00    +0.000 OA
BRANCH  29  31
ATOM     31  O   UNK     1      -3.278  11.492  15.254  0.00  0.00    +0.000 OA
ATOM     32  H   UNK     1      -2.331  11.715  15.338  0.00  0.00    +0.000 HD
ENDBRANCH  29  31
ENDBRANCH  25  29
ENDBRANCH  24  25
ENDBRANCH  23  24
ENDBRANCH   1  23
TORSDOF 7
ENDMDL
MODEL 4
REMARK VINA RESULT:      -7.5      2.699      5.128
REMARK  Name = 
REMARK  8 active torsions:
REMARK  status: ('A' for Active; 'I' for Inactive)
REMARK    1  A    between atoms: C_1  and  C_2
REMARK    2  A    between atoms: C_5  and  C_6
REMARK    3  A    between atoms: C_6  and  S_7
REMARK    4  A    between atoms: S_7  and  C_8
REMARK    5  A    between atoms: C_8  and  C_9
REMARK    6  A    between atoms: C_9  and  N_10
REMARK    7  A    between atoms: C_9  and  C_11
REMARK    8  A    between atoms: C_11  and  O_13
REMARK                            x       y       z     vdW  Elec       q    Type
REMARK                         _______ _______ _______ _____ _____    ______ ____
ROOT
ATOM      1  C   UNK     1       4.974   5.448  16.702  0.00  0.00    +0.000 C 
ATOM      2  C   UNK     1       6.198   6.056  17.604  0.00  0.00    +0.000 A 
ATOM      3  C   UNK     1       6.831   7.286  17.317  0.00  0.00    +0.000 A 
ATOM      4  C   UNK     1       7.912   7.756  18.085  0.00  0.00    +0.000 A 
ATOM      5  C   UNK     1       8.474   6.966  19.082  0.00  0.00    +0.000 A 
ATOM      6  C   UNK     1       7.876   5.762  19.412  0.00  0.00    +0.000 A 
ATOM      7  C   UNK     1       6.705   5.382  18.749  0.00  0.00    +0.000 A 
ATOM      8  C   UNK     1       5.799   4.510  19.480  0.00  0.00    +0.000 C 
ATOM      9  C   UNK     1       4.656   5.190  19.715  0.00  0.00    +0.000 C 
ATOM     10  C   UNK     1       3.610   4.653  18.850  0.00  0.00    +0.000 A 
ATOM     11  C   UNK     1       2.597   3.961  19.510  0.00  0.00    +0.000 A 
ATOM     12  C   UNK     1       1.980   2.899  18.866  0.00  0.00    +0.000 A 
ATOM     13  C   UNK     1       2.414   2.545  17.597  0.00  0.00    +0.000 A 
ATOM     14  C   UNK     1       3.357   3.330  16.911  0.00  0.00    +0.000 A 
ATOM     15  C   UNK     1       3.930   4.488  17.469  0.00  0.00    +0.000 A 
ENDROOT
BRANCH   1  20
ATOM     16  C   UNK     1       7.042   3.661  11.431  0.00  0.00    +0.000 C 
ATOM     17  C   UNK     1       6.538   3.983  12.805  0.00  0.00    +0.000 A 
ATOM     18  C   UNK     1       5.202   3.795  13.160  0.00  0.00    +0.000 A 
ATOM     19  C   UNK     1       4.720   4.202  14.416  0.00  0.00    +0.000 A 
ATOM     20  C   UNK     1       5.552   4.809  15.374  0.00  0.00    +0.000 A 
ATOM     21  C   UNK     1       6.911   4.915  15.005  0.00  0.00    +0.000 A 
ATOM     22  C   UNK     1       7.397   4.530  13.749  0.00  0.00    +0.000 A 
ENDBRANCH   1  20
BRANCH   1  23
ATOM     23  S   UNK     1       3.958   7.133  16.222  0.00  0.00    +0.000 S 
BRANCH  23  24
ATOM     24  C   UNK     1       3.650   8.036  17.779  0.00  0.00    +0.000 C 
BRANCH  24  25
ATOM     25  C   UNK     1       2.167   8.439  17.915  0.00  0.00    +0.000 C 
BRANCH  25  26
ATOM     26  N   UNK     1       1.887   9.782  17.340  0.00  0.00    +0.000 NA
ATOM     27  H   UNK     1       0.908  10.042  17.424  0.00  0.00    +0.000 HD
ATOM     28  H   UNK     1       2.210   9.848  16.375  0.00  0.00    +0.000 HD
ENDBRANCH  25  26
BRANCH  25  29
ATOM     29  C   UNK     1       1.684   8.330  19.360  0.00  0.00    +0.000 C 
ATOM     30  O   UNK     1       1.977   7.423  20.124  0.00  0.00    +0.000 OA
BRANCH  29  31
ATOM     31  O   UNK     1       0.873   9.349  19.737  0.00  0.00    +0.000 OA
ATOM     32  H   UNK     1       0.017   8.999  20.053  0.00  0.00    +0.000 HD
ENDBRANCH  29  31
ENDBRANCH  25  29
ENDBRANCH  24  25
ENDBRANCH  23  24
ENDBRANCH   1  23
TORSDOF 7
ENDMDL
MODEL 5
REMARK VINA RESULT:      -7.5      2.580      5.101
REMARK  Name = 
REMARK  8 active torsions:
REMARK  status: ('A' for Active; 'I' for Inactive)
REMARK    1  A    between atoms: C_1  and  C_2
REMARK    2  A    between atoms: C_5  and  C_6
REMARK    3  A    between atoms: C_6  and  S_7
REMARK    4  A    between atoms: S_7  and  C_8
REMARK    5  A    between atoms: C_8  and  C_9
REMARK    6  A    between atoms: C_9  and  N_10
REMARK    7  A    between atoms: C_9  and  C_11
REMARK    8  A    between atoms: C_11  and  O_13
REMARK                            x       y       z     vdW  Elec       q    Type
REMARK                         _______ _______ _______ _____ _____    ______ ____
ROOT
ATOM      1  C   UNK     1       4.942   5.570  16.723  0.00  0.00    +0.000 C 
ATOM      2  C   UNK     1       6.195   6.161  17.594  0.00  0.00    +0.000 A 
ATOM      3  C   UNK     1       6.753   7.441  17.374  0.00  0.00    +0.000 A 
ATOM      4  C   UNK     1       7.861   7.899  18.110  0.00  0.00    +0.000 A 
ATOM      5  C   UNK     1       8.525   7.057  18.997  0.00  0.00    +0.000 A 
ATOM      6  C   UNK     1       8.003   5.802  19.260  0.00  0.00    +0.000 A 
ATOM      7  C   UNK     1       6.808   5.420  18.643  0.00  0.00    +0.000 A 
ATOM      8  C   UNK     1       5.994   4.447  19.351  0.00  0.00    +0.000 C 
ATOM      9  C   UNK     1       4.840   5.047  19.716  0.00  0.00    +0.000 C 
ATOM     10  C   UNK     1       3.763   4.533  18.877  0.00  0.00    +0.000 A 
ATOM     11  C   UNK     1       2.828   3.739  19.538  0.00  0.00    +0.000 A 
ATOM     12  C   UNK     1       2.216   2.705  18.846  0.00  0.00    +0.000 A 
ATOM     13  C   UNK     1       2.579   2.479  17.526  0.00  0.00    +0.000 A 
ATOM     14  C   UNK     1       3.438   3.365  16.851  0.00  0.00    +0.000 A 
ATOM     15  C   UNK     1       3.995   4.499  17.469  0.00  0.00    +0.000 A 
ENDROOT
BRANCH   1  20
ATOM     16  C   UNK     1       7.017   3.117  11.730  0.00  0.00    +0.000 C 
ATOM     17  C   UNK     1       6.476   3.853  12.919  0.00  0.00    +0.000 A 
ATOM     18  C   UNK     1       7.298   4.621  13.744  0.00  0.00    +0.000 A 
ATOM     19  C   UNK     1       6.799   5.216  14.915  0.00  0.00    +0.000 A 
ATOM     20  C   UNK     1       5.456   5.074  15.311  0.00  0.00    +0.000 A 
ATOM     21  C   UNK     1       4.641   4.351  14.413  0.00  0.00    +0.000 A 
ATOM     22  C   UNK     1       5.133   3.739  13.253  0.00  0.00    +0.000 A 
ENDBRANCH   1  20
BRANCH   1  23
ATOM     23  S   UNK     1       3.822   7.236  16.455  0.00  0.00    +0.000 S 
BRANCH  23  24
ATOM     24  C   UNK     1       2.377   7.095  17.564  0.00  0.00    +0.000 C 
BRANCH  24  25
ATOM     25  C   UNK     1       2.441   8.127  18.709  0.00  0.00    +0.000 C 
BRANCH  25  26
ATOM     26  N   UNK     1       2.171   7.518  20.039  0.00  0.00    +0.000 NA
ATOM     27  H   UNK     1       1.374   6.889  20.023  0.00  0.00    +0.000 HD
ATOM     28  H   UNK     1       2.070   8.231  20.761  0.00  0.00    +0.000 HD
ENDBRANCH  25  26
BRANCH  25  29
ATOM     29  C   UNK     1       1.531   9.323  18.440  0.00  0.00    +0.000 C 
ATOM     30  O   UNK     1       0.549   9.614  19.105  0.00  0.00    +0.000 OA
BRANCH  29  31
ATOM     31  O   UNK     1       1.908  10.058  17.364  0.00  0.00    +0.000 OA
ATOM     32  H   UNK     1       2.719   9.683  16.967  0.00  0.00    +0.000 HD
ENDBRANCH  29  31
ENDBRANCH  25  29
ENDBRANCH  24  25
ENDBRANCH  23  24
ENDBRANCH   1  23
TORSDOF 7
ENDMDL
MODEL 6
REMARK VINA RESULT:      -7.4      5.570      9.347
REMARK  Name = 
REMARK  8 active torsions:
REMARK  status: ('A' for Active; 'I' for Inactive)
REMARK    1  A    between atoms: C_1  and  C_2
REMARK    2  A    between atoms: C_5  and  C_6
REMARK    3  A    between atoms: C_6  and  S_7
REMARK    4  A    between atoms: S_7  and  C_8
REMARK    5  A    between atoms: C_8  and  C_9
REMARK    6  A    between atoms: C_9  and  N_10
REMARK    7  A    between atoms: C_9  and  C_11
REMARK    8  A    between atoms: C_11  and  O_13
REMARK                            x       y       z     vdW  Elec       q    Type
REMARK                         _______ _______ _______ _____ _____    ______ ____
ROOT
ATOM      1  C   UNK     1      -0.594  11.806  20.468  0.00  0.00    +0.000 C 
ATOM      2  C   UNK     1      -1.521  12.540  21.599  0.00  0.00    +0.000 A 
ATOM      3  C   UNK     1      -2.310  11.829  22.531  0.00  0.00    +0.000 A 
ATOM      4  C   UNK     1      -3.133  12.492  23.459  0.00  0.00    +0.000 A 
ATOM      5  C   UNK     1      -3.292  13.874  23.410  0.00  0.00    +0.000 A 
ATOM      6  C   UNK     1      -2.526  14.614  22.527  0.00  0.00    +0.000 A 
ATOM      7  C   UNK     1      -1.592  13.956  21.721  0.00  0.00    +0.000 A 
ATOM      8  C   UNK     1      -0.438  14.731  21.299  0.00  0.00    +0.000 C 
ATOM      9  C   UNK     1       0.663  14.194  21.867  0.00  0.00    +0.000 C 
ATOM     10  C   UNK     1       1.429  13.502  20.835  0.00  0.00    +0.000 A 
ATOM     11  C   UNK     1       2.649  14.091  20.511  0.00  0.00    +0.000 A 
ATOM     12  C   UNK     1       3.119  13.991  19.211  0.00  0.00    +0.000 A 
ATOM     13  C   UNK     1       2.342  13.331  18.270  0.00  0.00    +0.000 A 
ATOM     14  C   UNK     1       1.173  12.649  18.648  0.00  0.00    +0.000 A 
ATOM     15  C   UNK     1       0.710  12.616  19.977  0.00  0.00    +0.000 A 
ENDROOT
BRANCH   1  20
ATOM     16  C   UNK     1      -3.662  10.350  15.598  0.00  0.00    +0.000 C 
ATOM     17  C   UNK     1      -2.969  10.630  16.896  0.00  0.00    +0.000 A 
ATOM     18  C   UNK     1      -3.438  11.597  17.785  0.00  0.00    +0.000 A 
ATOM     19  C   UNK     1      -2.720  11.926  18.947  0.00  0.00    +0.000 A 
ATOM     20  C   UNK     1      -1.503  11.300  19.274  0.00  0.00    +0.000 A 
ATOM     21  C   UNK     1      -1.099  10.278  18.388  0.00  0.00    +0.000 A 
ATOM     22  C   UNK     1      -1.798   9.956  17.218  0.00  0.00    +0.000 A 
ENDBRANCH   1  20
BRANCH   1  23
ATOM     23  S   UNK     1       0.084  10.195  21.492  0.00  0.00    +0.000 S 
BRANCH  23  24
ATOM     24  C   UNK     1       1.616   9.641  20.666  0.00  0.00    +0.000 C 
BRANCH  24  25
ATOM     25  C   UNK     1       1.453   8.230  20.062  0.00  0.00    +0.000 C 
BRANCH  25  26
ATOM     26  N   UNK     1       1.872   7.157  21.003  0.00  0.00    +0.000 NA
ATOM     27  H   UNK     1       1.321   7.153  21.857  0.00  0.00    +0.000 HD
ATOM     28  H   UNK     1       2.870   7.206  21.203  0.00  0.00    +0.000 HD
ENDBRANCH  25  26
BRANCH  25  29
ATOM     29  C   UNK     1       2.161   8.110  18.715  0.00  0.00    +0.000 C 
ATOM     30  O   UNK     1       2.654   7.082  18.278  0.00  0.00    +0.000 OA
BRANCH  29  31
ATOM     31  O   UNK     1       2.208   9.275  18.023  0.00  0.00    +0.000 OA
ATOM     32  H   UNK     1       2.941   9.255  17.377  0.00  0.00    +0.000 HD
ENDBRANCH  29  31
ENDBRANCH  25  29
ENDBRANCH  24  25
ENDBRANCH  23  24
ENDBRANCH   1  23
TORSDOF 7
ENDMDL
MODEL 7
REMARK VINA RESULT:      -7.4      6.497      9.218
REMARK  Name = 
REMARK  8 active torsions:
REMARK  status: ('A' for Active; 'I' for Inactive)
REMARK    1  A    between atoms: C_1  and  C_2
REMARK    2  A    between atoms: C_5  and  C_6
REMARK    3  A    between atoms: C_6  and  S_7
REMARK    4  A    between atoms: S_7  and  C_8
REMARK    5  A    between atoms: C_8  and  C_9
REMARK    6  A    between atoms: C_9  and  N_10
REMARK    7  A    between atoms: C_9  and  C_11
REMARK    8  A    between atoms: C_11  and  O_13
REMARK                            x       y       z     vdW  Elec       q    Type
REMARK                         _______ _______ _______ _____ _____    ______ ____
ROOT
ATOM      1  C   UNK     1      -0.728  11.181  19.606  0.00  0.00    +0.000 C 
ATOM      2  C   UNK     1       0.171   9.872  20.001  0.00  0.00    +0.000 A 
ATOM      3  C   UNK     1       1.297   9.455  19.256  0.00  0.00    +0.000 A 
ATOM      4  C   UNK     1       2.019   8.297  19.597  0.00  0.00    +0.000 A 
ATOM      5  C   UNK     1       1.575   7.452  20.609  0.00  0.00    +0.000 A 
ATOM      6  C   UNK     1       0.489   7.829  21.379  0.00  0.00    +0.000 A 
ATOM      7  C   UNK     1      -0.122   9.063  21.134  0.00  0.00    +0.000 A 
ATOM      8  C   UNK     1      -0.792   9.691  22.261  0.00  0.00    +0.000 C 
ATOM      9  C   UNK     1      -0.130  10.828  22.565  0.00  0.00    +0.000 C 
ATOM     10  C   UNK     1      -0.941  11.965  22.144  0.00  0.00    +0.000 A 
ATOM     11  C   UNK     1      -1.465  12.733  23.182  0.00  0.00    +0.000 A 
ATOM     12  C   UNK     1      -2.696  13.349  23.008  0.00  0.00    +0.000 A 
ATOM     13  C   UNK     1      -3.376  13.154  21.814  0.00  0.00    +0.000 A 
ATOM     14  C   UNK     1      -2.774  12.470  20.743  0.00  0.00    +0.000 A 
ATOM     15  C   UNK     1      -1.479  11.926  20.822  0.00  0.00    +0.000 A 
ENDROOT
BRANCH   1  20
ATOM     16  C   UNK     1      -3.959  10.277  14.707  0.00  0.00    +0.000 C 
ATOM     17  C   UNK     1      -3.232  10.423  16.009  0.00  0.00    +0.000 A 
ATOM     18  C   UNK     1      -3.598  11.387  16.950  0.00  0.00    +0.000 A 
ATOM     19  C   UNK     1      -2.842  11.585  18.118  0.00  0.00    +0.000 A 
ATOM     20  C   UNK     1      -1.690  10.827  18.399  0.00  0.00    +0.000 A 
ATOM     21  C   UNK     1      -1.396   9.815  17.460  0.00  0.00    +0.000 A 
ATOM     22  C   UNK     1      -2.132   9.622  16.285  0.00  0.00    +0.000 A 
ENDBRANCH   1  20
BRANCH   1  23
ATOM     23  S   UNK     1       0.697  12.459  18.943  0.00  0.00    +0.000 S 
BRANCH  23  24
ATOM     24  C   UNK     1      -0.150  14.002  18.458  0.00  0.00    +0.000 C 
BRANCH  24  25
ATOM     25  C   UNK     1      -0.150  15.031  19.608  0.00  0.00    +0.000 C 
BRANCH  25  26
ATOM     26  N   UNK     1      -1.449  15.747  19.731  0.00  0.00    +0.000 NA
ATOM     27  H   UNK     1      -2.225  15.113  19.897  0.00  0.00    +0.000 HD
ATOM     28  H   UNK     1      -1.621  16.346  18.925  0.00  0.00    +0.000 HD
ENDBRANCH  25  26
BRANCH  25  29
ATOM     29  C   UNK     1       1.022  16.003  19.493  0.00  0.00    +0.000 C 
ATOM     30  O   UNK     1       1.442  16.466  18.444  0.00  0.00    +0.000 OA
BRANCH  29  31
ATOM     31  O   UNK     1       1.584  16.316  20.688  0.00  0.00    +0.000 OA
ATOM     32  H   UNK     1       0.979  16.079  21.417  0.00  0.00    +0.000 HD
ENDBRANCH  29  31
ENDBRANCH  25  29
ENDBRANCH  24  25
ENDBRANCH  23  24
ENDBRANCH   1  23
TORSDOF 7
ENDMDL
MODEL 8
REMARK VINA RESULT:      -7.3      6.506      9.256
REMARK  Name = 
REMARK  8 active torsions:
REMARK  status: ('A' for Active; 'I' for Inactive)
REMARK    1  A    between atoms: C_1  and  C_2
REMARK    2  A    between atoms: C_5  and  C_6
REMARK    3  A    between atoms: C_6  and  S_7
REMARK    4  A    between atoms: S_7  and  C_8
REMARK    5  A    between atoms: C_8  and  C_9
REMARK    6  A    between atoms: C_9  and  N_10
REMARK    7  A    between atoms: C_9  and  C_11
REMARK    8  A    between atoms: C_11  and  O_13
REMARK                            x       y       z     vdW  Elec       q    Type
REMARK                         _______ _______ _______ _____ _____    ______ ____
ROOT
ATOM      1  C   UNK     1      -0.746  11.189  19.614  0.00  0.00    +0.000 C 
ATOM      2  C   UNK     1       0.140   9.876  20.024  0.00  0.00    +0.000 A 
ATOM      3  C   UNK     1       1.270   9.448  19.291  0.00  0.00    +0.000 A 
ATOM      4  C   UNK     1       1.981   8.286  19.643  0.00  0.00    +0.000 A 
ATOM      5  C   UNK     1       1.522   7.449  20.656  0.00  0.00    +0.000 A 
ATOM      6  C   UNK     1       0.431   7.837  21.413  0.00  0.00    +0.000 A 
ATOM      7  C   UNK     1      -0.169   9.074  21.157  0.00  0.00    +0.000 A 
ATOM      8  C   UNK     1      -0.845   9.712  22.275  0.00  0.00    +0.000 C 
ATOM      9  C   UNK     1      -0.177  10.846  22.580  0.00  0.00    +0.000 C 
ATOM     10  C   UNK     1      -0.977  11.987  22.147  0.00  0.00    +0.000 A 
ATOM     11  C   UNK     1      -1.505  12.763  23.176  0.00  0.00    +0.000 A 
ATOM     12  C   UNK     1      -2.729  13.386  22.988  0.00  0.00    +0.000 A 
ATOM     13  C   UNK     1      -3.400  13.190  21.790  0.00  0.00    +0.000 A 
ATOM     14  C   UNK     1      -2.794  12.498  20.727  0.00  0.00    +0.000 A 
ATOM     15  C   UNK     1      -1.503  11.945  20.820  0.00  0.00    +0.000 A 
ENDROOT
BRANCH   1  20
ATOM     16  C   UNK     1      -3.921  10.261  14.683  0.00  0.00    +0.000 C 
ATOM     17  C   UNK     1      -3.213  10.419  15.995  0.00  0.00    +0.000 A 
ATOM     18  C   UNK     1      -3.556  11.427  16.897  0.00  0.00    +0.000 A 
ATOM     19  C   UNK     1      -2.814  11.631  18.073  0.00  0.00    +0.000 A 
ATOM     20  C   UNK     1      -1.700  10.836  18.401  0.00  0.00    +0.000 A 
ATOM     21  C   UNK     1      -1.431   9.783  17.500  0.00  0.00    +0.000 A 
ATOM     22  C   UNK     1      -2.153   9.583  16.317  0.00  0.00    +0.000 A 
ENDBRANCH   1  20
BRANCH   1  23
ATOM     23  S   UNK     1       0.694  12.454  18.958  0.00  0.00    +0.000 S 
BRANCH  23  24
ATOM     24  C   UNK     1      -0.087  14.091  18.746  0.00  0.00    +0.000 C 
BRANCH  24  25
ATOM     25  C   UNK     1       0.960  15.224  18.775  0.00  0.00    +0.000 C 
BRANCH  25  26
ATOM     26  N   UNK     1       1.964  15.044  19.858  0.00  0.00    +0.000 NA
ATOM     27  H   UNK     1       2.690  15.754  19.835  0.00  0.00    +0.000 HD
ATOM     28  H   UNK     1       2.359  14.104  19.847  0.00  0.00    +0.000 HD
ENDBRANCH  25  26
BRANCH  25  29
ATOM     29  C   UNK     1       0.300  16.599  18.839  0.00  0.00    +0.000 C 
ATOM     30  O   UNK     1       0.850  17.618  19.226  0.00  0.00    +0.000 OA
BRANCH  29  31
ATOM     31  O   UNK     1      -0.992  16.599  18.425  0.00  0.00    +0.000 OA
ATOM     32  H   UNK     1      -1.500  17.282  18.904  0.00  0.00    +0.000 HD
ENDBRANCH  29  31
ENDBRANCH  25  29
ENDBRANCH  24  25
ENDBRANCH  23  24
ENDBRANCH   1  23
TORSDOF 7
ENDMDL
MODEL 9
REMARK VINA RESULT:      -7.3      8.287     10.359
REMARK  Name = 
REMARK  8 active torsions:
REMARK  status: ('A' for Active; 'I' for Inactive)
REMARK    1  A    between atoms: C_1  and  C_2
REMARK    2  A    between atoms: C_5  and  C_6
REMARK    3  A    between atoms: C_6  and  S_7
REMARK    4  A    between atoms: S_7  and  C_8
REMARK    5  A    between atoms: C_8  and  C_9
REMARK    6  A    between atoms: C_9  and  N_10
REMARK    7  A    between atoms: C_9  and  C_11
REMARK    8  A    between atoms: C_11  and  O_13
REMARK                            x       y       z     vdW  Elec       q    Type
REMARK                         _______ _______ _______ _____ _____    ______ ____
ROOT
ATOM      1  C   UNK     1      -1.251  12.244  20.337  0.00  0.00    +0.000 C 
ATOM      2  C   UNK     1      -0.462  11.181  21.300  0.00  0.00    +0.000 A 
ATOM      3  C   UNK     1       0.825  10.679  21.003  0.00  0.00    +0.000 A 
ATOM      4  C   UNK     1       1.455   9.729  21.828  0.00  0.00    +0.000 A 
ATOM      5  C   UNK     1       0.779   9.159  22.903  0.00  0.00    +0.000 A 
ATOM      6  C   UNK     1      -0.475   9.634  23.243  0.00  0.00    +0.000 A 
ATOM      7  C   UNK     1      -1.023  10.692  22.512  0.00  0.00    +0.000 A 
ATOM      8  C   UNK     1      -1.972  11.543  23.212  0.00  0.00    +0.000 C 
ATOM      9  C   UNK     1      -1.430  12.775  23.325  0.00  0.00    +0.000 C 
ATOM     10  C   UNK     1      -2.125  13.674  22.410  0.00  0.00    +0.000 A 
ATOM     11  C   UNK     1      -2.911  14.647  23.023  0.00  0.00    +0.000 A 
ATOM     12  C   UNK     1      -4.065  15.078  22.385  0.00  0.00    +0.000 A 
ATOM     13  C   UNK     1      -4.412  14.501  21.172  0.00  0.00    +0.000 A 
ATOM     14  C   UNK     1      -3.543  13.606  20.523  0.00  0.00    +0.000 A 
ATOM     15  C   UNK     1      -2.302  13.224  21.067  0.00  0.00    +0.000 A 
ENDROOT
BRANCH   1  20
ATOM     16  C   UNK     1      -3.189   9.831  15.271  0.00  0.00    +0.000 C 
ATOM     17  C   UNK     1      -2.783  10.353  16.616  0.00  0.00    +0.000 A 
ATOM     18  C   UNK     1      -3.507  11.354  17.264  0.00  0.00    +0.000 A 
ATOM     19  C   UNK     1      -3.056  11.909  18.473  0.00  0.00    +0.000 A 
ATOM     20  C   UNK     1      -1.864  11.486  19.089  0.00  0.00    +0.000 A 
ATOM     21  C   UNK     1      -1.199  10.423  18.441  0.00  0.00    +0.000 A 
ATOM     22  C   UNK     1      -1.631   9.876  17.226  0.00  0.00    +0.000 A 
ENDBRANCH   1  20
BRANCH   1  23
ATOM     23  S   UNK     1       0.275  13.413  19.699  0.00  0.00    +0.000 S 
BRANCH  23  24
ATOM     24  C   UNK     1      -0.446  14.686  18.606  0.00  0.00    +0.000 C 
BRANCH  24  25
ATOM     25  C   UNK     1      -0.433  16.077  19.273  0.00  0.00    +0.000 C 
BRANCH  25  26
ATOM     26  N   UNK     1      -1.795  16.536  19.657  0.00  0.00    +0.000 NA
ATOM     27  H   UNK     1      -2.528  16.010  19.189  0.00  0.00    +0.000 HD
ATOM     28  H   UNK     1      -1.905  17.540  19.511  0.00  0.00    +0.000 HD
ENDBRANCH  25  26
BRANCH  25  29
ATOM     29  C   UNK     1       0.289  17.109  18.411  0.00  0.00    +0.000 C 
ATOM     30  O   UNK     1       1.402  17.554  18.644  0.00  0.00    +0.000 OA
BRANCH  29  31
ATOM     31  O   UNK     1      -0.428  17.510  17.332  0.00  0.00    +0.000 OA
ATOM     32  H   UNK     1      -0.732  18.431  17.453  0.00  0.00    +0.000 HD
ENDBRANCH  29  31
ENDBRANCH  25  29
ENDBRANCH  24  25
ENDBRANCH  23  24
ENDBRANCH   1  23
TORSDOF 7
ENDMDL
