MODEL 1
REMARK VINA RESULT:      -7.9      0.000      0.000
REMARK  Name = 
REMARK  6 active torsions:
REMARK  status: ('A' for Active; 'I' for Inactive)
REMARK    1  A    between atoms: C_1  and  C_2
REMARK    2  A    between atoms: C_2  and  N_3
REMARK    3  A    between atoms: C_5  and  C_6
REMARK    4  A    between atoms: C_6  and  O_8
REMARK    5  A    between atoms: C_16  and  N_17
REMARK    6  A    between atoms: N_17  and  C_18
REMARK                            x       y       z     vdW  Elec       q    Type
REMARK                         _______ _______ _______ _____ _____    ______ ____
ROOT
ATOM      1  N   UNL     1       2.495   6.436  19.240  0.00  0.00    +0.000 N 
ATOM      2  C   UNL     1       2.009   5.497  20.145  0.00  0.00    +0.000 A 
ATOM      3  C   UNL     1       2.507   4.272  20.338  0.00  0.00    +0.000 A 
ATOM      4  C   UNL     1       3.672   3.893  19.515  0.00  0.00    +0.000 A 
ATOM      5  O   UNL     1       4.141   2.766  19.674  0.00  0.00    +0.000 OA
ATOM      6  C   UNL     1       4.233   4.885  18.539  0.00  0.00    +0.000 A 
ATOM      7  C   UNL     1       3.627   6.091  18.448  0.00  0.00    +0.000 A 
ATOM      8  C   UNL     1       4.203   7.092  17.470  0.00  0.00    +0.000 C 
ATOM      9  O   UNL     1       3.785   8.239  17.336  0.00  0.00    +0.000 OA
ATOM     10  C   UNL     1       5.346   6.703  16.640  0.00  0.00    +0.000 C 
ATOM     11  C   UNL     1       5.953   5.522  16.747  0.00  0.00    +0.000 C 
ATOM     12  C   UNL     1       5.434   4.530  17.737  0.00  0.00    +0.000 C 
ATOM     13  O   UNL     1       6.032   3.462  17.844  0.00  0.00    +0.000 OA
ENDROOT
BRANCH   1  15
ATOM     14  C   UNL     1       1.499   8.193  20.664  0.00  0.00    +0.000 C 
ATOM     15  C   UNL     1       1.861   7.777  19.244  0.00  0.00    +0.000 C 
ENDBRANCH   1  15
BRANCH   3  16
ATOM     16  C   UNL     1       1.876   3.397  21.350  0.00  0.00    +0.000 C 
ATOM     17  O   UNL     1       2.396   3.131  22.426  0.00  0.00    +0.000 OA
BRANCH  16  18
ATOM     18  O   UNL     1       0.674   2.896  20.998  0.00  0.00    +0.000 OA
ATOM     19  H   UNL     1       0.351   2.165  21.581  0.00  0.00    +0.000 HD
ENDBRANCH  16  18
ENDBRANCH   3  16
BRANCH  11  20
ATOM     20  N   UNL     1       7.087   5.146  16.020  0.00  0.00    +0.000 N 
ATOM     21  H   UNL     1       7.428   4.258  16.417  0.00  0.00    +0.000 HD
BRANCH  20  22
ATOM     22  C   UNL     1       7.034   4.958  14.605  0.00  0.00    +0.000 A 
ATOM     23  C   UNL     1       7.927   5.691  13.810  0.00  0.00    +0.000 A 
ATOM     24  C   UNL     1       8.025   5.450  12.435  0.00  0.00    +0.000 A 
ATOM     25  C   UNL     1       7.252   4.451  11.843  0.00  0.00    +0.000 A 
ATOM     26  C   UNL     1       6.374   3.701  12.624  0.00  0.00    +0.000 A 
ATOM     27 CL   UNL     1       5.445   2.452  11.888  0.00  0.00    +0.000 Cl
ATOM     28  C   UNL     1       6.270   3.948  13.993  0.00  0.00    +0.000 A 
ATOM     29  F   UNL     1       5.446   3.193  14.741  0.00  0.00    +0.000 F 
ENDBRANCH  20  22
ENDBRANCH  11  20
TORSDOF 5
ENDMDL
MODEL 2
REMARK VINA RESULT:      -7.8      4.190      8.306
REMARK  Name = 
REMARK  6 active torsions:
REMARK  status: ('A' for Active; 'I' for Inactive)
REMARK    1  A    between atoms: C_1  and  C_2
REMARK    2  A    between atoms: C_2  and  N_3
REMARK    3  A    between atoms: C_5  and  C_6
REMARK    4  A    between atoms: C_6  and  O_8
REMARK    5  A    between atoms: C_16  and  N_17
REMARK    6  A    between atoms: N_17  and  C_18
REMARK                            x       y       z     vdW  Elec       q    Type
REMARK                         _______ _______ _______ _____ _____    ______ ____
ROOT
ATOM      1  N   UNL     1       4.394   4.147  18.490  0.00  0.00    +0.000 N 
ATOM      2  C   UNL     1       5.260   4.019  17.408  0.00  0.00    +0.000 A 
ATOM      3  C   UNL     1       5.476   4.946  16.470  0.00  0.00    +0.000 A 
ATOM      4  C   UNL     1       4.725   6.210  16.603  0.00  0.00    +0.000 A 
ATOM      5  O   UNL     1       4.906   7.073  15.744  0.00  0.00    +0.000 OA
ATOM      6  C   UNL     1       3.794   6.391  17.765  0.00  0.00    +0.000 A 
ATOM      7  C   UNL     1       3.673   5.366  18.640  0.00  0.00    +0.000 A 
ATOM      8  C   UNL     1       2.741   5.557  19.817  0.00  0.00    +0.000 C 
ATOM      9  O   UNL     1       2.588   4.732  20.713  0.00  0.00    +0.000 OA
ATOM     10  C   UNL     1       1.982   6.806  19.932  0.00  0.00    +0.000 C 
ATOM     11  C   UNL     1       2.120   7.820  19.080  0.00  0.00    +0.000 C 
ATOM     12  C   UNL     1       3.067   7.677  17.933  0.00  0.00    +0.000 C 
ATOM     13  O   UNL     1       3.204   8.639  17.181  0.00  0.00    +0.000 OA
ENDROOT
BRANCH   1  15
ATOM     14  C   UNL     1       3.682   1.814  18.886  0.00  0.00    +0.000 C 
ATOM     15  C   UNL     1       4.367   3.039  19.476  0.00  0.00    +0.000 C 
ENDBRANCH   1  15
BRANCH   3  16
ATOM     16  C   UNL     1       6.439   4.653  15.386  0.00  0.00    +0.000 C 
ATOM     17  O   UNL     1       6.333   3.691  14.636  0.00  0.00    +0.000 OA
BRANCH  16  18
ATOM     18  O   UNL     1       7.462   5.526  15.283  0.00  0.00    +0.000 OA
ATOM     19  H   UNL     1       7.957   5.674  16.126  0.00  0.00    +0.000 HD
ENDBRANCH  16  18
ENDBRANCH   3  16
BRANCH  11  20
ATOM     20  N   UNL     1       1.463   9.049  19.199  0.00  0.00    +0.000 N 
ATOM     21  H   UNL     1       0.784   9.113  18.426  0.00  0.00    +0.000 HD
BRANCH  20  22
ATOM     22  C   UNL     1       0.752   9.400  20.387  0.00  0.00    +0.000 A 
ATOM     23  C   UNL     1       1.190   8.855  21.603  0.00  0.00    +0.000 A 
ATOM     24  C   UNL     1       0.630   9.268  22.816  0.00  0.00    +0.000 A 
ATOM     25  C   UNL     1      -0.357  10.254  22.831  0.00  0.00    +0.000 A 
ATOM     26  C   UNL     1      -0.789  10.818  21.632  0.00  0.00    +0.000 A 
ATOM     27 CL   UNL     1      -1.989  12.054  21.665  0.00  0.00    +0.000 Cl
ATOM     28  C   UNL     1      -0.237  10.399  20.422  0.00  0.00    +0.000 A 
ATOM     29  F   UNL     1      -0.637  10.979  19.276  0.00  0.00    +0.000 F 
ENDBRANCH  20  22
ENDBRANCH  11  20
TORSDOF 5
ENDMDL
MODEL 3
REMARK VINA RESULT:      -7.7      4.962      7.671
REMARK  Name = 
REMARK  6 active torsions:
REMARK  status: ('A' for Active; 'I' for Inactive)
REMARK    1  A    between atoms: C_1  and  C_2
REMARK    2  A    between atoms: C_2  and  N_3
REMARK    3  A    between atoms: C_5  and  C_6
REMARK    4  A    between atoms: C_6  and  O_8
REMARK    5  A    between atoms: C_16  and  N_17
REMARK    6  A    between atoms: N_17  and  C_18
REMARK                            x       y       z     vdW  Elec       q    Type
REMARK                         _______ _______ _______ _____ _____    ______ ____
ROOT
ATOM      1  N   UNL     1      -1.254  11.537  19.723  0.00  0.00    +0.000 N 
ATOM      2  C   UNL     1      -1.798  12.119  20.863  0.00  0.00    +0.000 A 
ATOM      3  C   UNL     1      -1.523  11.769  22.123  0.00  0.00    +0.000 A 
ATOM      4  C   UNL     1      -0.557  10.668  22.309  0.00  0.00    +0.000 A 
ATOM      5  O   UNL     1      -0.296  10.328  23.462  0.00  0.00    +0.000 OA
ATOM      6  C   UNL     1       0.063  10.027  21.103  0.00  0.00    +0.000 A 
ATOM      7  C   UNL     1      -0.310  10.483  19.885  0.00  0.00    +0.000 A 
ATOM      8  C   UNL     1       0.326   9.839  18.672  0.00  0.00    +0.000 C 
ATOM      9  O   UNL     1       0.122  10.201  17.517  0.00  0.00    +0.000 OA
ATOM     10  C   UNL     1       1.268   8.733  18.862  0.00  0.00    +0.000 C 
ATOM     11  C   UNL     1       1.648   8.300  20.063  0.00  0.00    +0.000 C 
ATOM     12  C   UNL     1       1.070   8.947  21.280  0.00  0.00    +0.000 C 
ATOM     13  O   UNL     1       1.462   8.556  22.377  0.00  0.00    +0.000 OA
ENDROOT
BRANCH   1  15
ATOM     14  C   UNL     1      -2.971  11.620  17.948  0.00  0.00    +0.000 C 
ATOM     15  C   UNL     1      -1.616  12.134  18.414  0.00  0.00    +0.000 C 
ENDBRANCH   1  15
BRANCH   3  16
ATOM     16  C   UNL     1      -2.185  12.498  23.227  0.00  0.00    +0.000 C 
ATOM     17  O   UNL     1      -1.833  13.609  23.604  0.00  0.00    +0.000 OA
BRANCH  16  18
ATOM     18  O   UNL     1      -3.213  11.843  23.805  0.00  0.00    +0.000 OA
ATOM     19  H   UNL     1      -3.066  11.612  24.755  0.00  0.00    +0.000 HD
ENDBRANCH  16  18
ENDBRANCH   3  16
BRANCH  11  20
ATOM     20  N   UNL     1       2.595   7.294  20.279  0.00  0.00    +0.000 N 
ATOM     21  H   UNL     1       2.844   7.314  21.280  0.00  0.00    +0.000 HD
BRANCH  20  22
ATOM     22  C   UNL     1       2.316   5.930  19.962  0.00  0.00    +0.000 A 
ATOM     23  C   UNL     1       1.455   5.219  20.812  0.00  0.00    +0.000 A 
ATOM     24  C   UNL     1       1.029   3.928  20.482  0.00  0.00    +0.000 A 
ATOM     25  C   UNL     1       1.434   3.343  19.283  0.00  0.00    +0.000 A 
ATOM     26  C   UNL     1       2.274   4.044  18.420  0.00  0.00    +0.000 A 
ATOM     27 CL   UNL     1       2.747   3.322  16.929  0.00  0.00    +0.000 Cl
ATOM     28  C   UNL     1       2.707   5.327  18.753  0.00  0.00    +0.000 A 
ATOM     29  F   UNL     1       3.487   6.007  17.894  0.00  0.00    +0.000 F 
ENDBRANCH  20  22
ENDBRANCH  11  20
TORSDOF 5
ENDMDL
MODEL 4
REMARK VINA RESULT:      -7.5      4.988      7.454
REMARK  Name = 
REMARK  6 active torsions:
REMARK  status: ('A' for Active; 'I' for Inactive)
REMARK    1  A    between atoms: C_1  and  C_2
REMARK    2  A    between atoms: C_2  and  N_3
REMARK    3  A    between atoms: C_5  and  C_6
REMARK    4  A    between atoms: C_6  and  O_8
REMARK    5  A    between atoms: C_16  and  N_17
REMARK    6  A    between atoms: N_17  and  C_18
REMARK                            x       y       z     vdW  Elec       q    Type
REMARK                         _______ _______ _______ _____ _____    ______ ____
ROOT
ATOM      1  N   UNL     1      -1.008  11.634  19.746  0.00  0.00    +0.000 N 
ATOM      2  C   UNL     1      -1.571  12.203  20.884  0.00  0.00    +0.000 A 
ATOM      3  C   UNL     1      -1.379  11.784  22.139  0.00  0.00    +0.000 A 
ATOM      4  C   UNL     1      -0.494  10.617  22.320  0.00  0.00    +0.000 A 
ATOM      5  O   UNL     1      -0.311  10.213  23.468  0.00  0.00    +0.000 OA
ATOM      6  C   UNL     1       0.144   9.987  21.117  0.00  0.00    +0.000 A 
ATOM      7  C   UNL     1      -0.140  10.516  19.904  0.00  0.00    +0.000 A 
ATOM      8  C   UNL     1       0.514   9.884  18.695  0.00  0.00    +0.000 C 
ATOM      9  O   UNL     1       0.388  10.305  17.548  0.00  0.00    +0.000 OA
ATOM     10  C   UNL     1       1.374   8.712  18.879  0.00  0.00    +0.000 C 
ATOM     11  C   UNL     1       1.668   8.207  20.076  0.00  0.00    +0.000 C 
ATOM     12  C   UNL     1       1.072   8.839  21.292  0.00  0.00    +0.000 C 
ATOM     13  O   UNL     1       1.385   8.379  22.388  0.00  0.00    +0.000 OA
ENDROOT
BRANCH   1  15
ATOM     14  C   UNL     1      -0.430  13.572  18.326  0.00  0.00    +0.000 C 
ATOM     15  C   UNL     1      -1.267  12.306  18.449  0.00  0.00    +0.000 C 
ENDBRANCH   1  15
BRANCH   3  16
ATOM     16  C   UNL     1      -2.048  12.508  23.242  0.00  0.00    +0.000 C 
ATOM     17  O   UNL     1      -1.659  13.588  23.669  0.00  0.00    +0.000 OA
BRANCH  16  18
ATOM     18  O   UNL     1      -3.127  11.885  23.759  0.00  0.00    +0.000 OA
ATOM     19  H   UNL     1      -2.943  11.368  24.582  0.00  0.00    +0.000 HD
ENDBRANCH  16  18
ENDBRANCH   3  16
BRANCH  11  20
ATOM     20  N   UNL     1       2.538   7.134  20.291  0.00  0.00    +0.000 N 
ATOM     21  H   UNL     1       2.331   6.751  21.226  0.00  0.00    +0.000 HD
BRANCH  20  22
ATOM     22  C   UNL     1       2.579   6.019  19.400  0.00  0.00    +0.000 A 
ATOM     23  C   UNL     1       3.600   5.981  18.439  0.00  0.00    +0.000 A 
ATOM     24  C   UNL     1       3.782   4.853  17.632  0.00  0.00    +0.000 A 
ATOM     25  C   UNL     1       2.963   3.735  17.797  0.00  0.00    +0.000 A 
ATOM     26  C   UNL     1       1.957   3.751  18.761  0.00  0.00    +0.000 A 
ATOM     27 CL   UNL     1       0.970   2.356  18.975  0.00  0.00    +0.000 Cl
ATOM     28  C   UNL     1       1.770   4.880  19.559  0.00  0.00    +0.000 A 
ATOM     29  F   UNL     1       0.820   4.868  20.511  0.00  0.00    +0.000 F 
ENDBRANCH  20  22
ENDBRANCH  11  20
TORSDOF 5
ENDMDL
MODEL 5
REMARK VINA RESULT:      -7.5      1.441      3.417
REMARK  Name = 
REMARK  6 active torsions:
REMARK  status: ('A' for Active; 'I' for Inactive)
REMARK    1  A    between atoms: C_1  and  C_2
REMARK    2  A    between atoms: C_2  and  N_3
REMARK    3  A    between atoms: C_5  and  C_6
REMARK    4  A    between atoms: C_6  and  O_8
REMARK    5  A    between atoms: C_16  and  N_17
REMARK    6  A    between atoms: N_17  and  C_18
REMARK                            x       y       z     vdW  Elec       q    Type
REMARK                         _______ _______ _______ _____ _____    ______ ____
ROOT
ATOM      1  N   UNL     1       3.065   5.526  19.625  0.00  0.00    +0.000 N 
ATOM      2  C   UNL     1       2.247   6.649  19.538  0.00  0.00    +0.000 A 
ATOM      3  C   UNL     1       2.399   7.657  18.676  0.00  0.00    +0.000 A 
ATOM      4  C   UNL     1       3.537   7.563  17.739  0.00  0.00    +0.000 A 
ATOM      5  O   UNL     1       3.696   8.486  16.942  0.00  0.00    +0.000 OA
ATOM      6  C   UNL     1       4.431   6.359  17.792  0.00  0.00    +0.000 A 
ATOM      7  C   UNL     1       4.158   5.412  18.720  0.00  0.00    +0.000 A 
ATOM      8  C   UNL     1       5.057   4.195  18.762  0.00  0.00    +0.000 C 
ATOM      9  O   UNL     1       4.882   3.239  19.512  0.00  0.00    +0.000 OA
ATOM     10  C   UNL     1       6.197   4.117  17.844  0.00  0.00    +0.000 C 
ATOM     11  C   UNL     1       6.450   5.041  16.919  0.00  0.00    +0.000 C 
ATOM     12  C   UNL     1       5.553   6.233  16.824  0.00  0.00    +0.000 C 
ATOM     13  O   UNL     1       5.784   7.054  15.940  0.00  0.00    +0.000 OA
ENDROOT
BRANCH   1  15
ATOM     14  C   UNL     1       1.184   4.163  20.468  0.00  0.00    +0.000 C 
ATOM     15  C   UNL     1       2.671   4.469  20.588  0.00  0.00    +0.000 C 
ENDBRANCH   1  15
BRANCH   3  16
ATOM     16  C   UNL     1       1.433   8.777  18.710  0.00  0.00    +0.000 C 
ATOM     17  O   UNL     1       0.955   9.220  19.748  0.00  0.00    +0.000 OA
BRANCH  16  18
ATOM     18  O   UNL     1       1.103   9.281  17.503  0.00  0.00    +0.000 OA
ATOM     19  H   UNL     1       0.138   9.466  17.389  0.00  0.00    +0.000 HD
ENDBRANCH  16  18
ENDBRANCH   3  16
BRANCH  11  20
ATOM     20  N   UNL     1       7.487   4.963  15.985  0.00  0.00    +0.000 N 
ATOM     21  H   UNL     1       8.072   4.154  16.240  0.00  0.00    +0.000 HD
BRANCH  20  22
ATOM     22  C   UNL     1       7.221   4.841  14.587  0.00  0.00    +0.000 A 
ATOM     23  C   UNL     1       7.993   5.607  13.701  0.00  0.00    +0.000 A 
ATOM     24  C   UNL     1       7.882   5.429  12.317  0.00  0.00    +0.000 A 
ATOM     25  C   UNL     1       7.019   4.462  11.804  0.00  0.00    +0.000 A 
ATOM     26  C   UNL     1       6.259   3.680  12.673  0.00  0.00    +0.000 A 
ATOM     27 CL   UNL     1       5.217   2.470  12.028  0.00  0.00    +0.000 Cl
ATOM     28  C   UNL     1       6.363   3.864  14.051  0.00  0.00    +0.000 A 
ATOM     29  F   UNL     1       5.653   3.078  14.880  0.00  0.00    +0.000 F 
ENDBRANCH  20  22
ENDBRANCH  11  20
TORSDOF 5
ENDMDL
MODEL 6
REMARK VINA RESULT:      -7.4      4.287      7.368
REMARK  Name = 
REMARK  6 active torsions:
REMARK  status: ('A' for Active; 'I' for Inactive)
REMARK    1  A    between atoms: C_1  and  C_2
REMARK    2  A    between atoms: C_2  and  N_3
REMARK    3  A    between atoms: C_5  and  C_6
REMARK    4  A    between atoms: C_6  and  O_8
REMARK    5  A    between atoms: C_16  and  N_17
REMARK    6  A    between atoms: N_17  and  C_18
REMARK                            x       y       z     vdW  Elec       q    Type
REMARK                         _______ _______ _______ _____ _____    ______ ____
ROOT
ATOM      1  N   UNL     1       4.516   5.235  17.409  0.00  0.00    +0.000 N 
ATOM      2  C   UNL     1       4.678   3.982  17.993  0.00  0.00    +0.000 A 
ATOM      3  C   UNL     1       4.106   3.573  19.129  0.00  0.00    +0.000 A 
ATOM      4  C   UNL     1       3.228   4.541  19.815  0.00  0.00    +0.000 A 
ATOM      5  O   UNL     1       2.696   4.185  20.866  0.00  0.00    +0.000 OA
ATOM      6  C   UNL     1       3.016   5.896  19.206  0.00  0.00    +0.000 A 
ATOM      7  C   UNL     1       3.661   6.176  18.050  0.00  0.00    +0.000 A 
ATOM      8  C   UNL     1       3.435   7.540  17.435  0.00  0.00    +0.000 C 
ATOM      9  O   UNL     1       3.911   7.895  16.361  0.00  0.00    +0.000 OA
ATOM     10  C   UNL     1       2.580   8.504  18.131  0.00  0.00    +0.000 C 
ATOM     11  C   UNL     1       1.930   8.219  19.258  0.00  0.00    +0.000 C 
ATOM     12  C   UNL     1       2.098   6.864  19.865  0.00  0.00    +0.000 C 
ATOM     13  O   UNL     1       1.461   6.610  20.885  0.00  0.00    +0.000 OA
ENDROOT
BRANCH   1  15
ATOM     14  C   UNL     1       5.536   4.136  15.445  0.00  0.00    +0.000 C 
ATOM     15  C   UNL     1       5.163   5.462  16.093  0.00  0.00    +0.000 C 
ENDBRANCH   1  15
BRANCH   3  16
ATOM     16  C   UNL     1       4.378   2.201  19.611  0.00  0.00    +0.000 C 
ATOM     17  O   UNL     1       4.943   1.963  20.671  0.00  0.00    +0.000 OA
BRANCH  16  18
ATOM     18  O   UNL     1       3.963   1.216  18.788  0.00  0.00    +0.000 OA
ATOM     19  H   UNL     1       3.289   1.499  18.122  0.00  0.00    +0.000 HD
ENDBRANCH  16  18
ENDBRANCH   3  16
BRANCH  11  20
ATOM     20  N   UNL     1       1.053   9.092  19.910  0.00  0.00    +0.000 N 
ATOM     21  H   UNL     1       1.589   9.572  20.649  0.00  0.00    +0.000 HD
BRANCH  20  22
ATOM     22  C   UNL     1       0.351  10.110  19.197  0.00  0.00    +0.000 A 
ATOM     23  C   UNL     1      -0.807   9.744  18.495  0.00  0.00    +0.000 A 
ATOM     24  C   UNL     1      -1.618  10.713  17.896  0.00  0.00    +0.000 A 
ATOM     25  C   UNL     1      -1.299  12.065  18.018  0.00  0.00    +0.000 A 
ATOM     26  C   UNL     1      -0.162  12.446  18.729  0.00  0.00    +0.000 A 
ATOM     27 CL   UNL     1       0.209  14.120  18.896  0.00  0.00    +0.000 Cl
ATOM     28  C   UNL     1       0.652  11.479  19.317  0.00  0.00    +0.000 A 
ATOM     29  F   UNL     1       1.725  11.862  20.033  0.00  0.00    +0.000 F 
ENDBRANCH  20  22
ENDBRANCH  11  20
TORSDOF 5
ENDMDL
MODEL 7
REMARK VINA RESULT:      -7.3      3.837      5.470
REMARK  Name = 
REMARK  6 active torsions:
REMARK  status: ('A' for Active; 'I' for Inactive)
REMARK    1  A    between atoms: C_1  and  C_2
REMARK    2  A    between atoms: C_2  and  N_3
REMARK    3  A    between atoms: C_5  and  C_6
REMARK    4  A    between atoms: C_6  and  O_8
REMARK    5  A    between atoms: C_16  and  N_17
REMARK    6  A    between atoms: N_17  and  C_18
REMARK                            x       y       z     vdW  Elec       q    Type
REMARK                         _______ _______ _______ _____ _____    ______ ____
ROOT
ATOM      1  N   UNL     1       0.927  10.890  19.691  0.00  0.00    +0.000 N 
ATOM      2  C   UNL     1       0.305  10.964  20.934  0.00  0.00    +0.000 A 
ATOM      3  C   UNL     1       0.135   9.945  21.781  0.00  0.00    +0.000 A 
ATOM      4  C   UNL     1       0.655   8.631  21.351  0.00  0.00    +0.000 A 
ATOM      5  O   UNL     1       0.502   7.680  22.115  0.00  0.00    +0.000 OA
ATOM      6  C   UNL     1       1.346   8.517  20.024  0.00  0.00    +0.000 A 
ATOM      7  C   UNL     1       1.447   9.634  19.267  0.00  0.00    +0.000 A 
ATOM      8  C   UNL     1       2.154   9.515  17.934  0.00  0.00    +0.000 C 
ATOM      9  O   UNL     1       2.366  10.462  17.183  0.00  0.00    +0.000 OA
ATOM     10  C   UNL     1       2.649   8.204  17.503  0.00  0.00    +0.000 C 
ATOM     11  C   UNL     1       2.567   7.111  18.260  0.00  0.00    +0.000 C 
ATOM     12  C   UNL     1       1.914   7.209  19.600  0.00  0.00    +0.000 C 
ATOM     13  O   UNL     1       1.880   6.196  20.296  0.00  0.00    +0.000 OA
ENDROOT
BRANCH   1  15
ATOM     14  C   UNL     1      -0.225  12.892  18.814  0.00  0.00    +0.000 C 
ATOM     15  C   UNL     1       1.103  12.157  18.940  0.00  0.00    +0.000 C 
ENDBRANCH   1  15
BRANCH   3  16
ATOM     16  C   UNL     1      -0.543  10.195  23.071  0.00  0.00    +0.000 C 
ATOM     17  O   UNL     1      -1.480  10.974  23.197  0.00  0.00    +0.000 OA
BRANCH  16  18
ATOM     18  O   UNL     1      -0.047   9.504  24.118  0.00  0.00    +0.000 OA
ATOM     19  H   UNL     1       0.849   9.802  24.415  0.00  0.00    +0.000 HD
ENDBRANCH  16  18
ENDBRANCH   3  16
BRANCH  11  20
ATOM     20  N   UNL     1       3.089   5.863  17.908  0.00  0.00    +0.000 N 
ATOM     21  H   UNL     1       2.567   5.531  17.083  0.00  0.00    +0.000 HD
BRANCH  20  22
ATOM     22  C   UNL     1       4.474   5.697  17.599  0.00  0.00    +0.000 A 
ATOM     23  C   UNL     1       4.861   5.766  16.253  0.00  0.00    +0.000 A 
ATOM     24  C   UNL     1       6.214   5.754  15.896  0.00  0.00    +0.000 A 
ATOM     25  C   UNL     1       7.198   5.703  16.883  0.00  0.00    +0.000 A 
ATOM     26  C   UNL     1       6.828   5.652  18.226  0.00  0.00    +0.000 A 
ATOM     27 CL   UNL     1       8.051   5.615  19.438  0.00  0.00    +0.000 Cl
ATOM     28  C   UNL     1       5.480   5.654  18.581  0.00  0.00    +0.000 A 
ATOM     29  F   UNL     1       5.137   5.643  19.882  0.00  0.00    +0.000 F 
ENDBRANCH  20  22
ENDBRANCH  11  20
TORSDOF 5
ENDMDL
MODEL 8
REMARK VINA RESULT:      -7.3      4.658      7.059
REMARK  Name = 
REMARK  6 active torsions:
REMARK  status: ('A' for Active; 'I' for Inactive)
REMARK    1  A    between atoms: C_1  and  C_2
REMARK    2  A    between atoms: C_2  and  N_3
REMARK    3  A    between atoms: C_5  and  C_6
REMARK    4  A    between atoms: C_6  and  O_8
REMARK    5  A    between atoms: C_16  and  N_17
REMARK    6  A    between atoms: N_17  and  C_18
REMARK                            x       y       z     vdW  Elec       q    Type
REMARK                         _______ _______ _______ _____ _____    ______ ____
ROOT
ATOM      1  N   UNL     1       0.060  11.643  19.337  0.00  0.00    +0.000 N 
ATOM      2  C   UNL     1      -0.752  12.121  20.362  0.00  0.00    +0.000 A 
ATOM      3  C   UNL     1      -1.002  11.491  21.513  0.00  0.00    +0.000 A 
ATOM      4  C   UNL     1      -0.357  10.177  21.704  0.00  0.00    +0.000 A 
ATOM      5  O   UNL     1      -0.581   9.580  22.757  0.00  0.00    +0.000 OA
ATOM      6  C   UNL     1       0.538   9.637  20.628  0.00  0.00    +0.000 A 
ATOM      7  C   UNL     1       0.701  10.383  19.511  0.00  0.00    +0.000 A 
ATOM      8  C   UNL     1       1.612   9.839  18.433  0.00  0.00    +0.000 C 
ATOM      9  O   UNL     1       1.893  10.443  17.402  0.00  0.00    +0.000 OA
ATOM     10  C   UNL     1       2.232   8.524  18.619  0.00  0.00    +0.000 C 
ATOM     11  C   UNL     1       2.086   7.802  19.728  0.00  0.00    +0.000 C 
ATOM     12  C   UNL     1       1.227   8.335  20.829  0.00  0.00    +0.000 C 
ATOM     13  O   UNL     1       1.135   7.668  21.857  0.00  0.00    +0.000 OA
ENDROOT
BRANCH   1  15
ATOM     14  C   UNL     1       1.121  13.744  18.586  0.00  0.00    +0.000 C 
ATOM     15  C   UNL     1       0.288  12.537  18.175  0.00  0.00    +0.000 C 
ENDBRANCH   1  15
BRANCH   3  16
ATOM     16  C   UNL     1      -1.885  12.143  22.505  0.00  0.00    +0.000 C 
ATOM     17  O   UNL     1      -3.089  12.295  22.335  0.00  0.00    +0.000 OA
BRANCH  16  18
ATOM     18  O   UNL     1      -1.265  12.574  23.623  0.00  0.00    +0.000 OA
ATOM     19  H   UNL     1      -1.852  12.631  24.417  0.00  0.00    +0.000 HD
ENDBRANCH  16  18
ENDBRANCH   3  16
BRANCH  11  20
ATOM     20  N   UNL     1       2.718   6.577  19.965  0.00  0.00    +0.000 N 
ATOM     21  H   UNL     1       2.407   6.243  20.889  0.00  0.00    +0.000 HD
BRANCH  20  22
ATOM     22  C   UNL     1       2.565   5.476  19.068  0.00  0.00    +0.000 A 
ATOM     23  C   UNL     1       3.510   5.326  18.043  0.00  0.00    +0.000 A 
ATOM     24  C   UNL     1       3.502   4.194  17.221  0.00  0.00    +0.000 A 
ATOM     25  C   UNL     1       2.566   3.182  17.434  0.00  0.00    +0.000 A 
ATOM     26  C   UNL     1       1.632   3.308  18.461  0.00  0.00    +0.000 A 
ATOM     27 CL   UNL     1       0.498   2.041  18.732  0.00  0.00    +0.000 Cl
ATOM     28  C   UNL     1       1.635   4.441  19.274  0.00  0.00    +0.000 A 
ATOM     29  F   UNL     1       0.753   4.533  20.285  0.00  0.00    +0.000 F 
ENDBRANCH  20  22
ENDBRANCH  11  20
TORSDOF 5
ENDMDL
MODEL 9
REMARK VINA RESULT:      -7.2      4.525      7.155
REMARK  Name = 
REMARK  6 active torsions:
REMARK  status: ('A' for Active; 'I' for Inactive)
REMARK    1  A    between atoms: C_1  and  C_2
REMARK    2  A    between atoms: C_2  and  N_3
REMARK    3  A    between atoms: C_5  and  C_6
REMARK    4  A    between atoms: C_6  and  O_8
REMARK    5  A    between atoms: C_16  and  N_17
REMARK    6  A    between atoms: N_17  and  C_18
REMARK                            x       y       z     vdW  Elec       q    Type
REMARK                         _______ _______ _______ _____ _____    ______ ____
ROOT
ATOM      1  N   UNL     1      -0.735  11.456  19.687  0.00  0.00    +0.000 N 
ATOM      2  C   UNL     1      -1.272  12.066  20.816  0.00  0.00    +0.000 A 
ATOM      3  C   UNL     1      -1.082  11.671  22.078  0.00  0.00    +0.000 A 
ATOM      4  C   UNL     1      -0.229  10.482  22.279  0.00  0.00    +0.000 A 
ATOM      5  O   UNL     1      -0.049  10.099  23.435  0.00  0.00    +0.000 OA
ATOM      6  C   UNL     1       0.380   9.808  21.086  0.00  0.00    +0.000 A 
ATOM      7  C   UNL     1       0.101  10.317  19.863  0.00  0.00    +0.000 A 
ATOM      8  C   UNL     1       0.727   9.640  18.664  0.00  0.00    +0.000 C 
ATOM      9  O   UNL     1       0.604  10.038  17.509  0.00  0.00    +0.000 OA
ATOM     10  C   UNL     1       1.555   8.448  18.868  0.00  0.00    +0.000 C 
ATOM     11  C   UNL     1       1.844   7.962  20.074  0.00  0.00    +0.000 C 
ATOM     12  C   UNL     1       1.277   8.637  21.280  0.00  0.00    +0.000 C 
ATOM     13  O   UNL     1       1.585   8.193  22.383  0.00  0.00    +0.000 OA
ENDROOT
BRANCH   1  15
ATOM     14  C   UNL     1      -0.361  13.495  18.341  0.00  0.00    +0.000 C 
ATOM     15  C   UNL     1      -0.986  12.107  18.377  0.00  0.00    +0.000 C 
ENDBRANCH   1  15
BRANCH   3  16
ATOM     16  C   UNL     1      -1.721  12.438  23.170  0.00  0.00    +0.000 C 
ATOM     17  O   UNL     1      -1.196  13.406  23.706  0.00  0.00    +0.000 OA
BRANCH  16  18
ATOM     18  O   UNL     1      -2.936  11.988  23.546  0.00  0.00    +0.000 OA
ATOM     19  H   UNL     1      -3.026  11.002  23.535  0.00  0.00    +0.000 HD
ENDBRANCH  16  18
ENDBRANCH   3  16
BRANCH  11  20
ATOM     20  N   UNL     1       2.685   6.869  20.306  0.00  0.00    +0.000 N 
ATOM     21  H   UNL     1       2.484   6.521  21.256  0.00  0.00    +0.000 HD
BRANCH  20  22
ATOM     22  C   UNL     1       2.674   5.727  19.449  0.00  0.00    +0.000 A 
ATOM     23  C   UNL     1       1.582   4.851  19.532  0.00  0.00    +0.000 A 
ATOM     24  C   UNL     1       1.440   3.795  18.626  0.00  0.00    +0.000 A 
ATOM     25  C   UNL     1       2.374   3.619  17.605  0.00  0.00    +0.000 A 
ATOM     26  C   UNL     1       3.454   4.493  17.498  0.00  0.00    +0.000 A 
ATOM     27 CL   UNL     1       4.587   4.283  16.218  0.00  0.00    +0.000 Cl
ATOM     28  C   UNL     1       3.601   5.539  18.408  0.00  0.00    +0.000 A 
ATOM     29  F   UNL     1       4.628   6.398  18.271  0.00  0.00    +0.000 F 
ENDBRANCH  20  22
ENDBRANCH  11  20
TORSDOF 5
ENDMDL
