MODEL 1
REMARK VINA RESULT:      -5.9      0.000      0.000
REMARK  Name = 
REMARK  7 active torsions:
REMARK  status: ('A' for Active; 'I' for Inactive)
REMARK    1  A    between atoms: C_1  and  C_2
REMARK    2  A    between atoms: C_2  and  C_3
REMARK    3  A    between atoms: C_2  and  C_4
REMARK    4  A    between atoms: C_2  and  S_6
REMARK    5  A    between atoms: C_4  and  N_5
REMARK    6  A    between atoms: S_6  and  C_7
REMARK    7  A    between atoms: C_7  and  C_8
REMARK                            x       y       z     vdW  Elec       q    Type
REMARK                         _______ _______ _______ _____ _____    ______ ____
ROOT
ATOM      1  S   UNL     1       5.603   5.219  18.994  0.00  0.00    +0.000 S 
ENDROOT
BRANCH   1   3
ATOM      2  C   UNL     1       7.065   6.950  17.511  0.00  0.00    +0.000 C 
ATOM      3  C   UNL     1       6.210   5.683  17.305  0.00  0.00    +0.000 C 
ATOM      4  C   UNL     1       5.018   6.022  16.395  0.00  0.00    +0.000 C 
BRANCH   3   5
ATOM      5  C   UNL     1       7.114   4.579  16.693  0.00  0.00    +0.000 C 
BRANCH   5   6
ATOM      6  N   UNL     1       8.131   4.095  17.623  0.00  0.00    +0.000 NA
ATOM      7  H   UNL     1       8.984   3.814  17.084  0.00  0.00    +0.000 HD
ATOM      8  H   UNL     1       7.762   3.226  18.069  0.00  0.00    +0.000 HD
ENDBRANCH   5   6
ENDBRANCH   3   5
ENDBRANCH   1   3
BRANCH   1   9
ATOM      9  C   UNL     1       3.878   5.862  19.108  0.00  0.00    +0.000 C 
BRANCH   9  10
ATOM     10  C   UNL     1       2.832   4.786  19.244  0.00  0.00    +0.000 A 
ATOM     11  C   UNL     1       2.607   3.867  18.201  0.00  0.00    +0.000 A 
ATOM     12  C   UNL     1       1.576   2.932  18.299  0.00  0.00    +0.000 A 
ATOM     13  C   UNL     1       0.790   2.876  19.451  0.00  0.00    +0.000 A 
ATOM     14  C   UNL     1       1.034   3.758  20.509  0.00  0.00    +0.000 A 
ATOM     15  C   UNL     1       2.042   4.716  20.402  0.00  0.00    +0.000 A 
ENDBRANCH   9  10
ENDBRANCH   1   9
TORSDOF 5
ENDMDL
MODEL 2
REMARK VINA RESULT:      -5.9      1.132      1.807
REMARK  Name = 
REMARK  7 active torsions:
REMARK  status: ('A' for Active; 'I' for Inactive)
REMARK    1  A    between atoms: C_1  and  C_2
REMARK    2  A    between atoms: C_2  and  C_3
REMARK    3  A    between atoms: C_2  and  C_4
REMARK    4  A    between atoms: C_2  and  S_6
REMARK    5  A    between atoms: C_4  and  N_5
REMARK    6  A    between atoms: S_6  and  C_7
REMARK    7  A    between atoms: C_7  and  C_8
REMARK                            x       y       z     vdW  Elec       q    Type
REMARK                         _______ _______ _______ _____ _____    ______ ____
ROOT
ATOM      1  S   UNL     1       4.376   4.387  16.996  0.00  0.00    +0.000 S 
ENDROOT
BRANCH   1   3
ATOM      2  C   UNL     1       6.100   5.127  18.947  0.00  0.00    +0.000 C 
ATOM      3  C   UNL     1       5.950   5.269  17.419  0.00  0.00    +0.000 C 
ATOM      4  C   UNL     1       5.828   6.759  17.060  0.00  0.00    +0.000 C 
BRANCH   3   5
ATOM      5  C   UNL     1       7.182   4.606  16.744  0.00  0.00    +0.000 C 
BRANCH   5   6
ATOM      6  N   UNL     1       8.173   4.133  17.706  0.00  0.00    +0.000 NA
ATOM      7  H   UNL     1       8.916   4.862  17.821  0.00  0.00    +0.000 HD
ATOM      8  H   UNL     1       8.640   3.296  17.292  0.00  0.00    +0.000 HD
ENDBRANCH   5   6
ENDBRANCH   3   5
ENDBRANCH   1   3
BRANCH   1   9
ATOM      9  C   UNL     1       3.029   5.316  17.847  0.00  0.00    +0.000 C 
BRANCH   9  10
ATOM     10  C   UNL     1       2.363   4.547  18.959  0.00  0.00    +0.000 A 
ATOM     11  C   UNL     1       2.689   4.805  20.305  0.00  0.00    +0.000 A 
ATOM     12  C   UNL     1       2.136   4.028  21.322  0.00  0.00    +0.000 A 
ATOM     13  C   UNL     1       1.223   3.018  21.014  0.00  0.00    +0.000 A 
ATOM     14  C   UNL     1       0.862   2.784  19.683  0.00  0.00    +0.000 A 
ATOM     15  C   UNL     1       1.438   3.536  18.659  0.00  0.00    +0.000 A 
ENDBRANCH   9  10
ENDBRANCH   1   9
TORSDOF 5
ENDMDL
MODEL 3
REMARK VINA RESULT:      -5.8      0.997      1.784
REMARK  Name = 
REMARK  7 active torsions:
REMARK  status: ('A' for Active; 'I' for Inactive)
REMARK    1  A    between atoms: C_1  and  C_2
REMARK    2  A    between atoms: C_2  and  C_3
REMARK    3  A    between atoms: C_2  and  C_4
REMARK    4  A    between atoms: C_2  and  S_6
REMARK    5  A    between atoms: C_4  and  N_5
REMARK    6  A    between atoms: S_6  and  C_7
REMARK    7  A    between atoms: C_7  and  C_8
REMARK                            x       y       z     vdW  Elec       q    Type
REMARK                         _______ _______ _______ _____ _____    ______ ____
ROOT
ATOM      1  S   UNL     1       4.922   5.783  18.317  0.00  0.00    +0.000 S 
ENDROOT
BRANCH   1   3
ATOM      2  C   UNL     1       5.274   6.173  15.661  0.00  0.00    +0.000 C 
ATOM      3  C   UNL     1       5.657   5.141  16.741  0.00  0.00    +0.000 C 
ATOM      4  C   UNL     1       5.032   3.783  16.385  0.00  0.00    +0.000 C 
BRANCH   3   5
ATOM      5  C   UNL     1       7.207   5.068  16.816  0.00  0.00    +0.000 C 
BRANCH   5   6
ATOM      6  N   UNL     1       7.686   4.304  17.965  0.00  0.00    +0.000 NA
ATOM      7  H   UNL     1       6.875   4.075  18.587  0.00  0.00    +0.000 HD
ATOM      8  H   UNL     1       8.316   4.928  18.516  0.00  0.00    +0.000 HD
ENDBRANCH   5   6
ENDBRANCH   3   5
ENDBRANCH   1   3
BRANCH   1   9
ATOM      9  C   UNL     1       3.117   5.980  17.990  0.00  0.00    +0.000 C 
BRANCH   9  10
ATOM     10  C   UNL     1       2.255   4.955  18.680  0.00  0.00    +0.000 A 
ATOM     11  C   UNL     1       1.998   5.045  20.062  0.00  0.00    +0.000 A 
ATOM     12  C   UNL     1       1.275   4.043  20.709  0.00  0.00    +0.000 A 
ATOM     13  C   UNL     1       0.766   2.967  19.981  0.00  0.00    +0.000 A 
ATOM     14  C   UNL     1       0.980   2.891  18.601  0.00  0.00    +0.000 A 
ATOM     15  C   UNL     1       1.731   3.874  17.955  0.00  0.00    +0.000 A 
ENDBRANCH   9  10
ENDBRANCH   1   9
TORSDOF 5
ENDMDL
MODEL 4
REMARK VINA RESULT:      -5.8      1.083      1.281
REMARK  Name = 
REMARK  7 active torsions:
REMARK  status: ('A' for Active; 'I' for Inactive)
REMARK    1  A    between atoms: C_1  and  C_2
REMARK    2  A    between atoms: C_2  and  C_3
REMARK    3  A    between atoms: C_2  and  C_4
REMARK    4  A    between atoms: C_2  and  S_6
REMARK    5  A    between atoms: C_4  and  N_5
REMARK    6  A    between atoms: S_6  and  C_7
REMARK    7  A    between atoms: C_7  and  C_8
REMARK                            x       y       z     vdW  Elec       q    Type
REMARK                         _______ _______ _______ _____ _____    ______ ____
ROOT
ATOM      1  S   UNL     1       4.475   4.776  16.787  0.00  0.00    +0.000 S 
ENDROOT
BRANCH   1   3
ATOM      2  C   UNL     1       6.076   5.107  18.945  0.00  0.00    +0.000 C 
ATOM      3  C   UNL     1       6.101   5.392  17.429  0.00  0.00    +0.000 C 
ATOM      4  C   UNL     1       6.213   6.909  17.203  0.00  0.00    +0.000 C 
BRANCH   3   5
ATOM      5  C   UNL     1       7.297   4.621  16.808  0.00  0.00    +0.000 C 
BRANCH   5   6
ATOM      6  N   UNL     1       8.234   4.119  17.809  0.00  0.00    +0.000 NA
ATOM      7  H   UNL     1       9.199   4.451  17.573  0.00  0.00    +0.000 HD
ATOM      8  H   UNL     1       8.251   3.078  17.730  0.00  0.00    +0.000 HD
ENDBRANCH   5   6
ENDBRANCH   3   5
ENDBRANCH   1   3
BRANCH   1   9
ATOM      9  C   UNL     1       3.180   5.620  17.792  0.00  0.00    +0.000 C 
BRANCH   9  10
ATOM     10  C   UNL     1       2.350   4.683  18.633  0.00  0.00    +0.000 A 
ATOM     11  C   UNL     1       1.787   3.521  18.070  0.00  0.00    +0.000 A 
ATOM     12  C   UNL     1       0.948   2.708  18.831  0.00  0.00    +0.000 A 
ATOM     13  C   UNL     1       0.696   3.020  20.168  0.00  0.00    +0.000 A 
ATOM     14  C   UNL     1       1.284   4.149  20.746  0.00  0.00    +0.000 A 
ATOM     15  C   UNL     1       2.099   4.984  19.979  0.00  0.00    +0.000 A 
ENDBRANCH   9  10
ENDBRANCH   1   9
TORSDOF 5
ENDMDL
MODEL 5
REMARK VINA RESULT:      -5.8      1.374      1.820
REMARK  Name = 
REMARK  7 active torsions:
REMARK  status: ('A' for Active; 'I' for Inactive)
REMARK    1  A    between atoms: C_1  and  C_2
REMARK    2  A    between atoms: C_2  and  C_3
REMARK    3  A    between atoms: C_2  and  C_4
REMARK    4  A    between atoms: C_2  and  S_6
REMARK    5  A    between atoms: C_4  and  N_5
REMARK    6  A    between atoms: S_6  and  C_7
REMARK    7  A    between atoms: C_7  and  C_8
REMARK                            x       y       z     vdW  Elec       q    Type
REMARK                         _______ _______ _______ _____ _____    ______ ____
ROOT
ATOM      1  S   UNL     1       4.306   5.156  17.256  0.00  0.00    +0.000 S 
ENDROOT
BRANCH   1   3
ATOM      2  C   UNL     1       6.264   5.338  19.118  0.00  0.00    +0.000 C 
ATOM      3  C   UNL     1       6.084   5.552  17.601  0.00  0.00    +0.000 C 
ATOM      4  C   UNL     1       6.368   7.025  17.263  0.00  0.00    +0.000 C 
BRANCH   3   5
ATOM      5  C   UNL     1       7.046   4.587  16.855  0.00  0.00    +0.000 C 
BRANCH   5   6
ATOM      6  N   UNL     1       8.140   4.111  17.696  0.00  0.00    +0.000 NA
ATOM      7  H   UNL     1       8.943   4.780  17.627  0.00  0.00    +0.000 HD
ATOM      8  H   UNL     1       8.473   3.206  17.296  0.00  0.00    +0.000 HD
ENDBRANCH   5   6
ENDBRANCH   3   5
ENDBRANCH   1   3
BRANCH   1   9
ATOM      9  C   UNL     1       4.053   3.421  17.828  0.00  0.00    +0.000 C 
BRANCH   9  10
ATOM     10  C   UNL     1       3.090   3.292  18.981  0.00  0.00    +0.000 A 
ATOM     11  C   UNL     1       1.761   3.742  18.860  0.00  0.00    +0.000 A 
ATOM     12  C   UNL     1       0.903   3.702  19.959  0.00  0.00    +0.000 A 
ATOM     13  C   UNL     1       1.346   3.174  21.173  0.00  0.00    +0.000 A 
ATOM     14  C   UNL     1       2.652   2.686  21.289  0.00  0.00    +0.000 A 
ATOM     15  C   UNL     1       3.524   2.755  20.202  0.00  0.00    +0.000 A 
ENDBRANCH   9  10
ENDBRANCH   1   9
TORSDOF 5
ENDMDL
MODEL 6
REMARK VINA RESULT:      -5.7      1.220      2.025
REMARK  Name = 
REMARK  7 active torsions:
REMARK  status: ('A' for Active; 'I' for Inactive)
REMARK    1  A    between atoms: C_1  and  C_2
REMARK    2  A    between atoms: C_2  and  C_3
REMARK    3  A    between atoms: C_2  and  C_4
REMARK    4  A    between atoms: C_2  and  S_6
REMARK    5  A    between atoms: C_4  and  N_5
REMARK    6  A    between atoms: S_6  and  C_7
REMARK    7  A    between atoms: C_7  and  C_8
REMARK                            x       y       z     vdW  Elec       q    Type
REMARK                         _______ _______ _______ _____ _____    ______ ____
ROOT
ATOM      1  S   UNL     1       4.685   6.218  17.393  0.00  0.00    +0.000 S 
ENDROOT
BRANCH   1   3
ATOM      2  C   UNL     1       6.626   5.459  19.121  0.00  0.00    +0.000 C 
ATOM      3  C   UNL     1       6.497   5.932  17.658  0.00  0.00    +0.000 C 
ATOM      4  C   UNL     1       7.267   7.252  17.486  0.00  0.00    +0.000 C 
BRANCH   3   5
ATOM      5  C   UNL     1       7.046   4.812  16.733  0.00  0.00    +0.000 C 
BRANCH   5   6
ATOM      6  N   UNL     1       7.371   5.289  15.392  0.00  0.00    +0.000 NA
ATOM      7  H   UNL     1       6.690   6.037  15.119  0.00  0.00    +0.000 HD
ATOM      8  H   UNL     1       7.220   4.495  14.731  0.00  0.00    +0.000 HD
ENDBRANCH   5   6
ENDBRANCH   3   5
ENDBRANCH   1   3
BRANCH   1   9
ATOM      9  C   UNL     1       3.918   4.544  17.285  0.00  0.00    +0.000 C 
BRANCH   9  10
ATOM     10  C   UNL     1       2.839   4.299  18.308  0.00  0.00    +0.000 A 
ATOM     11  C   UNL     1       2.743   5.105  19.459  0.00  0.00    +0.000 A 
ATOM     12  C   UNL     1       1.800   4.815  20.444  0.00  0.00    +0.000 A 
ATOM     13  C   UNL     1       0.916   3.747  20.273  0.00  0.00    +0.000 A 
ATOM     14  C   UNL     1       0.977   2.967  19.114  0.00  0.00    +0.000 A 
ATOM     15  C   UNL     1       1.941   3.234  18.141  0.00  0.00    +0.000 A 
ENDBRANCH   9  10
ENDBRANCH   1   9
TORSDOF 5
ENDMDL
MODEL 7
REMARK VINA RESULT:      -5.7      1.093      1.976
REMARK  Name = 
REMARK  7 active torsions:
REMARK  status: ('A' for Active; 'I' for Inactive)
REMARK    1  A    between atoms: C_1  and  C_2
REMARK    2  A    between atoms: C_2  and  C_3
REMARK    3  A    between atoms: C_2  and  C_4
REMARK    4  A    between atoms: C_2  and  S_6
REMARK    5  A    between atoms: C_4  and  N_5
REMARK    6  A    between atoms: S_6  and  C_7
REMARK    7  A    between atoms: C_7  and  C_8
REMARK                            x       y       z     vdW  Elec       q    Type
REMARK                         _______ _______ _______ _____ _____    ______ ____
ROOT
ATOM      1  S   UNL     1       5.582   4.425  18.887  0.00  0.00    +0.000 S 
ENDROOT
BRANCH   1   3
ATOM      2  C   UNL     1       5.968   6.617  17.346  0.00  0.00    +0.000 C 
ATOM      3  C   UNL     1       6.795   5.460  17.943  0.00  0.00    +0.000 C 
ATOM      4  C   UNL     1       7.409   4.636  16.799  0.00  0.00    +0.000 C 
BRANCH   3   5
ATOM      5  C   UNL     1       7.882   6.067  18.872  0.00  0.00    +0.000 C 
BRANCH   5   6
ATOM      6  N   UNL     1       7.865   5.498  20.216  0.00  0.00    +0.000 NA
ATOM      7  H   UNL     1       7.142   4.741  20.259  0.00  0.00    +0.000 HD
ATOM      8  H   UNL     1       7.550   6.247  20.871  0.00  0.00    +0.000 HD
ENDBRANCH   5   6
ENDBRANCH   3   5
ENDBRANCH   1   3
BRANCH   1   9
ATOM      9  C   UNL     1       4.010   5.388  18.919  0.00  0.00    +0.000 C 
BRANCH   9  10
ATOM     10  C   UNL     1       2.787   4.555  19.206  0.00  0.00    +0.000 A 
ATOM     11  C   UNL     1       2.215   4.538  20.493  0.00  0.00    +0.000 A 
ATOM     12  C   UNL     1       1.140   3.695  20.772  0.00  0.00    +0.000 A 
ATOM     13  C   UNL     1       0.598   2.895  19.765  0.00  0.00    +0.000 A 
ATOM     14  C   UNL     1       1.133   2.937  18.474  0.00  0.00    +0.000 A 
ATOM     15  C   UNL     1       2.230   3.754  18.197  0.00  0.00    +0.000 A 
ENDBRANCH   9  10
ENDBRANCH   1   9
TORSDOF 5
ENDMDL
MODEL 8
REMARK VINA RESULT:      -5.7      1.199      1.579
REMARK  Name = 
REMARK  7 active torsions:
REMARK  status: ('A' for Active; 'I' for Inactive)
REMARK    1  A    between atoms: C_1  and  C_2
REMARK    2  A    between atoms: C_2  and  C_3
REMARK    3  A    between atoms: C_2  and  C_4
REMARK    4  A    between atoms: C_2  and  S_6
REMARK    5  A    between atoms: C_4  and  N_5
REMARK    6  A    between atoms: S_6  and  C_7
REMARK    7  A    between atoms: C_7  and  C_8
REMARK                            x       y       z     vdW  Elec       q    Type
REMARK                         _______ _______ _______ _____ _____    ______ ____
ROOT
ATOM      1  S   UNL     1       5.494   4.787  19.072  0.00  0.00    +0.000 S 
ENDROOT
BRANCH   1   3
ATOM      2  C   UNL     1       6.094   6.735  17.289  0.00  0.00    +0.000 C 
ATOM      3  C   UNL     1       6.810   5.601  18.051  0.00  0.00    +0.000 C 
ATOM      4  C   UNL     1       7.382   4.596  17.038  0.00  0.00    +0.000 C 
BRANCH   3   5
ATOM      5  C   UNL     1       7.919   6.232  18.936  0.00  0.00    +0.000 C 
BRANCH   5   6
ATOM      6  N   UNL     1       8.107   5.529  20.202  0.00  0.00    +0.000 NA
ATOM      7  H   UNL     1       7.170   5.266  20.591  0.00  0.00    +0.000 HD
ATOM      8  H   UNL     1       8.529   6.204  20.877  0.00  0.00    +0.000 HD
ENDBRANCH   5   6
ENDBRANCH   3   5
ENDBRANCH   1   3
BRANCH   1   9
ATOM      9  C   UNL     1       3.959   4.832  18.051  0.00  0.00    +0.000 C 
BRANCH   9  10
ATOM     10  C   UNL     1       2.768   4.181  18.706  0.00  0.00    +0.000 A 
ATOM     11  C   UNL     1       2.135   3.074  18.108  0.00  0.00    +0.000 A 
ATOM     12  C   UNL     1       0.980   2.535  18.674  0.00  0.00    +0.000 A 
ATOM     13  C   UNL     1       0.471   3.064  19.862  0.00  0.00    +0.000 A 
ATOM     14  C   UNL     1       1.118   4.136  20.485  0.00  0.00    +0.000 A 
ATOM     15  C   UNL     1       2.254   4.700  19.904  0.00  0.00    +0.000 A 
ENDBRANCH   9  10
ENDBRANCH   1   9
TORSDOF 5
ENDMDL
MODEL 9
REMARK VINA RESULT:      -5.7      1.232      1.708
REMARK  Name = 
REMARK  7 active torsions:
REMARK  status: ('A' for Active; 'I' for Inactive)
REMARK    1  A    between atoms: C_1  and  C_2
REMARK    2  A    between atoms: C_2  and  C_3
REMARK    3  A    between atoms: C_2  and  C_4
REMARK    4  A    between atoms: C_2  and  S_6
REMARK    5  A    between atoms: C_4  and  N_5
REMARK    6  A    between atoms: S_6  and  C_7
REMARK    7  A    between atoms: C_7  and  C_8
REMARK                            x       y       z     vdW  Elec       q    Type
REMARK                         _______ _______ _______ _____ _____    ______ ____
ROOT
ATOM      1  S   UNL     1       4.642   6.118  17.276  0.00  0.00    +0.000 S 
ENDROOT
BRANCH   1   3
ATOM      2  C   UNL     1       6.531   5.381  19.070  0.00  0.00    +0.000 C 
ATOM      3  C   UNL     1       6.448   5.862  17.607  0.00  0.00    +0.000 C 
ATOM      4  C   UNL     1       7.199   7.197  17.472  0.00  0.00    +0.000 C 
BRANCH   3   5
ATOM      5  C   UNL     1       7.052   4.759  16.696  0.00  0.00    +0.000 C 
BRANCH   5   6
ATOM      6  N   UNL     1       7.424   5.253  15.374  0.00  0.00    +0.000 NA
ATOM      7  H   UNL     1       6.560   5.551  14.862  0.00  0.00    +0.000 HD
ATOM      8  H   UNL     1       7.823   4.450  14.839  0.00  0.00    +0.000 HD
ENDBRANCH   5   6
ENDBRANCH   3   5
ENDBRANCH   1   3
BRANCH   1   9
ATOM      9  C   UNL     1       3.916   4.432  17.098  0.00  0.00    +0.000 C 
BRANCH   9  10
ATOM     10  C   UNL     1       2.885   4.096  18.146  0.00  0.00    +0.000 A 
ATOM     11  C   UNL     1       2.049   2.973  17.995  0.00  0.00    +0.000 A 
ATOM     12  C   UNL     1       1.038   2.721  18.923  0.00  0.00    +0.000 A 
ATOM     13  C   UNL     1       0.880   3.558  20.029  0.00  0.00    +0.000 A 
ATOM     14  C   UNL     1       1.734   4.651  20.208  0.00  0.00    +0.000 A 
ATOM     15  C   UNL     1       2.725   4.927  19.265  0.00  0.00    +0.000 A 
ENDBRANCH   9  10
ENDBRANCH   1   9
TORSDOF 5
ENDMDL
