MODEL 1
REMARK VINA RESULT:      -8.1      0.000      0.000
REMARK  Name = 
REMARK  6 active torsions:
REMARK  status: ('A' for Active; 'I' for Inactive)
REMARK    1  A    between atoms: C_1  and  C_2
REMARK    2  A    between atoms: C_5  and  C_6
REMARK    3  A    between atoms: C_7  and  C_8
REMARK    4  A    between atoms: C_8  and  C_9
REMARK    5  A    between atoms: C_8  and  N_10
REMARK    6  A    between atoms: C_16  and  N_17
REMARK                            x       y       z     vdW  Elec       q    Type
REMARK                         _______ _______ _______ _____ _____    ______ ____
ROOT
ATOM      1  N   UNL     1       3.104   6.324  19.322  0.00  0.00    +0.000 N 
ATOM      2  C   UNL     1       4.025   5.307  19.285  0.00  0.00    +0.000 C 
ATOM      3  O   UNL     1       4.117   4.472  20.179  0.00  0.00    +0.000 OA
ATOM      4  N   UNL     1       4.840   5.307  18.163  0.00  0.00    +0.000 N 
ATOM      5  C   UNL     1       5.643   4.121  17.877  0.00  0.00    +0.000 C 
ATOM      6  C   UNL     1       7.095   4.490  17.595  0.00  0.00    +0.000 C 
ATOM      7  C   UNL     1       7.218   5.564  16.510  0.00  0.00    +0.000 C 
ATOM      8  C   UNL     1       6.309   6.762  16.817  0.00  0.00    +0.000 C 
ATOM      9  C   UNL     1       4.875   6.359  17.147  0.00  0.00    +0.000 C 
ATOM     10  H   UNL     1       2.729   6.551  18.417  0.00  0.00    +0.000 HD
ENDROOT
BRANCH   7  11
ATOM     11  N   UNL     1       7.035   5.021  15.170  0.00  0.00    +0.000 N 
ATOM     12  C   UNL     1       6.218   3.993  14.805  0.00  0.00    +0.000 A 
ATOM     13  N   UNL     1       6.342   3.770  13.516  0.00  0.00    +0.000 NA
ATOM     14  C   UNL     1       7.263   4.702  13.129  0.00  0.00    +0.000 A 
ATOM     15  N   UNL     1       7.710   5.494  14.108  0.00  0.00    +0.000 NA
ENDBRANCH   7  11
BRANCH   1  16
ATOM     16  C   UNL     1       2.160   6.449  20.425  0.00  0.00    +0.000 C 
ATOM     17  C   UNL     1       1.113   5.333  20.352  0.00  0.00    +0.000 C 
BRANCH  16  24
ATOM     18  C   UNL     1      -0.322  10.050  22.999  0.00  0.00    +0.000 C 
ATOM     19  C   UNL     1       0.308   9.579  21.721  0.00  0.00    +0.000 A 
ATOM     20  C   UNL     1       0.317  10.393  20.591  0.00  0.00    +0.000 A 
ATOM     21  C   UNL     1       0.893   9.939  19.405  0.00  0.00    +0.000 A 
ATOM     22  C   UNL     1       1.464   8.658  19.319  0.00  0.00    +0.000 A 
ATOM     23  C   UNL     1       2.076   8.250  18.004  0.00  0.00    +0.000 C 
ATOM     24  C   UNL     1       1.480   7.819  20.458  0.00  0.00    +0.000 A 
ATOM     25  C   UNL     1       0.897   8.308  21.649  0.00  0.00    +0.000 A 
ENDBRANCH  16  24
ENDBRANCH   1  16
TORSDOF 3
ENDMDL
MODEL 2
REMARK VINA RESULT:      -8.1      3.559      5.158
REMARK  Name = 
REMARK  6 active torsions:
REMARK  status: ('A' for Active; 'I' for Inactive)
REMARK    1  A    between atoms: C_1  and  C_2
REMARK    2  A    between atoms: C_5  and  C_6
REMARK    3  A    between atoms: C_7  and  C_8
REMARK    4  A    between atoms: C_8  and  C_9
REMARK    5  A    between atoms: C_8  and  N_10
REMARK    6  A    between atoms: C_16  and  N_17
REMARK                            x       y       z     vdW  Elec       q    Type
REMARK                         _______ _______ _______ _____ _____    ______ ____
ROOT
ATOM      1  N   UNL     1       1.056   8.683  20.942  0.00  0.00    +0.000 N 
ATOM      2  C   UNL     1       1.752   8.280  19.830  0.00  0.00    +0.000 C 
ATOM      3  O   UNL     1       2.082   9.060  18.943  0.00  0.00    +0.000 OA
ATOM      4  N   UNL     1       2.043   6.924  19.792  0.00  0.00    +0.000 N 
ATOM      5  C   UNL     1       3.019   6.442  18.818  0.00  0.00    +0.000 C 
ATOM      6  C   UNL     1       2.483   5.242  18.044  0.00  0.00    +0.000 C 
ATOM      7  C   UNL     1       1.976   4.135  18.973  0.00  0.00    +0.000 C 
ATOM      8  C   UNL     1       1.005   4.697  20.020  0.00  0.00    +0.000 C 
ATOM      9  C   UNL     1       1.546   5.928  20.741  0.00  0.00    +0.000 C 
ATOM     10  H   UNL     1       1.328   8.194  21.777  0.00  0.00    +0.000 HD
ENDROOT
BRANCH   7  11
ATOM     11  N   UNL     1       3.063   3.353  19.548  0.00  0.00    +0.000 N 
ATOM     12  C   UNL     1       4.283   3.111  18.991  0.00  0.00    +0.000 A 
ATOM     13  N   UNL     1       4.987   2.342  19.792  0.00  0.00    +0.000 NA
ATOM     14  C   UNL     1       4.139   2.135  20.843  0.00  0.00    +0.000 A 
ATOM     15  N   UNL     1       2.953   2.740  20.739  0.00  0.00    +0.000 NA
ENDBRANCH   7  11
BRANCH   1  16
ATOM     16  C   UNL     1       0.694  10.081  21.141  0.00  0.00    +0.000 C 
ATOM     17  C   UNL     1      -0.107  10.239  22.437  0.00  0.00    +0.000 C 
BRANCH  16  24
ATOM     18  C   UNL     1      -3.035   9.651  17.726  0.00  0.00    +0.000 C 
ATOM     19  C   UNL     1      -1.919  10.457  18.324  0.00  0.00    +0.000 A 
ATOM     20  C   UNL     1      -1.623  11.730  17.841  0.00  0.00    +0.000 A 
ATOM     21  C   UNL     1      -0.576  12.463  18.396  0.00  0.00    +0.000 A 
ATOM     22  C   UNL     1       0.206  11.939  19.438  0.00  0.00    +0.000 A 
ATOM     23  C   UNL     1       1.311  12.803  19.989  0.00  0.00    +0.000 C 
ATOM     24  C   UNL     1      -0.085  10.655  19.956  0.00  0.00    +0.000 A 
ATOM     25  C   UNL     1      -1.157   9.936  19.381  0.00  0.00    +0.000 A 
ENDBRANCH  16  24
ENDBRANCH   1  16
TORSDOF 3
ENDMDL
MODEL 3
REMARK VINA RESULT:      -7.9      2.599      7.975
REMARK  Name = 
REMARK  6 active torsions:
REMARK  status: ('A' for Active; 'I' for Inactive)
REMARK    1  A    between atoms: C_1  and  C_2
REMARK    2  A    between atoms: C_5  and  C_6
REMARK    3  A    between atoms: C_7  and  C_8
REMARK    4  A    between atoms: C_8  and  C_9
REMARK    5  A    between atoms: C_8  and  N_10
REMARK    6  A    between atoms: C_16  and  N_17
REMARK                            x       y       z     vdW  Elec       q    Type
REMARK                         _______ _______ _______ _____ _____    ______ ____
ROOT
ATOM      1  N   UNL     1       3.149   6.079  18.276  0.00  0.00    +0.000 N 
ATOM      2  C   UNL     1       2.406   6.458  19.366  0.00  0.00    +0.000 C 
ATOM      3  O   UNL     1       2.088   5.671  20.251  0.00  0.00    +0.000 OA
ATOM      4  N   UNL     1       2.045   7.797  19.379  0.00  0.00    +0.000 N 
ATOM      5  C   UNL     1       1.516   8.370  20.614  0.00  0.00    +0.000 C 
ATOM      6  C   UNL     1       0.228   9.145  20.359  0.00  0.00    +0.000 C 
ATOM      7  C   UNL     1       0.390  10.185  19.245  0.00  0.00    +0.000 C 
ATOM      8  C   UNL     1       1.008   9.554  17.990  0.00  0.00    +0.000 C 
ATOM      9  C   UNL     1       2.266   8.741  18.283  0.00  0.00    +0.000 C 
ATOM     10  H   UNL     1       3.794   6.786  17.971  0.00  0.00    +0.000 HD
ENDROOT
BRANCH   7  11
ATOM     11  N   UNL     1       1.088  11.380  19.701  0.00  0.00    +0.000 N 
ATOM     12  C   UNL     1       1.090  11.899  20.960  0.00  0.00    +0.000 A 
ATOM     13  N   UNL     1       1.808  13.000  20.981  0.00  0.00    +0.000 NA
ATOM     14  C   UNL     1       2.231  13.116  19.687  0.00  0.00    +0.000 A 
ATOM     15  N   UNL     1       1.819  12.143  18.870  0.00  0.00    +0.000 NA
ENDBRANCH   7  11
BRANCH   1  16
ATOM     16  C   UNL     1       3.625   4.709  18.126  0.00  0.00    +0.000 C 
ATOM     17  C   UNL     1       3.845   4.074  19.502  0.00  0.00    +0.000 C 
BRANCH  16  24
ATOM     18  C   UNL     1       5.895   3.807  13.678  0.00  0.00    +0.000 C 
ATOM     19  C   UNL     1       5.995   4.221  15.117  0.00  0.00    +0.000 A 
ATOM     20  C   UNL     1       7.223   4.569  15.674  0.00  0.00    +0.000 A 
ATOM     21  C   UNL     1       7.305   4.939  17.015  0.00  0.00    +0.000 A 
ATOM     22  C   UNL     1       6.163   4.960  17.834  0.00  0.00    +0.000 A 
ATOM     23  C   UNL     1       6.337   5.383  19.269  0.00  0.00    +0.000 C 
ATOM     24  C   UNL     1       4.902   4.625  17.287  0.00  0.00    +0.000 A 
ATOM     25  C   UNL     1       4.846   4.262  15.922  0.00  0.00    +0.000 A 
ENDBRANCH  16  24
ENDBRANCH   1  16
TORSDOF 3
ENDMDL
MODEL 4
REMARK VINA RESULT:      -7.7      6.688      8.637
REMARK  Name = 
REMARK  6 active torsions:
REMARK  status: ('A' for Active; 'I' for Inactive)
REMARK    1  A    between atoms: C_1  and  C_2
REMARK    2  A    between atoms: C_5  and  C_6
REMARK    3  A    between atoms: C_7  and  C_8
REMARK    4  A    between atoms: C_8  and  C_9
REMARK    5  A    between atoms: C_8  and  N_10
REMARK    6  A    between atoms: C_16  and  N_17
REMARK                            x       y       z     vdW  Elec       q    Type
REMARK                         _______ _______ _______ _____ _____    ______ ____
ROOT
ATOM      1  N   UNL     1       1.210  11.934  19.434  0.00  0.00    +0.000 N 
ATOM      2  C   UNL     1       1.781  12.833  20.299  0.00  0.00    +0.000 C 
ATOM      3  O   UNL     1       1.456  12.908  21.479  0.00  0.00    +0.000 OA
ATOM      4  N   UNL     1       2.746  13.650  19.727  0.00  0.00    +0.000 N 
ATOM      5  C   UNL     1       3.617  14.429  20.604  0.00  0.00    +0.000 C 
ATOM      6  C   UNL     1       3.679  15.889  20.169  0.00  0.00    +0.000 C 
ATOM      7  C   UNL     1       4.045  16.035  18.688  0.00  0.00    +0.000 C 
ATOM      8  C   UNL     1       3.149  15.151  17.810  0.00  0.00    +0.000 C 
ATOM      9  C   UNL     1       3.064  13.708  18.300  0.00  0.00    +0.000 C 
ATOM     10  H   UNL     1       1.859  11.565  18.761  0.00  0.00    +0.000 HD
ENDROOT
BRANCH   7  11
ATOM     11  N   UNL     1       5.469  15.842  18.448  0.00  0.00    +0.000 N 
ATOM     12  C   UNL     1       6.483  16.678  18.809  0.00  0.00    +0.000 A 
ATOM     13  N   UNL     1       7.628  16.183  18.396  0.00  0.00    +0.000 NA
ATOM     14  C   UNL     1       7.257  15.024  17.776  0.00  0.00    +0.000 A 
ATOM     15  N   UNL     1       5.946  14.772  17.789  0.00  0.00    +0.000 NA
ENDBRANCH   7  11
BRANCH   1  16
ATOM     16  C   UNL     1       0.195  10.991  19.886  0.00  0.00    +0.000 C 
ATOM     17  C   UNL     1       0.722   9.557  19.779  0.00  0.00    +0.000 C 
BRANCH  16  24
ATOM     18  C   UNL     1      -2.712   9.790  15.904  0.00  0.00    +0.000 C 
ATOM     19  C   UNL     1      -2.540  10.523  17.202  0.00  0.00    +0.000 A 
ATOM     20  C   UNL     1      -3.577  11.291  17.728  0.00  0.00    +0.000 A 
ATOM     21  C   UNL     1      -3.401  11.978  18.927  0.00  0.00    +0.000 A 
ATOM     22  C   UNL     1      -2.182  11.923  19.624  0.00  0.00    +0.000 A 
ATOM     23  C   UNL     1      -2.080  12.686  20.920  0.00  0.00    +0.000 C 
ATOM     24  C   UNL     1      -1.120  11.137  19.118  0.00  0.00    +0.000 A 
ATOM     25  C   UNL     1      -1.328  10.444  17.905  0.00  0.00    +0.000 A 
ENDBRANCH  16  24
ENDBRANCH   1  16
TORSDOF 3
ENDMDL
MODEL 5
REMARK VINA RESULT:      -7.7      6.717     11.122
REMARK  Name = 
REMARK  6 active torsions:
REMARK  status: ('A' for Active; 'I' for Inactive)
REMARK    1  A    between atoms: C_1  and  C_2
REMARK    2  A    between atoms: C_5  and  C_6
REMARK    3  A    between atoms: C_7  and  C_8
REMARK    4  A    between atoms: C_8  and  C_9
REMARK    5  A    between atoms: C_8  and  N_10
REMARK    6  A    between atoms: C_16  and  N_17
REMARK                            x       y       z     vdW  Elec       q    Type
REMARK                         _______ _______ _______ _____ _____    ______ ____
ROOT
ATOM      1  N   UNL     1      -1.272  11.799  19.840  0.00  0.00    +0.000 N 
ATOM      2  C   UNL     1      -2.328  12.223  20.606  0.00  0.00    +0.000 C 
ATOM      3  O   UNL     1      -2.209  12.499  21.796  0.00  0.00    +0.000 OA
ATOM      4  N   UNL     1      -3.535  12.309  19.928  0.00  0.00    +0.000 N 
ATOM      5  C   UNL     1      -4.646  13.020  20.556  0.00  0.00    +0.000 C 
ATOM      6  C   UNL     1      -5.926  12.192  20.518  0.00  0.00    +0.000 C 
ATOM      7  C   UNL     1      -6.258  11.706  19.103  0.00  0.00    +0.000 C 
ATOM      8  C   UNL     1      -5.044  11.023  18.458  0.00  0.00    +0.000 C 
ATOM      9  C   UNL     1      -3.766  11.851  18.557  0.00  0.00    +0.000 C 
ATOM     10  H   UNL     1      -1.305  12.142  18.896  0.00  0.00    +0.000 HD
ENDROOT
BRANCH   7  11
ATOM     11  N   UNL     1      -6.843  12.756  18.280  0.00  0.00    +0.000 N 
ATOM     12  C   UNL     1      -6.651  12.955  16.946  0.00  0.00    +0.000 A 
ATOM     13  N   UNL     1      -7.321  14.018  16.559  0.00  0.00    +0.000 NA
ATOM     14  C   UNL     1      -7.916  14.443  17.713  0.00  0.00    +0.000 A 
ATOM     15  N   UNL     1      -7.656  13.696  18.790  0.00  0.00    +0.000 NA
ENDBRANCH   7  11
BRANCH   1  16
ATOM     16  C   UNL     1       0.068  11.679  20.401  0.00  0.00    +0.000 C 
ATOM     17  C   UNL     1       1.014  12.676  19.725  0.00  0.00    +0.000 C 
BRANCH  16  24
ATOM     18  C   UNL     1       2.587   8.147  17.768  0.00  0.00    +0.000 C 
ATOM     19  C   UNL     1       1.874   8.557  19.023  0.00  0.00    +0.000 A 
ATOM     20  C   UNL     1       1.755   7.674  20.094  0.00  0.00    +0.000 A 
ATOM     21  C   UNL     1       1.079   8.062  21.249  0.00  0.00    +0.000 A 
ATOM     22  C   UNL     1       0.498   9.336  21.359  0.00  0.00    +0.000 A 
ATOM     23  C   UNL     1      -0.204   9.679  22.647  0.00  0.00    +0.000 C 
ATOM     24  C   UNL     1       0.620  10.256  20.290  0.00  0.00    +0.000 A 
ATOM     25  C   UNL     1       1.317   9.840  19.134  0.00  0.00    +0.000 A 
ENDBRANCH  16  24
ENDBRANCH   1  16
TORSDOF 3
ENDMDL
MODEL 6
REMARK VINA RESULT:      -7.7      2.758      7.763
REMARK  Name = 
REMARK  6 active torsions:
REMARK  status: ('A' for Active; 'I' for Inactive)
REMARK    1  A    between atoms: C_1  and  C_2
REMARK    2  A    between atoms: C_5  and  C_6
REMARK    3  A    between atoms: C_7  and  C_8
REMARK    4  A    between atoms: C_8  and  C_9
REMARK    5  A    between atoms: C_8  and  N_10
REMARK    6  A    between atoms: C_16  and  N_17
REMARK                            x       y       z     vdW  Elec       q    Type
REMARK                         _______ _______ _______ _____ _____    ______ ____
ROOT
ATOM      1  N   UNL     1       2.933   6.393  17.835  0.00  0.00    +0.000 N 
ATOM      2  C   UNL     1       2.443   6.722  19.074  0.00  0.00    +0.000 C 
ATOM      3  O   UNL     1       2.383   5.911  19.993  0.00  0.00    +0.000 OA
ATOM      4  N   UNL     1       2.020   8.037  19.196  0.00  0.00    +0.000 N 
ATOM      5  C   UNL     1       1.760   8.570  20.531  0.00  0.00    +0.000 C 
ATOM      6  C   UNL     1       0.406   9.269  20.595  0.00  0.00    +0.000 C 
ATOM      7  C   UNL     1       0.248  10.323  19.494  0.00  0.00    +0.000 C 
ATOM      8  C   UNL     1       0.593   9.738  18.118  0.00  0.00    +0.000 C 
ATOM      9  C   UNL     1       1.929   8.999  18.098  0.00  0.00    +0.000 C 
ATOM     10  H   UNL     1       3.450   7.139  17.403  0.00  0.00    +0.000 HD
ENDROOT
BRANCH   7  11
ATOM     11  N   UNL     1       0.964  11.555  19.800  0.00  0.00    +0.000 N 
ATOM     12  C   UNL     1       1.619  12.364  18.920  0.00  0.00    +0.000 A 
ATOM     13  N   UNL     1       2.168  13.366  19.569  0.00  0.00    +0.000 NA
ATOM     14  C   UNL     1       1.816  13.122  20.867  0.00  0.00    +0.000 A 
ATOM     15  N   UNL     1       1.074  12.027  21.054  0.00  0.00    +0.000 NA
ENDBRANCH   7  11
BRANCH   1  16
ATOM     16  C   UNL     1       3.438   5.055  17.553  0.00  0.00    +0.000 C 
ATOM     17  C   UNL     1       2.877   4.055  18.568  0.00  0.00    +0.000 C 
BRANCH  16  24
ATOM     18  C   UNL     1       7.870   5.606  19.964  0.00  0.00    +0.000 C 
ATOM     19  C   UNL     1       7.114   5.235  18.721  0.00  0.00    +0.000 A 
ATOM     20  C   UNL     1       7.787   4.802  17.581  0.00  0.00    +0.000 A 
ATOM     21  C   UNL     1       7.075   4.474  16.430  0.00  0.00    +0.000 A 
ATOM     22  C   UNL     1       5.675   4.579  16.386  0.00  0.00    +0.000 A 
ATOM     23  C   UNL     1       4.981   4.192  15.105  0.00  0.00    +0.000 C 
ATOM     24  C   UNL     1       4.967   5.001  17.537  0.00  0.00    +0.000 A 
ATOM     25  C   UNL     1       5.713   5.320  18.693  0.00  0.00    +0.000 A 
ENDBRANCH  16  24
ENDBRANCH   1  16
TORSDOF 3
ENDMDL
MODEL 7
REMARK VINA RESULT:      -7.6      2.885      8.121
REMARK  Name = 
REMARK  6 active torsions:
REMARK  status: ('A' for Active; 'I' for Inactive)
REMARK    1  A    between atoms: C_1  and  C_2
REMARK    2  A    between atoms: C_5  and  C_6
REMARK    3  A    between atoms: C_7  and  C_8
REMARK    4  A    between atoms: C_8  and  C_9
REMARK    5  A    between atoms: C_8  and  N_10
REMARK    6  A    between atoms: C_16  and  N_17
REMARK                            x       y       z     vdW  Elec       q    Type
REMARK                         _______ _______ _______ _____ _____    ______ ____
ROOT
ATOM      1  N   UNL     1       2.761   6.751  18.833  0.00  0.00    +0.000 N 
ATOM      2  C   UNL     1       1.956   7.027  19.909  0.00  0.00    +0.000 C 
ATOM      3  O   UNL     1       1.662   6.180  20.746  0.00  0.00    +0.000 OA
ATOM      4  N   UNL     1       1.501   8.337  19.967  0.00  0.00    +0.000 N 
ATOM      5  C   UNL     1       0.890   8.815  21.205  0.00  0.00    +0.000 C 
ATOM      6  C   UNL     1      -0.440   9.511  20.934  0.00  0.00    +0.000 C 
ATOM      7  C   UNL     1      -0.311  10.609  19.874  0.00  0.00    +0.000 C 
ATOM      8  C   UNL     1       0.394  10.081  18.617  0.00  0.00    +0.000 C 
ATOM      9  C   UNL     1       1.694   9.343  18.923  0.00  0.00    +0.000 C 
ATOM     10  H   UNL     1       3.366   7.514  18.585  0.00  0.00    +0.000 HD
ENDROOT
BRANCH   7  11
ATOM     11  N   UNL     1       0.285  11.828  20.408  0.00  0.00    +0.000 N 
ATOM     12  C   UNL     1       0.011  12.419  21.604  0.00  0.00    +0.000 A 
ATOM     13  N   UNL     1       0.723  13.517  21.725  0.00  0.00    +0.000 NA
ATOM     14  C   UNL     1       1.429  13.556  20.556  0.00  0.00    +0.000 A 
ATOM     15  N   UNL     1       1.197  12.538  19.722  0.00  0.00    +0.000 NA
ENDBRANCH   7  11
BRANCH   1  16
ATOM     16  C   UNL     1       3.337   5.425  18.643  0.00  0.00    +0.000 C 
ATOM     17  C   UNL     1       3.632   4.778  19.999  0.00  0.00    +0.000 C 
BRANCH  16  24
ATOM     18  C   UNL     1       7.714   7.649  17.359  0.00  0.00    +0.000 C 
ATOM     19  C   UNL     1       6.740   6.521  17.184  0.00  0.00    +0.000 A 
ATOM     20  C   UNL     1       6.999   5.491  16.283  0.00  0.00    +0.000 A 
ATOM     21  C   UNL     1       6.080   4.456  16.120  0.00  0.00    +0.000 A 
ATOM     22  C   UNL     1       4.877   4.430  16.846  0.00  0.00    +0.000 A 
ATOM     23  C   UNL     1       3.945   3.269  16.619  0.00  0.00    +0.000 C 
ATOM     24  C   UNL     1       4.599   5.457  17.779  0.00  0.00    +0.000 A 
ATOM     25  C   UNL     1       5.552   6.490  17.930  0.00  0.00    +0.000 A 
ENDBRANCH  16  24
ENDBRANCH   1  16
TORSDOF 3
ENDMDL
MODEL 8
REMARK VINA RESULT:      -7.6      2.086      3.283
REMARK  Name = 
REMARK  6 active torsions:
REMARK  status: ('A' for Active; 'I' for Inactive)
REMARK    1  A    between atoms: C_1  and  C_2
REMARK    2  A    between atoms: C_5  and  C_6
REMARK    3  A    between atoms: C_7  and  C_8
REMARK    4  A    between atoms: C_8  and  C_9
REMARK    5  A    between atoms: C_8  and  N_10
REMARK    6  A    between atoms: C_16  and  N_17
REMARK                            x       y       z     vdW  Elec       q    Type
REMARK                         _______ _______ _______ _____ _____    ______ ____
ROOT
ATOM      1  N   UNL     1       2.103   8.746  18.220  0.00  0.00    +0.000 N 
ATOM      2  C   UNL     1       2.470   7.509  18.687  0.00  0.00    +0.000 C 
ATOM      3  O   UNL     1       1.880   6.952  19.608  0.00  0.00    +0.000 OA
ATOM      4  N   UNL     1       3.560   6.949  18.038  0.00  0.00    +0.000 N 
ATOM      5  C   UNL     1       3.850   5.532  18.247  0.00  0.00    +0.000 C 
ATOM      6  C   UNL     1       5.319   5.312  18.592  0.00  0.00    +0.000 C 
ATOM      7  C   UNL     1       6.256   5.965  17.571  0.00  0.00    +0.000 C 
ATOM      8  C   UNL     1       5.875   7.433  17.334  0.00  0.00    +0.000 C 
ATOM      9  C   UNL     1       4.389   7.628  17.043  0.00  0.00    +0.000 C 
ATOM     10  H   UNL     1       2.211   8.842  17.226  0.00  0.00    +0.000 HD
ENDROOT
BRANCH   7  11
ATOM     11  N   UNL     1       6.368   5.186  16.344  0.00  0.00    +0.000 N 
ATOM     12  C   UNL     1       5.766   3.995  16.071  0.00  0.00    +0.000 A 
ATOM     13  N   UNL     1       6.127   3.584  14.876  0.00  0.00    +0.000 NA
ATOM     14  C   UNL     1       6.965   4.576  14.450  0.00  0.00    +0.000 A 
ATOM     15  N   UNL     1       7.137   5.579  15.315  0.00  0.00    +0.000 NA
ENDBRANCH   7  11
BRANCH   1  16
ATOM     16  C   UNL     1       0.962   9.458  18.784  0.00  0.00    +0.000 C 
ATOM     17  C   UNL     1      -0.171   9.536  17.757  0.00  0.00    +0.000 C 
BRANCH  16  24
ATOM     18  C   UNL     1       3.213  13.935  17.980  0.00  0.00    +0.000 C 
ATOM     19  C   UNL     1       2.398  13.041  18.869  0.00  0.00    +0.000 A 
ATOM     20  C   UNL     1       1.946  13.491  20.107  0.00  0.00    +0.000 A 
ATOM     21  C   UNL     1       1.202  12.647  20.929  0.00  0.00    +0.000 A 
ATOM     22  C   UNL     1       0.900  11.332  20.539  0.00  0.00    +0.000 A 
ATOM     23  C   UNL     1       0.080  10.490  21.481  0.00  0.00    +0.000 C 
ATOM     24  C   UNL     1       1.335  10.858  19.278  0.00  0.00    +0.000 A 
ATOM     25  C   UNL     1       2.081  11.737  18.461  0.00  0.00    +0.000 A 
ENDBRANCH  16  24
ENDBRANCH   1  16
TORSDOF 3
ENDMDL
MODEL 9
REMARK VINA RESULT:      -7.3      8.447     11.568
REMARK  Name = 
REMARK  6 active torsions:
REMARK  status: ('A' for Active; 'I' for Inactive)
REMARK    1  A    between atoms: C_1  and  C_2
REMARK    2  A    between atoms: C_5  and  C_6
REMARK    3  A    between atoms: C_7  and  C_8
REMARK    4  A    between atoms: C_8  and  C_9
REMARK    5  A    between atoms: C_8  and  N_10
REMARK    6  A    between atoms: C_16  and  N_17
REMARK                            x       y       z     vdW  Elec       q    Type
REMARK                         _______ _______ _______ _____ _____    ______ ____
ROOT
ATOM      1  N   UNL     1       7.516  14.778  19.806  0.00  0.00    +0.000 N 
ATOM      2  C   UNL     1       6.382  14.878  20.573  0.00  0.00    +0.000 C 
ATOM      3  O   UNL     1       6.382  14.656  21.779  0.00  0.00    +0.000 OA
ATOM      4  N   UNL     1       5.243  15.244  19.871  0.00  0.00    +0.000 N 
ATOM      5  C   UNL     1       4.060  15.663  20.620  0.00  0.00    +0.000 C 
ATOM      6  C   UNL     1       2.810  14.937  20.134  0.00  0.00    +0.000 C 
ATOM      7  C   UNL     1       2.625  15.058  18.618  0.00  0.00    +0.000 C 
ATOM      8  C   UNL     1       3.911  14.671  17.874  0.00  0.00    +0.000 C 
ATOM      9  C   UNL     1       5.153  15.372  18.416  0.00  0.00    +0.000 C 
ATOM     10  H   UNL     1       7.563  15.468  19.077  0.00  0.00    +0.000 HD
ENDROOT
BRANCH   7  11
ATOM     11  N   UNL     1       2.094  16.358  18.227  0.00  0.00    +0.000 N 
ATOM     12  C   UNL     1       2.511  17.136  17.189  0.00  0.00    +0.000 A 
ATOM     13  N   UNL     1       1.814  18.250  17.167  0.00  0.00    +0.000 NA
ATOM     14  C   UNL     1       0.969  18.105  18.231  0.00  0.00    +0.000 A 
ATOM     15  N   UNL     1       1.101  16.959  18.905  0.00  0.00    +0.000 NA
ENDBRANCH   7  11
BRANCH   1  16
ATOM     16  C   UNL     1       8.800  14.425  20.399  0.00  0.00    +0.000 C 
ATOM     17  C   UNL     1       9.639  15.685  20.628  0.00  0.00    +0.000 C 
BRANCH  16  24
ATOM     18  C   UNL     1      11.649  13.379  16.332  0.00  0.00    +0.000 C 
ATOM     19  C   UNL     1      10.986  12.917  17.596  0.00  0.00    +0.000 A 
ATOM     20  C   UNL     1      11.108  11.596  18.022  0.00  0.00    +0.000 A 
ATOM     21  C   UNL     1      10.476  11.176  19.191  0.00  0.00    +0.000 A 
ATOM     22  C   UNL     1       9.699  12.061  19.956  0.00  0.00    +0.000 A 
ATOM     23  C   UNL     1       9.060  11.529  21.213  0.00  0.00    +0.000 C 
ATOM     24  C   UNL     1       9.573  13.412  19.553  0.00  0.00    +0.000 A 
ATOM     25  C   UNL     1      10.231  13.814  18.368  0.00  0.00    +0.000 A 
ENDBRANCH  16  24
ENDBRANCH   1  16
TORSDOF 3
ENDMDL
