MODEL 1
REMARK VINA RESULT:      -6.6      0.000      0.000
REMARK  Name = 
REMARK  10 active torsions:
REMARK  status: ('A' for Active; 'I' for Inactive)
REMARK    1  A    between atoms: C_1  and  O_2
REMARK    2  A    between atoms: O_2  and  C_3
REMARK    3  A    between atoms: C_6  and  C_7
REMARK    4  A    between atoms: N_8  and  N_9
REMARK    5  A    between atoms: C_13  and  S_14
REMARK    6  A    between atoms: S_14  and  C_15
REMARK    7  A    between atoms: C_15  and  C_16
REMARK    8  A    between atoms: C_16  and  O_17
REMARK    9  A    between atoms: C_19  and  O_20
REMARK   10  A    between atoms: O_20  and  C_21
REMARK                            x       y       z     vdW  Elec       q    Type
REMARK                         _______ _______ _______ _____ _____    ______ ____
ROOT
ATOM      1  C   UNL     1       4.041   4.219  16.457  0.00  0.00    +0.000 C 
ATOM      2  N   UNL     1       5.278   3.849  16.527  0.00  0.00    +0.000 NA
ENDROOT
BRANCH   1   6
ATOM      3  C   UNL     1       1.515   3.359  19.795  0.00  0.00    +0.000 A 
ATOM      4  C   UNL     1       1.497   2.528  18.664  0.00  0.00    +0.000 A 
ATOM      5  C   UNL     1       2.300   2.806  17.558  0.00  0.00    +0.000 A 
ATOM      6  C   UNL     1       3.099   3.946  17.560  0.00  0.00    +0.000 A 
ATOM      7  C   UNL     1       3.058   4.826  18.640  0.00  0.00    +0.000 A 
ATOM      8  C   UNL     1       2.266   4.547  19.763  0.00  0.00    +0.000 A 
BRANCH   3  10
ATOM      9  C   UNL     1       1.534   2.430  21.975  0.00  0.00    +0.000 C 
ATOM     10  O   UNL     1       0.797   3.043  20.916  0.00  0.00    +0.000 OA
ENDBRANCH   3  10
BRANCH   8  11
ATOM     11  O   UNL     1       2.387   5.519  20.720  0.00  0.00    +0.000 OA
ATOM     12  C   UNL     1       1.544   6.659  20.662  0.00  0.00    +0.000 C 
ENDBRANCH   8  11
ENDBRANCH   1   6
BRANCH   2  13
ATOM     13  N   UNL     1       6.103   4.244  15.502  0.00  0.00    +0.000 N 
ATOM     14  C   UNL     1       6.211   3.764  14.218  0.00  0.00    +0.000 A 
ATOM     15  N   UNL     1       7.076   4.473  13.527  0.00  0.00    +0.000 NA
ATOM     16  N   UNL     1       7.541   5.470  14.348  0.00  0.00    +0.000 NA
ATOM     17  C   UNL     1       6.942   5.338  15.510  0.00  0.00    +0.000 A 
BRANCH  17  18
ATOM     18  S   UNL     1       7.134   6.366  16.889  0.00  0.00    +0.000 S 
BRANCH  18  19
ATOM     19  C   UNL     1       7.633   5.155  18.160  0.00  0.00    +0.000 C 
BRANCH  19  20
ATOM     20  C   UNL     1       6.993   5.444  19.517  0.00  0.00    +0.000 C 
BRANCH  20  21
ATOM     21  O   UNL     1       7.965   5.442  20.561  0.00  0.00    +0.000 OA
ATOM     22  H   UNL     1       8.700   4.880  20.254  0.00  0.00    +0.000 HD
ENDBRANCH  20  21
ENDBRANCH  19  20
ENDBRANCH  18  19
ENDBRANCH  17  18
ENDBRANCH   2  13
TORSDOF 8
ENDMDL
MODEL 2
REMARK VINA RESULT:      -6.4      1.064      1.113
REMARK  Name = 
REMARK  10 active torsions:
REMARK  status: ('A' for Active; 'I' for Inactive)
REMARK    1  A    between atoms: C_1  and  O_2
REMARK    2  A    between atoms: O_2  and  C_3
REMARK    3  A    between atoms: C_6  and  C_7
REMARK    4  A    between atoms: N_8  and  N_9
REMARK    5  A    between atoms: C_13  and  S_14
REMARK    6  A    between atoms: S_14  and  C_15
REMARK    7  A    between atoms: C_15  and  C_16
REMARK    8  A    between atoms: C_16  and  O_17
REMARK    9  A    between atoms: C_19  and  O_20
REMARK   10  A    between atoms: O_20  and  C_21
REMARK                            x       y       z     vdW  Elec       q    Type
REMARK                         _______ _______ _______ _____ _____    ______ ____
ROOT
ATOM      1  C   UNL     1       4.016   4.478  16.715  0.00  0.00    +0.000 C 
ATOM      2  N   UNL     1       4.973   3.683  16.364  0.00  0.00    +0.000 NA
ENDROOT
BRANCH   1   6
ATOM      3  C   UNL     1       1.332   3.262  19.810  0.00  0.00    +0.000 A 
ATOM      4  C   UNL     1       1.521   2.449  18.681  0.00  0.00    +0.000 A 
ATOM      5  C   UNL     1       2.378   2.841  17.653  0.00  0.00    +0.000 A 
ATOM      6  C   UNL     1       3.021   4.073  17.729  0.00  0.00    +0.000 A 
ATOM      7  C   UNL     1       2.772   4.927  18.802  0.00  0.00    +0.000 A 
ATOM      8  C   UNL     1       1.925   4.535  19.849  0.00  0.00    +0.000 A 
BRANCH   3  10
ATOM      9  C   UNL     1       1.272   2.489  22.050  0.00  0.00    +0.000 C 
ATOM     10  O   UNL     1       0.563   2.842  20.862  0.00  0.00    +0.000 OA
ENDBRANCH   3  10
BRANCH   8  11
ATOM     11  O   UNL     1       1.835   5.503  20.814  0.00  0.00    +0.000 OA
ATOM     12  C   UNL     1       1.722   6.863  20.425  0.00  0.00    +0.000 C 
ENDBRANCH   8  11
ENDBRANCH   1   6
BRANCH   2  13
ATOM     13  N   UNL     1       5.912   4.188  15.497  0.00  0.00    +0.000 N 
ATOM     14  C   UNL     1       5.849   4.378  14.136  0.00  0.00    +0.000 A 
ATOM     15  N   UNL     1       6.943   4.960  13.696  0.00  0.00    +0.000 NA
ATOM     16  N   UNL     1       7.749   5.197  14.781  0.00  0.00    +0.000 NA
ATOM     17  C   UNL     1       7.120   4.755  15.847  0.00  0.00    +0.000 A 
BRANCH  17  18
ATOM     18  S   UNL     1       7.675   4.848  17.483  0.00  0.00    +0.000 S 
BRANCH  18  19
ATOM     19  C   UNL     1       6.900   6.409  18.026  0.00  0.00    +0.000 C 
BRANCH  19  20
ATOM     20  C   UNL     1       7.783   7.623  17.741  0.00  0.00    +0.000 C 
BRANCH  20  21
ATOM     21  O   UNL     1       8.633   7.920  18.847  0.00  0.00    +0.000 OA
ATOM     22  H   UNL     1       8.065   8.317  19.533  0.00  0.00    +0.000 HD
ENDBRANCH  20  21
ENDBRANCH  19  20
ENDBRANCH  18  19
ENDBRANCH  17  18
ENDBRANCH   2  13
TORSDOF 8
ENDMDL
MODEL 3
REMARK VINA RESULT:      -6.3      3.534      5.487
REMARK  Name = 
REMARK  10 active torsions:
REMARK  status: ('A' for Active; 'I' for Inactive)
REMARK    1  A    between atoms: C_1  and  O_2
REMARK    2  A    between atoms: O_2  and  C_3
REMARK    3  A    between atoms: C_6  and  C_7
REMARK    4  A    between atoms: N_8  and  N_9
REMARK    5  A    between atoms: C_13  and  S_14
REMARK    6  A    between atoms: S_14  and  C_15
REMARK    7  A    between atoms: C_15  and  C_16
REMARK    8  A    between atoms: C_16  and  O_17
REMARK    9  A    between atoms: C_19  and  O_20
REMARK   10  A    between atoms: O_20  and  C_21
REMARK                            x       y       z     vdW  Elec       q    Type
REMARK                         _______ _______ _______ _____ _____    ______ ____
ROOT
ATOM      1  C   UNL     1       2.757   6.518  19.699  0.00  0.00    +0.000 C 
ATOM      2  N   UNL     1       3.256   5.816  18.734  0.00  0.00    +0.000 NA
ENDROOT
BRANCH   1   6
ATOM      3  C   UNL     1       0.537  10.088  18.934  0.00  0.00    +0.000 A 
ATOM      4  C   UNL     1       1.352   9.536  17.933  0.00  0.00    +0.000 A 
ATOM      5  C   UNL     1       2.098   8.383  18.173  0.00  0.00    +0.000 A 
ATOM      6  C   UNL     1       2.067   7.796  19.434  0.00  0.00    +0.000 A 
ATOM      7  C   UNL     1       1.332   8.386  20.462  0.00  0.00    +0.000 A 
ATOM      8  C   UNL     1       0.565   9.536  20.226  0.00  0.00    +0.000 A 
BRANCH   3  10
ATOM      9  C   UNL     1      -1.547  10.871  18.121  0.00  0.00    +0.000 C 
ATOM     10  O   UNL     1      -0.265  11.167  18.677  0.00  0.00    +0.000 OA
ENDBRANCH   3  10
BRANCH   8  11
ATOM     11  O   UNL     1      -0.099   9.939  21.354  0.00  0.00    +0.000 OA
ATOM     12  C   UNL     1       0.345   9.483  22.622  0.00  0.00    +0.000 C 
ENDBRANCH   8  11
ENDBRANCH   1   6
BRANCH   2  13
ATOM     13  N   UNL     1       3.781   4.591  19.066  0.00  0.00    +0.000 N 
ATOM     14  C   UNL     1       3.156   3.380  19.247  0.00  0.00    +0.000 A 
ATOM     15  N   UNL     1       4.036   2.432  19.485  0.00  0.00    +0.000 NA
ATOM     16  N   UNL     1       5.282   3.004  19.435  0.00  0.00    +0.000 NA
ATOM     17  C   UNL     1       5.122   4.281  19.165  0.00  0.00    +0.000 A 
BRANCH  17  18
ATOM     18  S   UNL     1       6.376   5.452  18.946  0.00  0.00    +0.000 S 
BRANCH  18  19
ATOM     19  C   UNL     1       7.419   4.619  17.702  0.00  0.00    +0.000 C 
BRANCH  19  20
ATOM     20  C   UNL     1       6.803   4.667  16.304  0.00  0.00    +0.000 C 
BRANCH  20  21
ATOM     21  O   UNL     1       7.538   5.532  15.441  0.00  0.00    +0.000 OA
ATOM     22  H   UNL     1       6.943   6.272  15.220  0.00  0.00    +0.000 HD
ENDBRANCH  20  21
ENDBRANCH  19  20
ENDBRANCH  18  19
ENDBRANCH  17  18
ENDBRANCH   2  13
TORSDOF 8
ENDMDL
MODEL 4
REMARK VINA RESULT:      -6.2      5.340      7.743
REMARK  Name = 
REMARK  10 active torsions:
REMARK  status: ('A' for Active; 'I' for Inactive)
REMARK    1  A    between atoms: C_1  and  O_2
REMARK    2  A    between atoms: O_2  and  C_3
REMARK    3  A    between atoms: C_6  and  C_7
REMARK    4  A    between atoms: N_8  and  N_9
REMARK    5  A    between atoms: C_13  and  S_14
REMARK    6  A    between atoms: S_14  and  C_15
REMARK    7  A    between atoms: C_15  and  C_16
REMARK    8  A    between atoms: C_16  and  O_17
REMARK    9  A    between atoms: C_19  and  O_20
REMARK   10  A    between atoms: O_20  and  C_21
REMARK                            x       y       z     vdW  Elec       q    Type
REMARK                         _______ _______ _______ _____ _____    ______ ____
ROOT
ATOM      1  C   UNL     1       1.247   7.448  21.005  0.00  0.00    +0.000 C 
ATOM      2  N   UNL     1       1.292   8.705  20.707  0.00  0.00    +0.000 NA
ENDROOT
BRANCH   1   6
ATOM      3  C   UNL     1       3.596   4.562  18.904  0.00  0.00    +0.000 A 
ATOM      4  C   UNL     1       3.464   5.866  18.401  0.00  0.00    +0.000 A 
ATOM      5  C   UNL     1       2.685   6.813  19.063  0.00  0.00    +0.000 A 
ATOM      6  C   UNL     1       1.996   6.449  20.216  0.00  0.00    +0.000 A 
ATOM      7  C   UNL     1       2.047   5.134  20.676  0.00  0.00    +0.000 A 
ATOM      8  C   UNL     1       2.841   4.178  20.026  0.00  0.00    +0.000 A 
BRANCH   3  10
ATOM      9  C   UNL     1       4.596   3.796  16.896  0.00  0.00    +0.000 C 
ATOM     10  O   UNL     1       4.429   3.655  18.308  0.00  0.00    +0.000 OA
ENDBRANCH   3  10
BRANCH   8  11
ATOM     11  O   UNL     1       2.774   2.960  20.648  0.00  0.00    +0.000 OA
ATOM     12  C   UNL     1       1.705   2.694  21.542  0.00  0.00    +0.000 C 
ENDBRANCH   8  11
ENDBRANCH   1   6
BRANCH   2  13
ATOM     13  N   UNL     1       0.653   9.569  21.562  0.00  0.00    +0.000 N 
ATOM     14  C   UNL     1       0.150   9.355  22.825  0.00  0.00    +0.000 A 
ATOM     15  N   UNL     1      -0.322  10.471  23.333  0.00  0.00    +0.000 NA
ATOM     16  N   UNL     1      -0.109  11.466  22.413  0.00  0.00    +0.000 NA
ATOM     17  C   UNL     1       0.488  10.926  21.375  0.00  0.00    +0.000 A 
BRANCH  17  18
ATOM     18  S   UNL     1       1.022  11.749  19.950  0.00  0.00    +0.000 S 
BRANCH  18  19
ATOM     19  C   UNL     1      -0.378  11.437  18.821  0.00  0.00    +0.000 C 
BRANCH  19  20
ATOM     20  C   UNL     1      -0.216  10.132  18.044  0.00  0.00    +0.000 C 
BRANCH  20  21
ATOM     21  O   UNL     1       1.131   9.947  17.613  0.00  0.00    +0.000 OA
ATOM     22  H   UNL     1       1.422  10.800  17.241  0.00  0.00    +0.000 HD
ENDBRANCH  20  21
ENDBRANCH  19  20
ENDBRANCH  18  19
ENDBRANCH  17  18
ENDBRANCH   2  13
TORSDOF 8
ENDMDL
MODEL 5
REMARK VINA RESULT:      -6.2      3.706      6.174
REMARK  Name = 
REMARK  10 active torsions:
REMARK  status: ('A' for Active; 'I' for Inactive)
REMARK    1  A    between atoms: C_1  and  O_2
REMARK    2  A    between atoms: O_2  and  C_3
REMARK    3  A    between atoms: C_6  and  C_7
REMARK    4  A    between atoms: N_8  and  N_9
REMARK    5  A    between atoms: C_13  and  S_14
REMARK    6  A    between atoms: S_14  and  C_15
REMARK    7  A    between atoms: C_15  and  C_16
REMARK    8  A    between atoms: C_16  and  O_17
REMARK    9  A    between atoms: C_19  and  O_20
REMARK   10  A    between atoms: O_20  and  C_21
REMARK                            x       y       z     vdW  Elec       q    Type
REMARK                         _______ _______ _______ _____ _____    ______ ____
ROOT
ATOM      1  C   UNL     1       2.553   7.185  19.242  0.00  0.00    +0.000 C 
ATOM      2  N   UNL     1       2.784   6.040  19.797  0.00  0.00    +0.000 NA
ENDROOT
BRANCH   1   6
ATOM      3  C   UNL     1       0.126  10.180  21.084  0.00  0.00    +0.000 A 
ATOM      4  C   UNL     1       0.390   8.976  21.755  0.00  0.00    +0.000 A 
ATOM      5  C   UNL     1       1.163   7.980  21.159  0.00  0.00    +0.000 A 
ATOM      6  C   UNL     1       1.645   8.166  19.867  0.00  0.00    +0.000 A 
ATOM      7  C   UNL     1       1.314   9.320  19.157  0.00  0.00    +0.000 A 
ATOM      8  C   UNL     1       0.551  10.334  19.754  0.00  0.00    +0.000 A 
BRANCH   3  10
ATOM      9  C   UNL     1      -1.081  10.901  22.993  0.00  0.00    +0.000 C 
ATOM     10  O   UNL     1      -0.557  11.196  21.698  0.00  0.00    +0.000 OA
ENDBRANCH   3  10
BRANCH   8  11
ATOM     11  O   UNL     1       0.361  11.390  18.901  0.00  0.00    +0.000 OA
ATOM     12  C   UNL     1       1.366  12.385  18.794  0.00  0.00    +0.000 C 
ENDBRANCH   8  11
ENDBRANCH   1   6
BRANCH   2  13
ATOM     13  N   UNL     1       3.727   5.239  19.199  0.00  0.00    +0.000 N 
ATOM     14  C   UNL     1       5.089   5.186  19.383  0.00  0.00    +0.000 A 
ATOM     15  N   UNL     1       5.618   4.221  18.664  0.00  0.00    +0.000 NA
ATOM     16  N   UNL     1       4.594   3.589  18.004  0.00  0.00    +0.000 NA
ATOM     17  C   UNL     1       3.474   4.187  18.344  0.00  0.00    +0.000 A 
BRANCH  17  18
ATOM     18  S   UNL     1       1.879   3.755  17.830  0.00  0.00    +0.000 S 
BRANCH  18  19
ATOM     19  C   UNL     1       1.528   2.342  18.931  0.00  0.00    +0.000 C 
BRANCH  19  20
ATOM     20  C   UNL     1       1.274   2.781  20.372  0.00  0.00    +0.000 C 
BRANCH  20  21
ATOM     21  O   UNL     1       0.551   4.009  20.423  0.00  0.00    +0.000 OA
ATOM     22  H   UNL     1       1.028   4.585  21.048  0.00  0.00    +0.000 HD
ENDBRANCH  20  21
ENDBRANCH  19  20
ENDBRANCH  18  19
ENDBRANCH  17  18
ENDBRANCH   2  13
TORSDOF 8
ENDMDL
MODEL 6
REMARK VINA RESULT:      -6.2      5.674      8.101
REMARK  Name = 
REMARK  10 active torsions:
REMARK  status: ('A' for Active; 'I' for Inactive)
REMARK    1  A    between atoms: C_1  and  O_2
REMARK    2  A    between atoms: O_2  and  C_3
REMARK    3  A    between atoms: C_6  and  C_7
REMARK    4  A    between atoms: N_8  and  N_9
REMARK    5  A    between atoms: C_13  and  S_14
REMARK    6  A    between atoms: S_14  and  C_15
REMARK    7  A    between atoms: C_15  and  C_16
REMARK    8  A    between atoms: C_16  and  O_17
REMARK    9  A    between atoms: C_19  and  O_20
REMARK   10  A    between atoms: O_20  and  C_21
REMARK                            x       y       z     vdW  Elec       q    Type
REMARK                         _______ _______ _______ _____ _____    ______ ____
ROOT
ATOM      1  C   UNL     1       1.116   7.522  20.925  0.00  0.00    +0.000 C 
ATOM      2  N   UNL     1       1.481   8.763  20.918  0.00  0.00    +0.000 NA
ENDROOT
BRANCH   1   6
ATOM      3  C   UNL     1       3.605   4.550  19.128  0.00  0.00    +0.000 A 
ATOM      4  C   UNL     1       3.466   5.811  18.527  0.00  0.00    +0.000 A 
ATOM      5  C   UNL     1       2.642   6.785  19.090  0.00  0.00    +0.000 A 
ATOM      6  C   UNL     1       1.916   6.488  20.240  0.00  0.00    +0.000 A 
ATOM      7  C   UNL     1       1.978   5.211  20.795  0.00  0.00    +0.000 A 
ATOM      8  C   UNL     1       2.816   4.230  20.245  0.00  0.00    +0.000 A 
BRANCH   3  10
ATOM      9  C   UNL     1       3.921   2.650  17.745  0.00  0.00    +0.000 C 
ATOM     10  O   UNL     1       4.480   3.623  18.630  0.00  0.00    +0.000 OA
ENDBRANCH   3  10
BRANCH   8  11
ATOM     11  O   UNL     1       2.751   3.058  20.951  0.00  0.00    +0.000 OA
ATOM     12  C   UNL     1       1.519   2.666  21.535  0.00  0.00    +0.000 C 
ENDBRANCH   8  11
ENDBRANCH   1   6
BRANCH   2  13
ATOM     13  N   UNL     1       0.734   9.633  21.674  0.00  0.00    +0.000 N 
ATOM     14  C   UNL     1       0.201   9.479  22.933  0.00  0.00    +0.000 A 
ATOM     15  N   UNL     1      -0.387  10.587  23.328  0.00  0.00    +0.000 NA
ATOM     16  N   UNL     1      -0.224  11.518  22.333  0.00  0.00    +0.000 NA
ATOM     17  C   UNL     1       0.460  10.949  21.366  0.00  0.00    +0.000 A 
BRANCH  17  18
ATOM     18  S   UNL     1       0.979  11.697  19.894  0.00  0.00    +0.000 S 
BRANCH  18  19
ATOM     19  C   UNL     1      -0.578  12.454  19.319  0.00  0.00    +0.000 C 
BRANCH  19  20
ATOM     20  C   UNL     1      -1.301  11.583  18.293  0.00  0.00    +0.000 C 
BRANCH  20  21
ATOM     21  O   UNL     1      -1.597  12.314  17.105  0.00  0.00    +0.000 OA
ATOM     22  H   UNL     1      -1.352  13.241  17.283  0.00  0.00    +0.000 HD
ENDBRANCH  20  21
ENDBRANCH  19  20
ENDBRANCH  18  19
ENDBRANCH  17  18
ENDBRANCH   2  13
TORSDOF 8
ENDMDL
MODEL 7
REMARK VINA RESULT:      -6.2      3.849      5.739
REMARK  Name = 
REMARK  10 active torsions:
REMARK  status: ('A' for Active; 'I' for Inactive)
REMARK    1  A    between atoms: C_1  and  O_2
REMARK    2  A    between atoms: O_2  and  C_3
REMARK    3  A    between atoms: C_6  and  C_7
REMARK    4  A    between atoms: N_8  and  N_9
REMARK    5  A    between atoms: C_13  and  S_14
REMARK    6  A    between atoms: S_14  and  C_15
REMARK    7  A    between atoms: C_15  and  C_16
REMARK    8  A    between atoms: C_16  and  O_17
REMARK    9  A    between atoms: C_19  and  O_20
REMARK   10  A    between atoms: O_20  and  C_21
REMARK                            x       y       z     vdW  Elec       q    Type
REMARK                         _______ _______ _______ _____ _____    ______ ____
ROOT
ATOM      1  C   UNL     1       2.308   7.564  18.581  0.00  0.00    +0.000 C 
ATOM      2  N   UNL     1       2.755   6.400  18.924  0.00  0.00    +0.000 NA
ENDROOT
BRANCH   1   6
ATOM      3  C   UNL     1       0.555  10.247  21.407  0.00  0.00    +0.000 A 
ATOM      4  C   UNL     1       0.959   8.964  21.809  0.00  0.00    +0.000 A 
ATOM      5  C   UNL     1       1.514   8.069  20.895  0.00  0.00    +0.000 A 
ATOM      6  C   UNL     1       1.631   8.439  19.558  0.00  0.00    +0.000 A 
ATOM      7  C   UNL     1       1.151   9.676  19.131  0.00  0.00    +0.000 A 
ATOM      8  C   UNL     1       0.606  10.589  20.046  0.00  0.00    +0.000 A 
BRANCH   3  10
ATOM      9  C   UNL     1      -1.082  10.782  23.037  0.00  0.00    +0.000 C 
ATOM     10  O   UNL     1       0.092  11.159  22.317  0.00  0.00    +0.000 OA
ENDBRANCH   3  10
BRANCH   8  11
ATOM     11  O   UNL     1       0.220  11.750  19.430  0.00  0.00    +0.000 OA
ATOM     12  C   UNL     1      -1.130  11.904  19.022  0.00  0.00    +0.000 C 
ENDBRANCH   8  11
ENDBRANCH   1   6
BRANCH   2  13
ATOM     13  N   UNL     1       3.467   5.706  17.976  0.00  0.00    +0.000 N 
ATOM     14  C   UNL     1       4.628   6.041  17.319  0.00  0.00    +0.000 A 
ATOM     15  N   UNL     1       5.022   5.059  16.539  0.00  0.00    +0.000 NA
ATOM     16  N   UNL     1       4.130   4.027  16.692  0.00  0.00    +0.000 NA
ATOM     17  C   UNL     1       3.223   4.413  17.562  0.00  0.00    +0.000 A 
BRANCH  17  18
ATOM     18  S   UNL     1       1.894   3.473  18.148  0.00  0.00    +0.000 S 
BRANCH  18  19
ATOM     19  C   UNL     1       2.772   2.137  19.027  0.00  0.00    +0.000 C 
BRANCH  19  20
ATOM     20  C   UNL     1       3.809   2.675  20.012  0.00  0.00    +0.000 C 
BRANCH  20  21
ATOM     21  O   UNL     1       5.132   2.544  19.498  0.00  0.00    +0.000 OA
ATOM     22  H   UNL     1       5.717   2.418  20.267  0.00  0.00    +0.000 HD
ENDBRANCH  20  21
ENDBRANCH  19  20
ENDBRANCH  18  19
ENDBRANCH  17  18
ENDBRANCH   2  13
TORSDOF 8
ENDMDL
MODEL 8
REMARK VINA RESULT:      -6.2      5.544      8.052
REMARK  Name = 
REMARK  10 active torsions:
REMARK  status: ('A' for Active; 'I' for Inactive)
REMARK    1  A    between atoms: C_1  and  O_2
REMARK    2  A    between atoms: O_2  and  C_3
REMARK    3  A    between atoms: C_6  and  C_7
REMARK    4  A    between atoms: N_8  and  N_9
REMARK    5  A    between atoms: C_13  and  S_14
REMARK    6  A    between atoms: S_14  and  C_15
REMARK    7  A    between atoms: C_15  and  C_16
REMARK    8  A    between atoms: C_16  and  O_17
REMARK    9  A    between atoms: C_19  and  O_20
REMARK   10  A    between atoms: O_20  and  C_21
REMARK                            x       y       z     vdW  Elec       q    Type
REMARK                         _______ _______ _______ _____ _____    ______ ____
ROOT
ATOM      1  C   UNL     1       1.543   7.693  20.502  0.00  0.00    +0.000 C 
ATOM      2  N   UNL     1       1.247   8.944  20.360  0.00  0.00    +0.000 NA
ENDROOT
BRANCH   1   6
ATOM      3  C   UNL     1       3.835   5.524  17.622  0.00  0.00    +0.000 A 
ATOM      4  C   UNL     1       3.647   6.908  17.477  0.00  0.00    +0.000 A 
ATOM      5  C   UNL     1       2.885   7.627  18.397  0.00  0.00    +0.000 A 
ATOM      6  C   UNL     1       2.269   6.957  19.449  0.00  0.00    +0.000 A 
ATOM      7  C   UNL     1       2.375   5.571  19.553  0.00  0.00    +0.000 A 
ATOM      8  C   UNL     1       3.153   4.841  18.642  0.00  0.00    +0.000 A 
BRANCH   3  10
ATOM      9  C   UNL     1       6.057   4.968  17.009  0.00  0.00    +0.000 C 
ATOM     10  O   UNL     1       4.655   4.829  16.774  0.00  0.00    +0.000 OA
ENDBRANCH   3  10
BRANCH   8  11
ATOM     11  O   UNL     1       3.147   3.502  18.934  0.00  0.00    +0.000 OA
ATOM     12  C   UNL     1       4.220   2.950  19.679  0.00  0.00    +0.000 C 
ENDBRANCH   8  11
ENDBRANCH   1   6
BRANCH   2  13
ATOM     13  N   UNL     1       0.669   9.572  21.437  0.00  0.00    +0.000 N 
ATOM     14  C   UNL     1       0.605   9.187  22.756  0.00  0.00    +0.000 A 
ATOM     15  N   UNL     1       0.022  10.114  23.483  0.00  0.00    +0.000 NA
ATOM     16  N   UNL     1      -0.286  11.160  22.649  0.00  0.00    +0.000 NA
ATOM     17  C   UNL     1       0.120  10.837  21.442  0.00  0.00    +0.000 A 
BRANCH  17  18
ATOM     18  S   UNL     1       0.015  11.822  20.023  0.00  0.00    +0.000 S 
BRANCH  18  19
ATOM     19  C   UNL     1      -1.461  11.114  19.215  0.00  0.00    +0.000 C 
BRANCH  19  20
ATOM     20  C   UNL     1      -1.105  10.298  17.974  0.00  0.00    +0.000 C 
BRANCH  20  21
ATOM     21  O   UNL     1       0.307  10.177  17.816  0.00  0.00    +0.000 OA
ATOM     22  H   UNL     1       0.693  11.011  18.143  0.00  0.00    +0.000 HD
ENDBRANCH  20  21
ENDBRANCH  19  20
ENDBRANCH  18  19
ENDBRANCH  17  18
ENDBRANCH   2  13
TORSDOF 8
ENDMDL
MODEL 9
REMARK VINA RESULT:      -6.1      3.296      5.226
REMARK  Name = 
REMARK  10 active torsions:
REMARK  status: ('A' for Active; 'I' for Inactive)
REMARK    1  A    between atoms: C_1  and  O_2
REMARK    2  A    between atoms: O_2  and  C_3
REMARK    3  A    between atoms: C_6  and  C_7
REMARK    4  A    between atoms: N_8  and  N_9
REMARK    5  A    between atoms: C_13  and  S_14
REMARK    6  A    between atoms: S_14  and  C_15
REMARK    7  A    between atoms: C_15  and  C_16
REMARK    8  A    between atoms: C_16  and  O_17
REMARK    9  A    between atoms: C_19  and  O_20
REMARK   10  A    between atoms: O_20  and  C_21
REMARK                            x       y       z     vdW  Elec       q    Type
REMARK                         _______ _______ _______ _____ _____    ______ ____
ROOT
ATOM      1  C   UNL     1       2.794   7.494  17.884  0.00  0.00    +0.000 C 
ATOM      2  N   UNL     1       3.621   6.548  18.192  0.00  0.00    +0.000 NA
ENDROOT
BRANCH   1   6
ATOM      3  C   UNL     1       0.667   9.641  20.905  0.00  0.00    +0.000 A 
ATOM      4  C   UNL     1       1.227   8.386  21.193  0.00  0.00    +0.000 A 
ATOM      5  C   UNL     1       1.907   7.664  20.213  0.00  0.00    +0.000 A 
ATOM      6  C   UNL     1       1.995   8.175  18.922  0.00  0.00    +0.000 A 
ATOM      7  C   UNL     1       1.367   9.377  18.601  0.00  0.00    +0.000 A 
ATOM      8  C   UNL     1       0.695  10.119  19.584  0.00  0.00    +0.000 A 
BRANCH   3  10
ATOM      9  C   UNL     1      -0.254   9.700  23.088  0.00  0.00    +0.000 C 
ATOM     10  O   UNL     1       0.077  10.394  21.884  0.00  0.00    +0.000 OA
ENDBRANCH   3  10
BRANCH   8  11
ATOM     11  O   UNL     1       0.172  11.277  19.072  0.00  0.00    +0.000 OA
ATOM     12  C   UNL     1      -1.140  11.267  18.531  0.00  0.00    +0.000 C 
ENDBRANCH   8  11
ENDBRANCH   1   6
BRANCH   2  13
ATOM     13  N   UNL     1       4.400   6.051  17.175  0.00  0.00    +0.000 N 
ATOM     14  C   UNL     1       5.104   6.710  16.195  0.00  0.00    +0.000 A 
ATOM     15  N   UNL     1       5.784   5.861  15.458  0.00  0.00    +0.000 NA
ATOM     16  N   UNL     1       5.563   4.605  15.966  0.00  0.00    +0.000 NA
ATOM     17  C   UNL     1       4.757   4.730  16.996  0.00  0.00    +0.000 A 
BRANCH  17  18
ATOM     18  S   UNL     1       4.196   3.458  18.026  0.00  0.00    +0.000 S 
BRANCH  18  19
ATOM     19  C   UNL     1       2.538   3.150  17.329  0.00  0.00    +0.000 C 
BRANCH  19  20
ATOM     20  C   UNL     1       1.422   3.576  18.282  0.00  0.00    +0.000 C 
BRANCH  20  21
ATOM     21  O   UNL     1       1.933   4.330  19.379  0.00  0.00    +0.000 OA
ATOM     22  H   UNL     1       1.709   3.831  20.186  0.00  0.00    +0.000 HD
ENDBRANCH  20  21
ENDBRANCH  19  20
ENDBRANCH  18  19
ENDBRANCH  17  18
ENDBRANCH   2  13
TORSDOF 8
ENDMDL
