MODEL 1
REMARK VINA RESULT:      -7.7      0.000      0.000
REMARK  Name = 
REMARK  4 active torsions:
REMARK  status: ('A' for Active; 'I' for Inactive)
REMARK    1  A    between atoms: C_1  and  C_2
REMARK    2  A    between atoms: C_8  and  C_9
REMARK    3  A    between atoms: C_9  and  C_10
REMARK    4  A    between atoms: C_10  and  O_12
REMARK                            x       y       z     vdW  Elec       q    Type
REMARK                         _______ _______ _______ _____ _____    ______ ____
ROOT
ATOM      1  C   UNL     1       6.778   4.224  13.930  0.00  0.00    +0.000 C 
ATOM      2  C   UNL     1       5.917   4.759  15.038  0.00  0.00    +0.000 A 
ATOM      3  C   UNL     1       5.748   6.137  15.212  0.00  0.00    +0.000 A 
ATOM      4  C   UNL     1       4.946   6.631  16.243  0.00  0.00    +0.000 A 
ATOM      5  C   UNL     1       4.298   5.752  17.113  0.00  0.00    +0.000 A 
ATOM      6  O   UNL     1       3.528   6.329  18.092  0.00  0.00    +0.000 OA
ATOM      7  C   UNL     1       2.842   5.512  18.965  0.00  0.00    +0.000 A 
ATOM      8  C   UNL     1       2.046   6.147  19.947  0.00  0.00    +0.000 A 
ATOM      9  C   UNL     1       1.390   5.335  20.885  0.00  0.00    +0.000 A 
ATOM     10  C   UNL     1       1.478   3.941  20.824  0.00  0.00    +0.000 A 
ATOM     11  C   UNL     1       2.245   3.327  19.837  0.00  0.00    +0.000 A 
ATOM     12  C   UNL     1       2.930   4.116  18.914  0.00  0.00    +0.000 A 
ATOM     13  C   UNL     1       3.768   3.481  17.879  0.00  0.00    +0.000 A 
ATOM     14  O   UNL     1       3.882   2.263  17.796  0.00  0.00    +0.000 OA
ATOM     15  C   UNL     1       4.461   4.382  16.946  0.00  0.00    +0.000 A 
ATOM     16  C   UNL     1       5.266   3.879  15.915  0.00  0.00    +0.000 A 
ENDROOT
BRANCH   8  17
ATOM     17  C   UNL     1       2.018   7.666  20.042  0.00  0.00    +0.000 C 
BRANCH  17  18
ATOM     18  C   UNL     1       1.223   8.321  21.160  0.00  0.00    +0.000 C 
ATOM     19  O   UNL     1       0.032   8.585  21.159  0.00  0.00    +0.000 OA
BRANCH  18  20
ATOM     20  O   UNL     1       2.009   8.604  22.233  0.00  0.00    +0.000 OA
ATOM     21  H   UNL     1       1.996   9.539  22.513  0.00  0.00    +0.000 HD
ENDBRANCH  18  20
ENDBRANCH  17  18
ENDBRANCH   8  17
TORSDOF 3
ENDMDL
MODEL 2
REMARK VINA RESULT:      -7.4      2.009      3.780
REMARK  Name = 
REMARK  4 active torsions:
REMARK  status: ('A' for Active; 'I' for Inactive)
REMARK    1  A    between atoms: C_1  and  C_2
REMARK    2  A    between atoms: C_8  and  C_9
REMARK    3  A    between atoms: C_9  and  C_10
REMARK    4  A    between atoms: C_10  and  O_12
REMARK                            x       y       z     vdW  Elec       q    Type
REMARK                         _______ _______ _______ _____ _____    ______ ____
ROOT
ATOM      1  C   UNL     1       7.090   5.197  13.926  0.00  0.00    +0.000 C 
ATOM      2  C   UNL     1       6.150   4.883  15.054  0.00  0.00    +0.000 A 
ATOM      3  C   UNL     1       5.874   3.558  15.408  0.00  0.00    +0.000 A 
ATOM      4  C   UNL     1       4.999   3.269  16.458  0.00  0.00    +0.000 A 
ATOM      5  C   UNL     1       4.390   4.304  17.170  0.00  0.00    +0.000 A 
ATOM      6  O   UNL     1       3.550   3.925  18.188  0.00  0.00    +0.000 OA
ATOM      7  C   UNL     1       2.940   4.901  18.945  0.00  0.00    +0.000 A 
ATOM      8  C   UNL     1       2.096   4.466  19.994  0.00  0.00    +0.000 A 
ATOM      9  C   UNL     1       1.416   5.444  20.737  0.00  0.00    +0.000 A 
ATOM     10  C   UNL     1       1.601   6.807  20.482  0.00  0.00    +0.000 A 
ATOM     11  C   UNL     1       2.453   7.222  19.462  0.00  0.00    +0.000 A 
ATOM     12  C   UNL     1       3.116   6.267  18.693  0.00  0.00    +0.000 A 
ATOM     13  C   UNL     1       4.001   6.691  17.591  0.00  0.00    +0.000 A 
ATOM     14  O   UNL     1       4.183   7.874  17.326  0.00  0.00    +0.000 OA
ATOM     15  C   UNL     1       4.659   5.623  16.824  0.00  0.00    +0.000 A 
ATOM     16  C   UNL     1       5.534   5.920  15.771  0.00  0.00    +0.000 A 
ENDROOT
BRANCH   8  17
ATOM     17  C   UNL     1       1.852   2.980  20.211  0.00  0.00    +0.000 C 
BRANCH  17  18
ATOM     18  C   UNL     1       1.310   2.146  19.061  0.00  0.00    +0.000 C 
ATOM     19  O   UNL     1       0.175   2.155  18.616  0.00  0.00    +0.000 OA
BRANCH  18  20
ATOM     20  O   UNL     1       2.269   1.335  18.536  0.00  0.00    +0.000 OA
ATOM     21  H   UNL     1       2.061   0.382  18.574  0.00  0.00    +0.000 HD
ENDBRANCH  18  20
ENDBRANCH  17  18
ENDBRANCH   8  17
TORSDOF 3
ENDMDL
MODEL 3
REMARK VINA RESULT:      -7.3      0.919      1.167
REMARK  Name = 
REMARK  4 active torsions:
REMARK  status: ('A' for Active; 'I' for Inactive)
REMARK    1  A    between atoms: C_1  and  C_2
REMARK    2  A    between atoms: C_8  and  C_9
REMARK    3  A    between atoms: C_9  and  C_10
REMARK    4  A    between atoms: C_10  and  O_12
REMARK                            x       y       z     vdW  Elec       q    Type
REMARK                         _______ _______ _______ _____ _____    ______ ____
ROOT
ATOM      1  C   UNL     1       6.616   4.031  13.868  0.00  0.00    +0.000 C 
ATOM      2  C   UNL     1       5.812   4.614  14.993  0.00  0.00    +0.000 A 
ATOM      3  C   UNL     1       5.813   5.992  15.235  0.00  0.00    +0.000 A 
ATOM      4  C   UNL     1       5.063   6.531  16.283  0.00  0.00    +0.000 A 
ATOM      5  C   UNL     1       4.298   5.698  17.102  0.00  0.00    +0.000 A 
ATOM      6  O   UNL     1       3.591   6.317  18.102  0.00  0.00    +0.000 OA
ATOM      7  C   UNL     1       2.795   5.550  18.927  0.00  0.00    +0.000 A 
ATOM      8  C   UNL     1       2.070   6.231  19.933  0.00  0.00    +0.000 A 
ATOM      9  C   UNL     1       1.304   5.462  20.822  0.00  0.00    +0.000 A 
ATOM     10  C   UNL     1       1.220   4.072  20.691  0.00  0.00    +0.000 A 
ATOM     11  C   UNL     1       1.919   3.417  19.682  0.00  0.00    +0.000 A 
ATOM     12  C   UNL     1       2.710   4.159  18.805  0.00  0.00    +0.000 A 
ATOM     13  C   UNL     1       3.478   3.476  17.746  0.00  0.00    +0.000 A 
ATOM     14  O   UNL     1       3.442   2.259  17.603  0.00  0.00    +0.000 OA
ATOM     15  C   UNL     1       4.292   4.328  16.867  0.00  0.00    +0.000 A 
ATOM     16  C   UNL     1       5.043   3.780  15.819  0.00  0.00    +0.000 A 
ENDROOT
BRANCH   8  17
ATOM     17  C   UNL     1       2.230   7.734  20.104  0.00  0.00    +0.000 C 
BRANCH  17  18
ATOM     18  C   UNL     1       1.416   8.668  19.220  0.00  0.00    +0.000 C 
ATOM     19  O   UNL     1       0.565   9.464  19.578  0.00  0.00    +0.000 OA
BRANCH  18  20
ATOM     20  O   UNL     1       1.745   8.527  17.908  0.00  0.00    +0.000 OA
ATOM     21  H   UNL     1       2.091   9.335  17.485  0.00  0.00    +0.000 HD
ENDBRANCH  18  20
ENDBRANCH  17  18
ENDBRANCH   8  17
TORSDOF 3
ENDMDL
MODEL 4
REMARK VINA RESULT:      -7.3      2.815      7.018
REMARK  Name = 
REMARK  4 active torsions:
REMARK  status: ('A' for Active; 'I' for Inactive)
REMARK    1  A    between atoms: C_1  and  C_2
REMARK    2  A    between atoms: C_8  and  C_9
REMARK    3  A    between atoms: C_9  and  C_10
REMARK    4  A    between atoms: C_10  and  O_12
REMARK                            x       y       z     vdW  Elec       q    Type
REMARK                         _______ _______ _______ _____ _____    ______ ____
ROOT
ATOM      1  C   UNL     1       1.175   2.893  21.159  0.00  0.00    +0.000 C 
ATOM      2  C   UNL     1       1.962   3.086  19.895  0.00  0.00    +0.000 A 
ATOM      3  C   UNL     1       1.532   2.519  18.691  0.00  0.00    +0.000 A 
ATOM      4  C   UNL     1       2.266   2.701  17.516  0.00  0.00    +0.000 A 
ATOM      5  C   UNL     1       3.439   3.456  17.530  0.00  0.00    +0.000 A 
ATOM      6  O   UNL     1       4.091   3.585  16.328  0.00  0.00    +0.000 OA
ATOM      7  C   UNL     1       5.241   4.341  16.273  0.00  0.00    +0.000 A 
ATOM      8  C   UNL     1       5.870   4.462  15.012  0.00  0.00    +0.000 A 
ATOM      9  C   UNL     1       7.077   5.176  14.946  0.00  0.00    +0.000 A 
ATOM     10  C   UNL     1       7.618   5.791  16.080  0.00  0.00    +0.000 A 
ATOM     11  C   UNL     1       6.976   5.685  17.311  0.00  0.00    +0.000 A 
ATOM     12  C   UNL     1       5.791   4.955  17.404  0.00  0.00    +0.000 A 
ATOM     13  C   UNL     1       5.113   4.812  18.707  0.00  0.00    +0.000 A 
ATOM     14  O   UNL     1       5.559   5.325  19.728  0.00  0.00    +0.000 OA
ATOM     15  C   UNL     1       3.873   4.023  18.723  0.00  0.00    +0.000 A 
ATOM     16  C   UNL     1       3.143   3.844  19.906  0.00  0.00    +0.000 A 
ENDROOT
BRANCH   8  17
ATOM     17  C   UNL     1       5.306   3.728  13.804  0.00  0.00    +0.000 C 
BRANCH  17  18
ATOM     18  C   UNL     1       6.209   3.473  12.608  0.00  0.00    +0.000 C 
ATOM     19  O   UNL     1       7.066   4.216  12.161  0.00  0.00    +0.000 OA
BRANCH  18  20
ATOM     20  O   UNL     1       5.959   2.261  12.042  0.00  0.00    +0.000 OA
ATOM     21  H   UNL     1       5.303   1.716  12.517  0.00  0.00    +0.000 HD
ENDBRANCH  18  20
ENDBRANCH  17  18
ENDBRANCH   8  17
TORSDOF 3
ENDMDL
MODEL 5
REMARK VINA RESULT:      -7.3      2.779      7.253
REMARK  Name = 
REMARK  4 active torsions:
REMARK  status: ('A' for Active; 'I' for Inactive)
REMARK    1  A    between atoms: C_1  and  C_2
REMARK    2  A    between atoms: C_8  and  C_9
REMARK    3  A    between atoms: C_9  and  C_10
REMARK    4  A    between atoms: C_10  and  O_12
REMARK                            x       y       z     vdW  Elec       q    Type
REMARK                         _______ _______ _______ _____ _____    ______ ____
ROOT
ATOM      1  C   UNL     1      -1.352  12.592  22.455  0.00  0.00    +0.000 C 
ATOM      2  C   UNL     1      -0.684  11.285  22.141  0.00  0.00    +0.000 A 
ATOM      3  C   UNL     1      -0.685  10.239  23.072  0.00  0.00    +0.000 A 
ATOM      4  C   UNL     1      -0.062   9.024  22.776  0.00  0.00    +0.000 A 
ATOM      5  C   UNL     1       0.566   8.836  21.544  0.00  0.00    +0.000 A 
ATOM      6  O   UNL     1       1.146   7.609  21.342  0.00  0.00    +0.000 OA
ATOM      7  C   UNL     1       1.760   7.354  20.134  0.00  0.00    +0.000 A 
ATOM      8  C   UNL     1       2.328   6.071  19.961  0.00  0.00    +0.000 A 
ATOM      9  C   UNL     1       3.012   5.813  18.762  0.00  0.00    +0.000 A 
ATOM     10  C   UNL     1       3.089   6.775  17.750  0.00  0.00    +0.000 A 
ATOM     11  C   UNL     1       2.504   8.026  17.923  0.00  0.00    +0.000 A 
ATOM     12  C   UNL     1       1.845   8.314  19.118  0.00  0.00    +0.000 A 
ATOM     13  C   UNL     1       1.242   9.644  19.327  0.00  0.00    +0.000 A 
ATOM     14  O   UNL     1       1.296  10.520  18.471  0.00  0.00    +0.000 OA
ATOM     15  C   UNL     1       0.571   9.871  20.615  0.00  0.00    +0.000 A 
ATOM     16  C   UNL     1      -0.050  11.093  20.905  0.00  0.00    +0.000 A 
ENDROOT
BRANCH   8  17
ATOM     17  C   UNL     1       2.296   5.062  21.099  0.00  0.00    +0.000 C 
BRANCH  17  18
ATOM     18  C   UNL     1       1.475   3.792  20.937  0.00  0.00    +0.000 C 
ATOM     19  O   UNL     1       0.654   3.553  20.068  0.00  0.00    +0.000 OA
BRANCH  18  20
ATOM     20  O   UNL     1       1.756   2.887  21.912  0.00  0.00    +0.000 OA
ATOM     21  H   UNL     1       1.036   2.256  22.103  0.00  0.00    +0.000 HD
ENDBRANCH  18  20
ENDBRANCH  17  18
ENDBRANCH   8  17
TORSDOF 3
ENDMDL
MODEL 6
REMARK VINA RESULT:      -7.3      2.183      6.177
REMARK  Name = 
REMARK  4 active torsions:
REMARK  status: ('A' for Active; 'I' for Inactive)
REMARK    1  A    between atoms: C_1  and  C_2
REMARK    2  A    between atoms: C_8  and  C_9
REMARK    3  A    between atoms: C_9  and  C_10
REMARK    4  A    between atoms: C_10  and  O_12
REMARK                            x       y       z     vdW  Elec       q    Type
REMARK                         _______ _______ _______ _____ _____    ______ ____
ROOT
ATOM      1  C   UNL     1      -0.164  10.545  20.510  0.00  0.00    +0.000 C 
ATOM      2  C   UNL     1       0.775   9.667  19.734  0.00  0.00    +0.000 A 
ATOM      3  C   UNL     1       1.357  10.119  18.544  0.00  0.00    +0.000 A 
ATOM      4  C   UNL     1       2.231   9.300  17.825  0.00  0.00    +0.000 A 
ATOM      5  C   UNL     1       2.537   8.019  18.288  0.00  0.00    +0.000 A 
ATOM      6  O   UNL     1       3.408   7.289  17.517  0.00  0.00    +0.000 OA
ATOM      7  C   UNL     1       3.769   6.027  17.937  0.00  0.00    +0.000 A 
ATOM      8  C   UNL     1       4.682   5.317  17.122  0.00  0.00    +0.000 A 
ATOM      9  C   UNL     1       5.014   4.006  17.499  0.00  0.00    +0.000 A 
ATOM     10  C   UNL     1       4.498   3.434  18.666  0.00  0.00    +0.000 A 
ATOM     11  C   UNL     1       3.619   4.153  19.472  0.00  0.00    +0.000 A 
ATOM     12  C   UNL     1       3.253   5.446  19.101  0.00  0.00    +0.000 A 
ATOM     13  C   UNL     1       2.301   6.210  19.930  0.00  0.00    +0.000 A 
ATOM     14  O   UNL     1       1.816   5.743  20.955  0.00  0.00    +0.000 OA
ATOM     15  C   UNL     1       1.962   7.564  19.469  0.00  0.00    +0.000 A 
ATOM     16  C   UNL     1       1.083   8.379  20.195  0.00  0.00    +0.000 A 
ENDROOT
BRANCH   8  17
ATOM     17  C   UNL     1       5.178   5.928  15.820  0.00  0.00    +0.000 C 
BRANCH  17  18
ATOM     18  C   UNL     1       6.250   5.200  15.025  0.00  0.00    +0.000 C 
ATOM     19  O   UNL     1       7.458   5.322  15.134  0.00  0.00    +0.000 OA
BRANCH  18  20
ATOM     20  O   UNL     1       5.705   4.342  14.120  0.00  0.00    +0.000 OA
ATOM     21  H   UNL     1       4.761   4.496  13.929  0.00  0.00    +0.000 HD
ENDBRANCH  18  20
ENDBRANCH  17  18
ENDBRANCH   8  17
TORSDOF 3
ENDMDL
MODEL 7
REMARK VINA RESULT:      -7.2      2.005      3.548
REMARK  Name = 
REMARK  4 active torsions:
REMARK  status: ('A' for Active; 'I' for Inactive)
REMARK    1  A    between atoms: C_1  and  C_2
REMARK    2  A    between atoms: C_8  and  C_9
REMARK    3  A    between atoms: C_9  and  C_10
REMARK    4  A    between atoms: C_10  and  O_12
REMARK                            x       y       z     vdW  Elec       q    Type
REMARK                         _______ _______ _______ _____ _____    ______ ____
ROOT
ATOM      1  C   UNL     1       7.026   5.126  14.028  0.00  0.00    +0.000 C 
ATOM      2  C   UNL     1       6.059   4.873  15.148  0.00  0.00    +0.000 A 
ATOM      3  C   UNL     1       5.741   3.567  15.537  0.00  0.00    +0.000 A 
ATOM      4  C   UNL     1       4.841   3.336  16.580  0.00  0.00    +0.000 A 
ATOM      5  C   UNL     1       4.249   4.408  17.250  0.00  0.00    +0.000 A 
ATOM      6  O   UNL     1       3.382   4.083  18.263  0.00  0.00    +0.000 OA
ATOM      7  C   UNL     1       2.786   5.099  18.980  0.00  0.00    +0.000 A 
ATOM      8  C   UNL     1       1.913   4.720  20.027  0.00  0.00    +0.000 A 
ATOM      9  C   UNL     1       1.248   5.738  20.727  0.00  0.00    +0.000 A 
ATOM     10  C   UNL     1       1.475   7.087  20.433  0.00  0.00    +0.000 A 
ATOM     11  C   UNL     1       2.355   7.447  19.416  0.00  0.00    +0.000 A 
ATOM     12  C   UNL     1       3.004   6.450  18.689  0.00  0.00    +0.000 A 
ATOM     13  C   UNL     1       3.919   6.816  17.591  0.00  0.00    +0.000 A 
ATOM     14  O   UNL     1       4.138   7.985  17.293  0.00  0.00    +0.000 OA
ATOM     15  C   UNL     1       4.560   5.708  16.868  0.00  0.00    +0.000 A 
ATOM     16  C   UNL     1       5.460   5.948  15.822  0.00  0.00    +0.000 A 
ENDROOT
BRANCH   8  17
ATOM     17  C   UNL     1       1.625   3.248  20.284  0.00  0.00    +0.000 C 
BRANCH  17  18
ATOM     18  C   UNL     1       2.013   2.644  21.625  0.00  0.00    +0.000 C 
ATOM     19  O   UNL     1       3.122   2.274  21.972  0.00  0.00    +0.000 OA
BRANCH  18  20
ATOM     20  O   UNL     1       0.943   2.549  22.459  0.00  0.00    +0.000 OA
ATOM     21  H   UNL     1       0.075   2.620  22.019  0.00  0.00    +0.000 HD
ENDBRANCH  18  20
ENDBRANCH  17  18
ENDBRANCH   8  17
TORSDOF 3
ENDMDL
MODEL 8
REMARK VINA RESULT:      -7.2      2.013      5.712
REMARK  Name = 
REMARK  4 active torsions:
REMARK  status: ('A' for Active; 'I' for Inactive)
REMARK    1  A    between atoms: C_1  and  C_2
REMARK    2  A    between atoms: C_8  and  C_9
REMARK    3  A    between atoms: C_9  and  C_10
REMARK    4  A    between atoms: C_10  and  O_12
REMARK                            x       y       z     vdW  Elec       q    Type
REMARK                         _______ _______ _______ _____ _____    ______ ____
ROOT
ATOM      1  C   UNL     1       0.526  10.398  20.307  0.00  0.00    +0.000 C 
ATOM      2  C   UNL     1       1.291   9.317  19.601  0.00  0.00    +0.000 A 
ATOM      3  C   UNL     1       1.890   9.557  18.359  0.00  0.00    +0.000 A 
ATOM      4  C   UNL     1       2.602   8.548  17.706  0.00  0.00    +0.000 A 
ATOM      5  C   UNL     1       2.727   7.286  18.287  0.00  0.00    +0.000 A 
ATOM      6  O   UNL     1       3.448   6.360  17.574  0.00  0.00    +0.000 OA
ATOM      7  C   UNL     1       3.629   5.103  18.109  0.00  0.00    +0.000 A 
ATOM      8  C   UNL     1       4.394   4.186  17.350  0.00  0.00    +0.000 A 
ATOM      9  C   UNL     1       4.537   2.882  17.847  0.00  0.00    +0.000 A 
ATOM     10  C   UNL     1       3.985   2.511  19.077  0.00  0.00    +0.000 A 
ATOM     11  C   UNL     1       3.255   3.430  19.827  0.00  0.00    +0.000 A 
ATOM     12  C   UNL     1       3.076   4.723  19.337  0.00  0.00    +0.000 A 
ATOM     13  C   UNL     1       2.283   5.700  20.107  0.00  0.00    +0.000 A 
ATOM     14  O   UNL     1       1.772   5.413  21.185  0.00  0.00    +0.000 OA
ATOM     15  C   UNL     1       2.135   7.040  19.521  0.00  0.00    +0.000 A 
ATOM     16  C   UNL     1       1.418   8.046  20.182  0.00  0.00    +0.000 A 
ENDROOT
BRANCH   8  17
ATOM     17  C   UNL     1       4.927   4.587  15.982  0.00  0.00    +0.000 C 
BRANCH  17  18
ATOM     18  C   UNL     1       6.268   5.298  15.892  0.00  0.00    +0.000 C 
ATOM     19  O   UNL     1       7.368   4.783  15.788  0.00  0.00    +0.000 OA
BRANCH  18  20
ATOM     20  O   UNL     1       6.122   6.649  15.942  0.00  0.00    +0.000 OA
ATOM     21  H   UNL     1       5.241   6.974  15.678  0.00  0.00    +0.000 HD
ENDBRANCH  18  20
ENDBRANCH  17  18
ENDBRANCH   8  17
TORSDOF 3
ENDMDL
MODEL 9
REMARK VINA RESULT:      -7.1      3.104      4.671
REMARK  Name = 
REMARK  4 active torsions:
REMARK  status: ('A' for Active; 'I' for Inactive)
REMARK    1  A    between atoms: C_1  and  C_2
REMARK    2  A    between atoms: C_8  and  C_9
REMARK    3  A    between atoms: C_9  and  C_10
REMARK    4  A    between atoms: C_10  and  O_12
REMARK                            x       y       z     vdW  Elec       q    Type
REMARK                         _______ _______ _______ _____ _____    ______ ____
ROOT
ATOM      1  C   UNL     1       8.277   8.927  17.650  0.00  0.00    +0.000 C 
ATOM      2  C   UNL     1       7.513   7.671  17.953  0.00  0.00    +0.000 A 
ATOM      3  C   UNL     1       8.145   6.577  18.555  0.00  0.00    +0.000 A 
ATOM      4  C   UNL     1       7.431   5.409  18.836  0.00  0.00    +0.000 A 
ATOM      5  C   UNL     1       6.074   5.322  18.522  0.00  0.00    +0.000 A 
ATOM      6  O   UNL     1       5.454   4.138  18.839  0.00  0.00    +0.000 OA
ATOM      7  C   UNL     1       4.108   4.002  18.577  0.00  0.00    +0.000 A 
ATOM      8  C   UNL     1       3.506   2.773  18.936  0.00  0.00    +0.000 A 
ATOM      9  C   UNL     1       2.151   2.590  18.621  0.00  0.00    +0.000 A 
ATOM     10  C   UNL     1       1.404   3.606  18.015  0.00  0.00    +0.000 A 
ATOM     11  C   UNL     1       2.003   4.820  17.689  0.00  0.00    +0.000 A 
ATOM     12  C   UNL     1       3.356   5.011  17.967  0.00  0.00    +0.000 A 
ATOM     13  C   UNL     1       4.010   6.283  17.603  0.00  0.00    +0.000 A 
ATOM     14  O   UNL     1       3.396   7.195  17.061  0.00  0.00    +0.000 OA
ATOM     15  C   UNL     1       5.440   6.405  17.924  0.00  0.00    +0.000 A 
ATOM     16  C   UNL     1       6.150   7.579  17.637  0.00  0.00    +0.000 A 
ENDROOT
BRANCH   8  17
ATOM     17  C   UNL     1       4.350   1.654  19.530  0.00  0.00    +0.000 C 
BRANCH  17  18
ATOM     18  C   UNL     1       4.594   1.631  21.031  0.00  0.00    +0.000 C 
ATOM     19  O   UNL     1       5.590   1.231  21.608  0.00  0.00    +0.000 OA
BRANCH  18  20
ATOM     20  O   UNL     1       3.531   2.130  21.718  0.00  0.00    +0.000 OA
ATOM     21  H   UNL     1       2.722   2.253  21.185  0.00  0.00    +0.000 HD
ENDBRANCH  18  20
ENDBRANCH  17  18
ENDBRANCH   8  17
TORSDOF 3
ENDMDL
