MODEL 1
REMARK VINA RESULT:      -6.9      0.000      0.000
REMARK  Name = 
REMARK  6 active torsions:
REMARK  status: ('A' for Active; 'I' for Inactive)
REMARK    1  A    between atoms: C_1  and  N_2
REMARK    2  A    between atoms: N_2  and  C_3
REMARK    3  A    between atoms: N_2  and  C_4
REMARK    4  A    between atoms: C_7  and  C_8
REMARK    5  A    between atoms: C_9  and  C_10
REMARK    6  A    between atoms: C_9  and  C_12
REMARK                            x       y       z     vdW  Elec       q    Type
REMARK                         _______ _______ _______ _____ _____    ______ ____
ROOT
ATOM      1  C   UNL     1       3.434   7.399  17.998  0.00  0.00    +0.000 C 
ATOM      2  C   UNL     1       3.507   6.084  17.705  0.00  0.00    +0.000 C 
ENDROOT
BRANCH   2   3
ATOM      3  C   UNL     1       4.799   5.566  17.215  0.00  0.00    +0.000 A 
ATOM      4  C   UNL     1       5.039   5.487  15.835  0.00  0.00    +0.000 A 
ATOM      5  C   UNL     1       6.239   4.953  15.357  0.00  0.00    +0.000 A 
ATOM      6  C   UNL     1       7.209   4.499  16.251  0.00  0.00    +0.000 A 
ATOM      7  C   UNL     1       6.987   4.592  17.626  0.00  0.00    +0.000 A 
ATOM      8  C   UNL     1       5.789   5.124  18.098  0.00  0.00    +0.000 A 
ATOM      9  F   UNL     1       5.595   5.201  19.422  0.00  0.00    +0.000 F 
ENDBRANCH   2   3
BRANCH   1  13
ATOM     10  C   UNL     1       0.208   9.791  19.666  0.00  0.00    +0.000 A 
ATOM     11  C   UNL     1       0.579   9.851  18.315  0.00  0.00    +0.000 A 
ATOM     12  C   UNL     1       1.622   9.066  17.794  0.00  0.00    +0.000 A 
ATOM     13  C   UNL     1       2.326   8.166  18.602  0.00  0.00    +0.000 A 
ATOM     14  C   UNL     1       1.901   8.022  19.920  0.00  0.00    +0.000 A 
ATOM     15  C   UNL     1       0.875   8.828  20.439  0.00  0.00    +0.000 A 
BRANCH  10  17
ATOM     16  C   UNL     1      -1.565  11.486  19.352  0.00  0.00    +0.000 C 
ATOM     17  N   UNL     1      -0.784  10.611  20.220  0.00  0.00    +0.000 N 
ATOM     18  C   UNL     1      -0.553  11.096  21.582  0.00  0.00    +0.000 C 
ENDBRANCH  10  17
ENDBRANCH   1  13
BRANCH   2  19
ATOM     19  C   UNL     1       2.454   5.142  17.913  0.00  0.00    +0.000 C 
ATOM     20  N   UNL     1       1.604   4.375  18.098  0.00  0.00    +0.000 NA
ENDBRANCH   2  19
TORSDOF 4
ENDMDL
MODEL 2
REMARK VINA RESULT:      -6.7      0.241      1.087
REMARK  Name = 
REMARK  6 active torsions:
REMARK  status: ('A' for Active; 'I' for Inactive)
REMARK    1  A    between atoms: C_1  and  N_2
REMARK    2  A    between atoms: N_2  and  C_3
REMARK    3  A    between atoms: N_2  and  C_4
REMARK    4  A    between atoms: C_7  and  C_8
REMARK    5  A    between atoms: C_9  and  C_10
REMARK    6  A    between atoms: C_9  and  C_12
REMARK                            x       y       z     vdW  Elec       q    Type
REMARK                         _______ _______ _______ _____ _____    ______ ____
ROOT
ATOM      1  C   UNL     1       3.554   7.407  17.811  0.00  0.00    +0.000 C 
ATOM      2  C   UNL     1       3.597   6.072  17.617  0.00  0.00    +0.000 C 
ENDROOT
BRANCH   2   3
ATOM      3  C   UNL     1       4.859   5.498  17.112  0.00  0.00    +0.000 A 
ATOM      4  C   UNL     1       5.000   5.222  15.745  0.00  0.00    +0.000 A 
ATOM      5  C   UNL     1       6.171   4.633  15.260  0.00  0.00    +0.000 A 
ATOM      6  C   UNL     1       7.211   4.319  16.136  0.00  0.00    +0.000 A 
ATOM      7  C   UNL     1       7.088   4.608  17.495  0.00  0.00    +0.000 A 
ATOM      8  C   UNL     1       5.918   5.195  17.974  0.00  0.00    +0.000 A 
ATOM      9  F   UNL     1       5.819   5.461  19.284  0.00  0.00    +0.000 F 
ENDBRANCH   2   3
BRANCH   1  13
ATOM     10  C   UNL     1       0.353   9.705  19.650  0.00  0.00    +0.000 A 
ATOM     11  C   UNL     1       1.067   8.713  20.336  0.00  0.00    +0.000 A 
ATOM     12  C   UNL     1       2.102   7.984  19.725  0.00  0.00    +0.000 A 
ATOM     13  C   UNL     1       2.484   8.235  18.402  0.00  0.00    +0.000 A 
ATOM     14  C   UNL     1       1.852   9.286  17.743  0.00  0.00    +0.000 A 
ATOM     15  C   UNL     1       0.802   9.993  18.352  0.00  0.00    +0.000 A 
BRANCH  10  17
ATOM     16  C   UNL     1      -1.547  11.264  19.379  0.00  0.00    +0.000 C 
ATOM     17  N   UNL     1      -0.725  10.398  20.217  0.00  0.00    +0.000 N 
ATOM     18  C   UNL     1      -0.586  10.803  21.618  0.00  0.00    +0.000 C 
ENDBRANCH  10  17
ENDBRANCH   1  13
BRANCH   2  19
ATOM     19  C   UNL     1       2.543   5.166  17.944  0.00  0.00    +0.000 C 
ATOM     20  N   UNL     1       1.689   4.423  18.194  0.00  0.00    +0.000 NA
ENDBRANCH   2  19
TORSDOF 4
ENDMDL
MODEL 3
REMARK VINA RESULT:      -6.6      1.240      1.412
REMARK  Name = 
REMARK  6 active torsions:
REMARK  status: ('A' for Active; 'I' for Inactive)
REMARK    1  A    between atoms: C_1  and  N_2
REMARK    2  A    between atoms: N_2  and  C_3
REMARK    3  A    between atoms: N_2  and  C_4
REMARK    4  A    between atoms: C_7  and  C_8
REMARK    5  A    between atoms: C_9  and  C_10
REMARK    6  A    between atoms: C_9  and  C_12
REMARK                            x       y       z     vdW  Elec       q    Type
REMARK                         _______ _______ _______ _____ _____    ______ ____
ROOT
ATOM      1  C   UNL     1       3.208   7.371  17.903  0.00  0.00    +0.000 C 
ATOM      2  C   UNL     1       3.655   6.135  18.211  0.00  0.00    +0.000 C 
ENDROOT
BRANCH   2   3
ATOM      3  C   UNL     1       4.781   5.602  17.421  0.00  0.00    +0.000 A 
ATOM      4  C   UNL     1       6.007   6.285  17.408  0.00  0.00    +0.000 A 
ATOM      5  C   UNL     1       7.066   5.818  16.625  0.00  0.00    +0.000 A 
ATOM      6  C   UNL     1       6.913   4.666  15.854  0.00  0.00    +0.000 A 
ATOM      7  C   UNL     1       5.704   3.969  15.876  0.00  0.00    +0.000 A 
ATOM      8  C   UNL     1       4.650   4.439  16.657  0.00  0.00    +0.000 A 
ATOM      9  F   UNL     1       3.496   3.756  16.661  0.00  0.00    +0.000 F 
ENDBRANCH   2   3
BRANCH   1  13
ATOM     10  C   UNL     1       0.233   9.927  19.781  0.00  0.00    +0.000 A 
ATOM     11  C   UNL     1       0.478   9.933  18.401  0.00  0.00    +0.000 A 
ATOM     12  C   UNL     1       1.441   9.095  17.812  0.00  0.00    +0.000 A 
ATOM     13  C   UNL     1       2.187   8.195  18.581  0.00  0.00    +0.000 A 
ATOM     14  C   UNL     1       1.883   8.106  19.937  0.00  0.00    +0.000 A 
ATOM     15  C   UNL     1       0.936   8.964  20.521  0.00  0.00    +0.000 A 
BRANCH  10  17
ATOM     16  C   UNL     1      -1.225  11.919  19.642  0.00  0.00    +0.000 C 
ATOM     17  N   UNL     1      -0.675  10.798  20.397  0.00  0.00    +0.000 N 
ATOM     18  C   UNL     1      -0.511  11.013  21.836  0.00  0.00    +0.000 C 
ENDBRANCH  10  17
ENDBRANCH   1  13
BRANCH   2  19
ATOM     19  C   UNL     1       3.176   5.341  19.297  0.00  0.00    +0.000 C 
ATOM     20  N   UNL     1       2.788   4.711  20.190  0.00  0.00    +0.000 NA
ENDBRANCH   2  19
TORSDOF 4
ENDMDL
MODEL 4
REMARK VINA RESULT:      -6.5      1.082      1.502
REMARK  Name = 
REMARK  6 active torsions:
REMARK  status: ('A' for Active; 'I' for Inactive)
REMARK    1  A    between atoms: C_1  and  N_2
REMARK    2  A    between atoms: N_2  and  C_3
REMARK    3  A    between atoms: N_2  and  C_4
REMARK    4  A    between atoms: C_7  and  C_8
REMARK    5  A    between atoms: C_9  and  C_10
REMARK    6  A    between atoms: C_9  and  C_12
REMARK                            x       y       z     vdW  Elec       q    Type
REMARK                         _______ _______ _______ _____ _____    ______ ____
ROOT
ATOM      1  C   UNL     1       3.424   7.536  18.113  0.00  0.00    +0.000 C 
ATOM      2  C   UNL     1       3.509   6.226  17.800  0.00  0.00    +0.000 C 
ENDROOT
BRANCH   2   3
ATOM      3  C   UNL     1       4.838   5.699  17.432  0.00  0.00    +0.000 A 
ATOM      4  C   UNL     1       5.565   4.937  18.359  0.00  0.00    +0.000 A 
ATOM      5  C   UNL     1       6.845   4.473  18.041  0.00  0.00    +0.000 A 
ATOM      6  C   UNL     1       7.406   4.762  16.797  0.00  0.00    +0.000 A 
ATOM      7  C   UNL     1       6.681   5.502  15.862  0.00  0.00    +0.000 A 
ATOM      8  C   UNL     1       5.406   5.963  16.183  0.00  0.00    +0.000 A 
ATOM      9  F   UNL     1       4.729   6.675  15.270  0.00  0.00    +0.000 F 
ENDBRANCH   2   3
BRANCH   1  13
ATOM     10  C   UNL     1       0.062   9.932  19.480  0.00  0.00    +0.000 A 
ATOM     11  C   UNL     1       0.477   9.898  18.141  0.00  0.00    +0.000 A 
ATOM     12  C   UNL     1       1.563   9.113  17.718  0.00  0.00    +0.000 A 
ATOM     13  C   UNL     1       2.270   8.307  18.618  0.00  0.00    +0.000 A 
ATOM     14  C   UNL     1       1.806   8.253  19.930  0.00  0.00    +0.000 A 
ATOM     15  C   UNL     1       0.736   9.059  20.349  0.00  0.00    +0.000 A 
BRANCH  10  17
ATOM     16  C   UNL     1      -1.874  11.382  18.972  0.00  0.00    +0.000 C 
ATOM     17  N   UNL     1      -0.975  10.756  19.935  0.00  0.00    +0.000 N 
ATOM     18  C   UNL     1      -0.728  11.509  21.167  0.00  0.00    +0.000 C 
ENDBRANCH  10  17
ENDBRANCH   1  13
BRANCH   2  19
ATOM     19  C   UNL     1       2.429   5.296  17.880  0.00  0.00    +0.000 C 
ATOM     20  N   UNL     1       1.540   4.554  17.943  0.00  0.00    +0.000 NA
ENDBRANCH   2  19
TORSDOF 4
ENDMDL
MODEL 5
REMARK VINA RESULT:      -6.4      1.167      1.714
REMARK  Name = 
REMARK  6 active torsions:
REMARK  status: ('A' for Active; 'I' for Inactive)
REMARK    1  A    between atoms: C_1  and  N_2
REMARK    2  A    between atoms: N_2  and  C_3
REMARK    3  A    between atoms: N_2  and  C_4
REMARK    4  A    between atoms: C_7  and  C_8
REMARK    5  A    between atoms: C_9  and  C_10
REMARK    6  A    between atoms: C_9  and  C_12
REMARK                            x       y       z     vdW  Elec       q    Type
REMARK                         _______ _______ _______ _____ _____    ______ ____
ROOT
ATOM      1  C   UNL     1       3.190   7.468  17.821  0.00  0.00    +0.000 C 
ATOM      2  C   UNL     1       3.431   6.153  18.008  0.00  0.00    +0.000 C 
ENDROOT
BRANCH   2   3
ATOM      3  C   UNL     1       4.604   5.573  17.325  0.00  0.00    +0.000 A 
ATOM      4  C   UNL     1       5.834   6.245  17.363  0.00  0.00    +0.000 A 
ATOM      5  C   UNL     1       6.940   5.731  16.679  0.00  0.00    +0.000 A 
ATOM      6  C   UNL     1       6.827   4.542  15.958  0.00  0.00    +0.000 A 
ATOM      7  C   UNL     1       5.613   3.856  15.932  0.00  0.00    +0.000 A 
ATOM      8  C   UNL     1       4.512   4.373  16.614  0.00  0.00    +0.000 A 
ATOM      9  F   UNL     1       3.354   3.699  16.573  0.00  0.00    +0.000 F 
ENDBRANCH   2   3
BRANCH   1  13
ATOM     10  C   UNL     1       0.166   9.889  19.798  0.00  0.00    +0.000 A 
ATOM     11  C   UNL     1       0.992   8.992  20.489  0.00  0.00    +0.000 A 
ATOM     12  C   UNL     1       1.968   8.222  19.832  0.00  0.00    +0.000 A 
ATOM     13  C   UNL     1       2.174   8.334  18.452  0.00  0.00    +0.000 A 
ATOM     14  C   UNL     1       1.431   9.294  17.770  0.00  0.00    +0.000 A 
ATOM     15  C   UNL     1       0.441  10.041  18.430  0.00  0.00    +0.000 A 
BRANCH  10  17
ATOM     16  C   UNL     1      -1.583  11.631  19.664  0.00  0.00    +0.000 C 
ATOM     17  N   UNL     1      -0.856  10.617  20.420  0.00  0.00    +0.000 N 
ATOM     18  C   UNL     1      -0.706  10.871  21.855  0.00  0.00    +0.000 C 
ENDBRANCH  10  17
ENDBRANCH   1  13
BRANCH   2  19
ATOM     19  C   UNL     1       2.688   5.303  18.882  0.00  0.00    +0.000 C 
ATOM     20  N   UNL     1       2.097   4.615  19.603  0.00  0.00    +0.000 NA
ENDBRANCH   2  19
TORSDOF 4
ENDMDL
MODEL 6
REMARK VINA RESULT:      -6.3      2.052      2.851
REMARK  Name = 
REMARK  6 active torsions:
REMARK  status: ('A' for Active; 'I' for Inactive)
REMARK    1  A    between atoms: C_1  and  N_2
REMARK    2  A    between atoms: N_2  and  C_3
REMARK    3  A    between atoms: N_2  and  C_4
REMARK    4  A    between atoms: C_7  and  C_8
REMARK    5  A    between atoms: C_9  and  C_10
REMARK    6  A    between atoms: C_9  and  C_12
REMARK                            x       y       z     vdW  Elec       q    Type
REMARK                         _______ _______ _______ _____ _____    ______ ____
ROOT
ATOM      1  C   UNL     1       2.146   8.641  17.743  0.00  0.00    +0.000 C 
ATOM      2  C   UNL     1       2.419   7.550  18.488  0.00  0.00    +0.000 C 
ENDROOT
BRANCH   2   3
ATOM      3  C   UNL     1       3.244   6.494  17.872  0.00  0.00    +0.000 A 
ATOM      4  C   UNL     1       4.477   6.824  17.290  0.00  0.00    +0.000 A 
ATOM      5  C   UNL     1       5.246   5.842  16.660  0.00  0.00    +0.000 A 
ATOM      6  C   UNL     1       4.793   4.523  16.609  0.00  0.00    +0.000 A 
ATOM      7  C   UNL     1       3.578   4.181  17.203  0.00  0.00    +0.000 A 
ATOM      8  C   UNL     1       2.814   5.164  17.830  0.00  0.00    +0.000 A 
ATOM      9  F   UNL     1       1.648   4.814  18.391  0.00  0.00    +0.000 F 
ENDBRANCH   2   3
BRANCH   1  13
ATOM     10  C   UNL     1      -0.041  12.259  18.766  0.00  0.00    +0.000 A 
ATOM     11  C   UNL     1      -0.669  11.020  18.570  0.00  0.00    +0.000 A 
ATOM     12  C   UNL     1       0.057   9.861  18.245  0.00  0.00    +0.000 A 
ATOM     13  C   UNL     1       1.450   9.887  18.123  0.00  0.00    +0.000 A 
ATOM     14  C   UNL     1       2.096  11.086  18.414  0.00  0.00    +0.000 A 
ATOM     15  C   UNL     1       1.361  12.246  18.714  0.00  0.00    +0.000 A 
BRANCH  10  17
ATOM     16  C   UNL     1      -0.115  14.730  18.780  0.00  0.00    +0.000 C 
ATOM     17  N   UNL     1      -0.750  13.439  19.026  0.00  0.00    +0.000 N 
ATOM     18  C   UNL     1      -1.720  13.398  20.121  0.00  0.00    +0.000 C 
ENDBRANCH  10  17
ENDBRANCH   1  13
BRANCH   2  19
ATOM     19  C   UNL     1       2.041   7.380  19.855  0.00  0.00    +0.000 C 
ATOM     20  N   UNL     1       1.724   7.229  20.960  0.00  0.00    +0.000 NA
ENDBRANCH   2  19
TORSDOF 4
ENDMDL
MODEL 7
REMARK VINA RESULT:      -6.3      2.090      2.877
REMARK  Name = 
REMARK  6 active torsions:
REMARK  status: ('A' for Active; 'I' for Inactive)
REMARK    1  A    between atoms: C_1  and  N_2
REMARK    2  A    between atoms: N_2  and  C_3
REMARK    3  A    between atoms: N_2  and  C_4
REMARK    4  A    between atoms: C_7  and  C_8
REMARK    5  A    between atoms: C_9  and  C_10
REMARK    6  A    between atoms: C_9  and  C_12
REMARK                            x       y       z     vdW  Elec       q    Type
REMARK                         _______ _______ _______ _____ _____    ______ ____
ROOT
ATOM      1  C   UNL     1       2.111   8.609  17.718  0.00  0.00    +0.000 C 
ATOM      2  C   UNL     1       2.401   7.548  18.501  0.00  0.00    +0.000 C 
ENDROOT
BRANCH   2   3
ATOM      3  C   UNL     1       3.237   6.481  17.919  0.00  0.00    +0.000 A 
ATOM      4  C   UNL     1       4.494   6.796  17.384  0.00  0.00    +0.000 A 
ATOM      5  C   UNL     1       5.276   5.803  16.785  0.00  0.00    +0.000 A 
ATOM      6  C   UNL     1       4.810   4.490  16.721  0.00  0.00    +0.000 A 
ATOM      7  C   UNL     1       3.569   4.163  17.269  0.00  0.00    +0.000 A 
ATOM      8  C   UNL     1       2.793   5.156  17.864  0.00  0.00    +0.000 A 
ATOM      9  F   UNL     1       1.603   4.821  18.382  0.00  0.00    +0.000 F 
ENDBRANCH   2   3
BRANCH   1  13
ATOM     10  C   UNL     1       0.165  12.343  18.806  0.00  0.00    +0.000 A 
ATOM     11  C   UNL     1       1.542  12.247  18.560  0.00  0.00    +0.000 A 
ATOM     12  C   UNL     1       2.151  11.031  18.205  0.00  0.00    +0.000 A 
ATOM     13  C   UNL     1       1.401   9.859  18.057  0.00  0.00    +0.000 A 
ATOM     14  C   UNL     1       0.020   9.961  18.199  0.00  0.00    +0.000 A 
ATOM     15  C   UNL     1      -0.578  11.174  18.579  0.00  0.00    +0.000 A 
BRANCH  10  17
ATOM     16  C   UNL     1       0.342  14.745  19.364  0.00  0.00    +0.000 C 
ATOM     17  N   UNL     1      -0.452  13.529  19.225  0.00  0.00    +0.000 N 
ATOM     18  C   UNL     1      -1.587  13.394  20.140  0.00  0.00    +0.000 C 
ENDBRANCH  10  17
ENDBRANCH   1  13
BRANCH   2  19
ATOM     19  C   UNL     1       2.031   7.423  19.875  0.00  0.00    +0.000 C 
ATOM     20  N   UNL     1       1.715   7.319  20.986  0.00  0.00    +0.000 NA
ENDBRANCH   2  19
TORSDOF 4
ENDMDL
MODEL 8
REMARK VINA RESULT:      -6.3      1.841      2.340
REMARK  Name = 
REMARK  6 active torsions:
REMARK  status: ('A' for Active; 'I' for Inactive)
REMARK    1  A    between atoms: C_1  and  N_2
REMARK    2  A    between atoms: N_2  and  C_3
REMARK    3  A    between atoms: N_2  and  C_4
REMARK    4  A    between atoms: C_7  and  C_8
REMARK    5  A    between atoms: C_9  and  C_10
REMARK    6  A    between atoms: C_9  and  C_12
REMARK                            x       y       z     vdW  Elec       q    Type
REMARK                         _______ _______ _______ _____ _____    ______ ____
ROOT
ATOM      1  C   UNL     1       3.711   6.448  17.285  0.00  0.00    +0.000 C 
ATOM      2  C   UNL     1       4.833   5.713  17.434  0.00  0.00    +0.000 C 
ENDROOT
BRANCH   2   3
ATOM      3  C   UNL     1       5.509   5.247  16.208  0.00  0.00    +0.000 A 
ATOM      4  C   UNL     1       4.825   4.416  15.309  0.00  0.00    +0.000 A 
ATOM      5  C   UNL     1       5.470   3.927  14.170  0.00  0.00    +0.000 A 
ATOM      6  C   UNL     1       6.799   4.267  13.917  0.00  0.00    +0.000 A 
ATOM      7  C   UNL     1       7.481   5.110  14.795  0.00  0.00    +0.000 A 
ATOM      8  C   UNL     1       6.835   5.595  15.931  0.00  0.00    +0.000 A 
ATOM      9  F   UNL     1       7.510   6.400  16.763  0.00  0.00    +0.000 F 
ENDBRANCH   2   3
BRANCH   1  13
ATOM     10  C   UNL     1       1.371   8.623  20.235  0.00  0.00    +0.000 A 
ATOM     11  C   UNL     1       1.624   9.121  18.950  0.00  0.00    +0.000 A 
ATOM     12  C   UNL     1       2.379   8.400  18.008  0.00  0.00    +0.000 A 
ATOM     13  C   UNL     1       2.895   7.134  18.307  0.00  0.00    +0.000 A 
ATOM     14  C   UNL     1       2.566   6.584  19.543  0.00  0.00    +0.000 A 
ATOM     15  C   UNL     1       1.832   7.321  20.487  0.00  0.00    +0.000 A 
BRANCH  10  17
ATOM     16  C   UNL     1      -0.410   8.716  21.948  0.00  0.00    +0.000 C 
ATOM     17  N   UNL     1       0.677   9.351  21.211  0.00  0.00    +0.000 N 
ATOM     18  C   UNL     1       0.548  10.793  20.990  0.00  0.00    +0.000 C 
ENDBRANCH  10  17
ENDBRANCH   1  13
BRANCH   2  19
ATOM     19  C   UNL     1       5.460   5.426  18.685  0.00  0.00    +0.000 C 
ATOM     20  N   UNL     1       5.968   5.177  19.696  0.00  0.00    +0.000 NA
ENDBRANCH   2  19
TORSDOF 4
ENDMDL
MODEL 9
REMARK VINA RESULT:      -6.2      1.084      1.835
REMARK  Name = 
REMARK  6 active torsions:
REMARK  status: ('A' for Active; 'I' for Inactive)
REMARK    1  A    between atoms: C_1  and  N_2
REMARK    2  A    between atoms: N_2  and  C_3
REMARK    3  A    between atoms: N_2  and  C_4
REMARK    4  A    between atoms: C_7  and  C_8
REMARK    5  A    between atoms: C_9  and  C_10
REMARK    6  A    between atoms: C_9  and  C_12
REMARK                            x       y       z     vdW  Elec       q    Type
REMARK                         _______ _______ _______ _____ _____    ______ ____
ROOT
ATOM      1  C   UNL     1       3.494   7.563  17.887  0.00  0.00    +0.000 C 
ATOM      2  C   UNL     1       3.543   6.231  17.674  0.00  0.00    +0.000 C 
ENDROOT
BRANCH   2   3
ATOM      3  C   UNL     1       4.826   5.660  17.221  0.00  0.00    +0.000 A 
ATOM      4  C   UNL     1       5.540   4.797  18.065  0.00  0.00    +0.000 A 
ATOM      5  C   UNL     1       6.780   4.288  17.668  0.00  0.00    +0.000 A 
ATOM      6  C   UNL     1       7.314   4.633  16.427  0.00  0.00    +0.000 A 
ATOM      7  C   UNL     1       6.602   5.476  15.573  0.00  0.00    +0.000 A 
ATOM      8  C   UNL     1       5.366   5.981  15.972  0.00  0.00    +0.000 A 
ATOM      9  F   UNL     1       4.700   6.791  15.137  0.00  0.00    +0.000 F 
ENDBRANCH   2   3
BRANCH   1  13
ATOM     10  C   UNL     1       0.223   9.848  19.617  0.00  0.00    +0.000 A 
ATOM     11  C   UNL     1       0.961   8.904  20.346  0.00  0.00    +0.000 A 
ATOM     12  C   UNL     1       2.018   8.179  19.770  0.00  0.00    +0.000 A 
ATOM     13  C   UNL     1       2.399   8.385  18.439  0.00  0.00    +0.000 A 
ATOM     14  C   UNL     1       1.743   9.390  17.734  0.00  0.00    +0.000 A 
ATOM     15  C   UNL     1       0.671  10.093  18.309  0.00  0.00    +0.000 A 
BRANCH  10  17
ATOM     16  C   UNL     1      -1.704  11.359  19.278  0.00  0.00    +0.000 C 
ATOM     17  N   UNL     1      -0.875  10.534  20.151  0.00  0.00    +0.000 N 
ATOM     18  C   UNL     1      -0.763  10.980  21.540  0.00  0.00    +0.000 C 
ENDBRANCH  10  17
ENDBRANCH   1  13
BRANCH   2  19
ATOM     19  C   UNL     1       2.472   5.323  17.935  0.00  0.00    +0.000 C 
ATOM     20  N   UNL     1       1.591   4.598  18.141  0.00  0.00    +0.000 NA
ENDBRANCH   2  19
TORSDOF 4
ENDMDL
