MODEL 1
REMARK VINA RESULT:      -7.1      0.000      0.000
REMARK  Name = 
REMARK  9 active torsions:
REMARK  status: ('A' for Active; 'I' for Inactive)
REMARK    1  A    between atoms: C_1  and  O_2
REMARK    2  A    between atoms: O_2  and  C_3
REMARK    3  A    between atoms: C_3  and  C_5
REMARK    4  A    between atoms: C_5  and  C_6
REMARK    5  A    between atoms: C_5  and  C_7
REMARK    6  A    between atoms: C_9  and  C_10
REMARK    7  A    between atoms: C_19  and  O_20
REMARK    8  A    between atoms: O_20  and  C_21
REMARK    9  A    between atoms: C_26  and  C_27
REMARK                            x       y       z     vdW  Elec       q    Type
REMARK                         _______ _______ _______ _____ _____    ______ ____
ROOT
ATOM      1  C   UNL     1      -2.242  11.496  18.529  0.00  0.00    +0.000 C 
ATOM      2  N   UNL     1      -1.267  10.418  18.699  0.00  0.00    +0.000 NA
ATOM      3  C   UNL     1      -0.024  10.678  18.926  0.00  0.00    +0.000 C 
ATOM      4  C   UNL     1       0.557  12.062  19.039  0.00  0.00    +0.000 A 
ATOM      5  C   UNL     1       1.804  12.297  18.430  0.00  0.00    +0.000 A 
ATOM      6  C   UNL     1       2.456  13.527  18.553  0.00  0.00    +0.000 A 
ATOM      7  C   UNL     1       1.835  14.559  19.247  0.00  0.00    +0.000 A 
ATOM      8  C   UNL     1       0.586  14.355  19.839  0.00  0.00    +0.000 A 
ATOM      9  C   UNL     1      -0.049  13.105  19.761  0.00  0.00    +0.000 A 
ATOM     10  N   UNL     1      -1.324  12.952  20.358  0.00  0.00    +0.000 N 
ATOM     11  C   UNL     1      -1.841  13.521  21.512  0.00  0.00    +0.000 A 
ATOM     12  C   UNL     1      -1.100  14.280  22.547  0.00  0.00    +0.000 C 
ATOM     13  N   UNL     1      -3.116  13.204  21.616  0.00  0.00    +0.000 NA
ATOM     14  N   UNL     1      -3.451  12.419  20.551  0.00  0.00    +0.000 NA
ATOM     15  C   UNL     1      -2.374  12.237  19.818  0.00  0.00    +0.000 A 
ENDROOT
BRANCH   3  16
ATOM     16  C   UNL     1       0.888   9.490  19.063  0.00  0.00    +0.000 A 
ATOM     17  C   UNL     1       1.037   8.885  20.316  0.00  0.00    +0.000 A 
ATOM     18  C   UNL     1       1.853   7.760  20.467  0.00  0.00    +0.000 A 
ATOM     19  C   UNL     1       2.524   7.240  19.360  0.00  0.00    +0.000 A 
ATOM     20 CL   UNL     1       3.509   5.841  19.533  0.00  0.00    +0.000 Cl
ATOM     21  C   UNL     1       2.401   7.848  18.112  0.00  0.00    +0.000 A 
ATOM     22  C   UNL     1       1.595   8.980  17.963  0.00  0.00    +0.000 A 
ENDBRANCH   3  16
BRANCH   1  23
ATOM     23  C   UNL     1      -3.576  10.917  18.014  0.00  0.00    +0.000 C 
ATOM     24  C   UNL     1      -3.649   9.385  17.992  0.00  0.00    +0.000 C 
BRANCH  23  25
ATOM     25  C   UNL     1      -3.854  11.446  16.616  0.00  0.00    +0.000 C 
ATOM     26  O   UNL     1      -4.851  12.076  16.282  0.00  0.00    +0.000 OA
BRANCH  25  28
ATOM     27  C   UNL     1      -3.176  10.364  14.655  0.00  0.00    +0.000 C 
ATOM     28  O   UNL     1      -2.812  11.175  15.775  0.00  0.00    +0.000 OA
ENDBRANCH  25  28
ENDBRANCH  23  25
ENDBRANCH   1  23
BRANCH   6  29
ATOM     29  O   UNL     1       3.683  13.585  17.955  0.00  0.00    +0.000 OA
ATOM     30  C   UNL     1       4.454  14.761  18.176  0.00  0.00    +0.000 C 
ENDBRANCH   6  29
TORSDOF 5
ENDMDL
MODEL 2
REMARK VINA RESULT:      -7.0      0.541      1.039
REMARK  Name = 
REMARK  9 active torsions:
REMARK  status: ('A' for Active; 'I' for Inactive)
REMARK    1  A    between atoms: C_1  and  O_2
REMARK    2  A    between atoms: O_2  and  C_3
REMARK    3  A    between atoms: C_3  and  C_5
REMARK    4  A    between atoms: C_5  and  C_6
REMARK    5  A    between atoms: C_5  and  C_7
REMARK    6  A    between atoms: C_9  and  C_10
REMARK    7  A    between atoms: C_19  and  O_20
REMARK    8  A    between atoms: O_20  and  C_21
REMARK    9  A    between atoms: C_26  and  C_27
REMARK                            x       y       z     vdW  Elec       q    Type
REMARK                         _______ _______ _______ _____ _____    ______ ____
ROOT
ATOM      1  C   UNL     1      -2.423  11.514  18.460  0.00  0.00    +0.000 C 
ATOM      2  N   UNL     1      -1.426  10.460  18.648  0.00  0.00    +0.000 NA
ATOM      3  C   UNL     1      -0.194  10.749  18.897  0.00  0.00    +0.000 C 
ATOM      4  C   UNL     1       0.352  12.147  19.020  0.00  0.00    +0.000 A 
ATOM      5  C   UNL     1       1.604  12.412  18.434  0.00  0.00    +0.000 A 
ATOM      6  C   UNL     1       2.224  13.657  18.568  0.00  0.00    +0.000 A 
ATOM      7  C   UNL     1       1.566  14.674  19.249  0.00  0.00    +0.000 A 
ATOM      8  C   UNL     1       0.311  14.441  19.819  0.00  0.00    +0.000 A 
ATOM      9  C   UNL     1      -0.292  13.176  19.730  0.00  0.00    +0.000 A 
ATOM     10  N   UNL     1      -1.574  12.993  20.304  0.00  0.00    +0.000 N 
ATOM     11  C   UNL     1      -2.125  13.550  21.448  0.00  0.00    +0.000 A 
ATOM     12  C   UNL     1      -1.422  14.327  22.496  0.00  0.00    +0.000 C 
ATOM     13  N   UNL     1      -3.394  13.202  21.528  0.00  0.00    +0.000 NA
ATOM     14  N   UNL     1      -3.691  12.409  20.458  0.00  0.00    +0.000 NA
ATOM     15  C   UNL     1      -2.596  12.252  19.745  0.00  0.00    +0.000 A 
ENDROOT
BRANCH   3  16
ATOM     16  C   UNL     1       0.744   9.584  19.052  0.00  0.00    +0.000 A 
ATOM     17  C   UNL     1       0.916   9.009  20.317  0.00  0.00    +0.000 A 
ATOM     18  C   UNL     1       1.755   7.904  20.485  0.00  0.00    +0.000 A 
ATOM     19  C   UNL     1       2.428   7.375  19.384  0.00  0.00    +0.000 A 
ATOM     20 CL   UNL     1       3.444   6.001  19.578  0.00  0.00    +0.000 Cl
ATOM     21  C   UNL     1       2.283   7.953  18.124  0.00  0.00    +0.000 A 
ATOM     22  C   UNL     1       1.452   9.065  17.957  0.00  0.00    +0.000 A 
ENDBRANCH   3  16
BRANCH   1  23
ATOM     23  C   UNL     1      -3.733  10.904  17.921  0.00  0.00    +0.000 C 
ATOM     24  C   UNL     1      -3.719   9.377  17.771  0.00  0.00    +0.000 C 
BRANCH  23  25
ATOM     25  C   UNL     1      -4.071  11.530  16.578  0.00  0.00    +0.000 C 
ATOM     26  O   UNL     1      -3.499  11.290  15.520  0.00  0.00    +0.000 OA
BRANCH  25  28
ATOM     27  C   UNL     1      -6.097  11.957  17.668  0.00  0.00    +0.000 C 
ATOM     28  O   UNL     1      -5.145  12.368  16.685  0.00  0.00    +0.000 OA
ENDBRANCH  25  28
ENDBRANCH  23  25
ENDBRANCH   1  23
BRANCH   6  29
ATOM     29  O   UNL     1       3.460  13.745  17.992  0.00  0.00    +0.000 OA
ATOM     30  C   UNL     1       4.316  14.783  18.455  0.00  0.00    +0.000 C 
ENDBRANCH   6  29
TORSDOF 5
ENDMDL
MODEL 3
REMARK VINA RESULT:      -6.5      3.853      6.359
REMARK  Name = 
REMARK  9 active torsions:
REMARK  status: ('A' for Active; 'I' for Inactive)
REMARK    1  A    between atoms: C_1  and  O_2
REMARK    2  A    between atoms: O_2  and  C_3
REMARK    3  A    between atoms: C_3  and  C_5
REMARK    4  A    between atoms: C_5  and  C_6
REMARK    5  A    between atoms: C_5  and  C_7
REMARK    6  A    between atoms: C_9  and  C_10
REMARK    7  A    between atoms: C_19  and  O_20
REMARK    8  A    between atoms: O_20  and  C_21
REMARK    9  A    between atoms: C_26  and  C_27
REMARK                            x       y       z     vdW  Elec       q    Type
REMARK                         _______ _______ _______ _____ _____    ______ ____
ROOT
ATOM      1  C   UNL     1      -4.912  12.478  20.157  0.00  0.00    +0.000 C 
ATOM      2  N   UNL     1      -4.067  13.619  20.511  0.00  0.00    +0.000 NA
ATOM      3  C   UNL     1      -2.782  13.507  20.545  0.00  0.00    +0.000 C 
ATOM      4  C   UNL     1      -2.022  12.244  20.239  0.00  0.00    +0.000 A 
ATOM      5  C   UNL     1      -0.925  11.928  21.061  0.00  0.00    +0.000 A 
ATOM      6  C   UNL     1      -0.113  10.821  20.801  0.00  0.00    +0.000 A 
ATOM      7  C   UNL     1      -0.428   9.981  19.739  0.00  0.00    +0.000 A 
ATOM      8  C   UNL     1      -1.527  10.263  18.924  0.00  0.00    +0.000 A 
ATOM      9  C   UNL     1      -2.315  11.403  19.150  0.00  0.00    +0.000 A 
ATOM     10  N   UNL     1      -3.432  11.634  18.311  0.00  0.00    +0.000 N 
ATOM     11  C   UNL     1      -3.601  11.372  16.961  0.00  0.00    +0.000 A 
ATOM     12  C   UNL     1      -2.557  10.971  15.987  0.00  0.00    +0.000 C 
ATOM     13  N   UNL     1      -4.849  11.627  16.624  0.00  0.00    +0.000 NA
ATOM     14  N   UNL     1      -5.511  12.070  17.732  0.00  0.00    +0.000 NA
ATOM     15  C   UNL     1      -4.657  12.110  18.733  0.00  0.00    +0.000 A 
ENDROOT
BRANCH   3  16
ATOM     16  C   UNL     1      -2.018  14.740  20.941  0.00  0.00    +0.000 A 
ATOM     17  C   UNL     1      -2.205  15.278  22.220  0.00  0.00    +0.000 A 
ATOM     18  C   UNL     1      -1.485  16.404  22.628  0.00  0.00    +0.000 A 
ATOM     19  C   UNL     1      -0.576  16.996  21.751  0.00  0.00    +0.000 A 
ATOM     20 CL   UNL     1       0.333  18.367  22.254  0.00  0.00    +0.000 Cl
ATOM     21  C   UNL     1      -0.397  16.483  20.467  0.00  0.00    +0.000 A 
ATOM     22  C   UNL     1      -1.126  15.364  20.055  0.00  0.00    +0.000 A 
ENDBRANCH   3  16
BRANCH   1  23
ATOM     23  C   UNL     1      -6.390  12.812  20.450  0.00  0.00    +0.000 C 
ATOM     24  C   UNL     1      -6.607  14.025  21.363  0.00  0.00    +0.000 C 
BRANCH  23  25
ATOM     25  C   UNL     1      -7.072  11.600  21.064  0.00  0.00    +0.000 C 
ATOM     26  O   UNL     1      -7.188  11.386  22.266  0.00  0.00    +0.000 OA
BRANCH  25  28
ATOM     27  C   UNL     1      -7.458   9.397  20.376  0.00  0.00    +0.000 C 
ATOM     28  O   UNL     1      -7.598  10.792  20.096  0.00  0.00    +0.000 OA
ENDBRANCH  25  28
ENDBRANCH  23  25
ENDBRANCH   1  23
BRANCH   6  29
ATOM     29  O   UNL     1       0.946  10.676  21.653  0.00  0.00    +0.000 OA
ATOM     30  C   UNL     1       1.186   9.372  22.169  0.00  0.00    +0.000 C 
ENDBRANCH   6  29
TORSDOF 5
ENDMDL
MODEL 4
REMARK VINA RESULT:      -6.4      2.499      3.743
REMARK  Name = 
REMARK  9 active torsions:
REMARK  status: ('A' for Active; 'I' for Inactive)
REMARK    1  A    between atoms: C_1  and  O_2
REMARK    2  A    between atoms: O_2  and  C_3
REMARK    3  A    between atoms: C_3  and  C_5
REMARK    4  A    between atoms: C_5  and  C_6
REMARK    5  A    between atoms: C_5  and  C_7
REMARK    6  A    between atoms: C_9  and  C_10
REMARK    7  A    between atoms: C_19  and  O_20
REMARK    8  A    between atoms: O_20  and  C_21
REMARK    9  A    between atoms: C_26  and  C_27
REMARK                            x       y       z     vdW  Elec       q    Type
REMARK                         _______ _______ _______ _____ _____    ______ ____
ROOT
ATOM      1  C   UNL     1      -5.007  12.655  19.732  0.00  0.00    +0.000 C 
ATOM      2  N   UNL     1      -3.837  11.856  19.365  0.00  0.00    +0.000 NA
ATOM      3  C   UNL     1      -2.650  12.218  19.719  0.00  0.00    +0.000 C 
ATOM      4  C   UNL     1      -2.331  13.452  20.520  0.00  0.00    +0.000 A 
ATOM      5  C   UNL     1      -1.205  14.204  20.138  0.00  0.00    +0.000 A 
ATOM      6  C   UNL     1      -0.787  15.317  20.872  0.00  0.00    +0.000 A 
ATOM      7  C   UNL     1      -1.532  15.724  21.973  0.00  0.00    +0.000 A 
ATOM      8  C   UNL     1      -2.668  15.007  22.356  0.00  0.00    +0.000 A 
ATOM      9  C   UNL     1      -3.062  13.857  21.652  0.00  0.00    +0.000 A 
ATOM     10  N   UNL     1      -4.232  13.176  22.064  0.00  0.00    +0.000 N 
ATOM     11  C   UNL     1      -4.750  12.985  23.336  0.00  0.00    +0.000 A 
ATOM     12  C   UNL     1      -4.083  13.269  24.628  0.00  0.00    +0.000 C 
ATOM     13  N   UNL     1      -5.930  12.406  23.238  0.00  0.00    +0.000 NA
ATOM     14  N   UNL     1      -6.199  12.197  21.917  0.00  0.00    +0.000 NA
ATOM     15  C   UNL     1      -5.170  12.622  21.215  0.00  0.00    +0.000 A 
ENDROOT
BRANCH   3  16
ATOM     16  C   UNL     1      -1.524  11.330  19.268  0.00  0.00    +0.000 A 
ATOM     17  C   UNL     1      -1.586  10.738  18.001  0.00  0.00    +0.000 A 
ATOM     18  C   UNL     1      -0.538   9.935  17.542  0.00  0.00    +0.000 A 
ATOM     19  C   UNL     1       0.575   9.721  18.356  0.00  0.00    +0.000 A 
ATOM     20 CL   UNL     1       1.879   8.754  17.788  0.00  0.00    +0.000 Cl
ATOM     21  C   UNL     1       0.638  10.286  19.628  0.00  0.00    +0.000 A 
ATOM     22  C   UNL     1      -0.415  11.080  20.092  0.00  0.00    +0.000 A 
ENDBRANCH   3  16
BRANCH   1  23
ATOM     23  C   UNL     1      -6.247  12.148  18.967  0.00  0.00    +0.000 C 
ATOM     24  C   UNL     1      -6.331  10.623  18.816  0.00  0.00    +0.000 C 
BRANCH  23  25
ATOM     25  C   UNL     1      -6.290  12.785  17.588  0.00  0.00    +0.000 C 
ATOM     26  O   UNL     1      -5.574  12.476  16.642  0.00  0.00    +0.000 OA
BRANCH  25  28
ATOM     27  C   UNL     1      -6.987  14.793  16.608  0.00  0.00    +0.000 C 
ATOM     28  O   UNL     1      -7.278  13.726  17.515  0.00  0.00    +0.000 OA
ENDBRANCH  25  28
ENDBRANCH  23  25
ENDBRANCH   1  23
BRANCH   6  29
ATOM     29  O   UNL     1       0.355  15.910  20.410  0.00  0.00    +0.000 OA
ATOM     30  C   UNL     1       1.475  15.063  20.181  0.00  0.00    +0.000 C 
ENDBRANCH   6  29
TORSDOF 5
ENDMDL
MODEL 5
REMARK VINA RESULT:      -6.4      3.954      6.502
REMARK  Name = 
REMARK  9 active torsions:
REMARK  status: ('A' for Active; 'I' for Inactive)
REMARK    1  A    between atoms: C_1  and  O_2
REMARK    2  A    between atoms: O_2  and  C_3
REMARK    3  A    between atoms: C_3  and  C_5
REMARK    4  A    between atoms: C_5  and  C_6
REMARK    5  A    between atoms: C_5  and  C_7
REMARK    6  A    between atoms: C_9  and  C_10
REMARK    7  A    between atoms: C_19  and  O_20
REMARK    8  A    between atoms: O_20  and  C_21
REMARK    9  A    between atoms: C_26  and  C_27
REMARK                            x       y       z     vdW  Elec       q    Type
REMARK                         _______ _______ _______ _____ _____    ______ ____
ROOT
ATOM      1  C   UNL     1      -4.804  12.505  20.177  0.00  0.00    +0.000 C 
ATOM      2  N   UNL     1      -3.939  13.640  20.502  0.00  0.00    +0.000 NA
ATOM      3  C   UNL     1      -2.655  13.514  20.515  0.00  0.00    +0.000 C 
ATOM      4  C   UNL     1      -1.915  12.239  20.211  0.00  0.00    +0.000 A 
ATOM      5  C   UNL     1      -0.807  11.920  21.017  0.00  0.00    +0.000 A 
ATOM      6  C   UNL     1      -0.013  10.800  20.757  0.00  0.00    +0.000 A 
ATOM      7  C   UNL     1      -0.356   9.951  19.711  0.00  0.00    +0.000 A 
ATOM      8  C   UNL     1      -1.466  10.235  18.912  0.00  0.00    +0.000 A 
ATOM      9  C   UNL     1      -2.237  11.388  19.138  0.00  0.00    +0.000 A 
ATOM     10  N   UNL     1      -3.366  11.622  18.316  0.00  0.00    +0.000 N 
ATOM     11  C   UNL     1      -3.561  11.345  16.972  0.00  0.00    +0.000 A 
ATOM     12  C   UNL     1      -2.540  10.920  15.985  0.00  0.00    +0.000 C 
ATOM     13  N   UNL     1      -4.812  11.611  16.654  0.00  0.00    +0.000 NA
ATOM     14  N   UNL     1      -5.449  12.074  17.768  0.00  0.00    +0.000 NA
ATOM     15  C   UNL     1      -4.578  12.117  18.754  0.00  0.00    +0.000 A 
ENDROOT
BRANCH   3  16
ATOM     16  C   UNL     1      -1.871  14.742  20.882  0.00  0.00    +0.000 A 
ATOM     17  C   UNL     1      -2.014  15.286  22.165  0.00  0.00    +0.000 A 
ATOM     18  C   UNL     1      -1.273  16.408  22.545  0.00  0.00    +0.000 A 
ATOM     19  C   UNL     1      -0.388  16.991  21.638  0.00  0.00    +0.000 A 
ATOM     20 CL   UNL     1       0.546  18.357  22.108  0.00  0.00    +0.000 Cl
ATOM     21  C   UNL     1      -0.254  16.472  20.352  0.00  0.00    +0.000 A 
ATOM     22  C   UNL     1      -1.003  15.357  19.967  0.00  0.00    +0.000 A 
ENDBRANCH   3  16
BRANCH   1  23
ATOM     23  C   UNL     1      -6.272  12.859  20.491  0.00  0.00    +0.000 C 
ATOM     24  C   UNL     1      -6.526  14.341  20.797  0.00  0.00    +0.000 C 
BRANCH  23  25
ATOM     25  C   UNL     1      -6.757  12.021  21.663  0.00  0.00    +0.000 C 
ATOM     26  O   UNL     1      -7.521  11.065  21.582  0.00  0.00    +0.000 OA
BRANCH  25  28
ATOM     27  C   UNL     1      -7.103  12.506  23.926  0.00  0.00    +0.000 C 
ATOM     28  O   UNL     1      -6.186  12.437  22.832  0.00  0.00    +0.000 OA
ENDBRANCH  25  28
ENDBRANCH  23  25
ENDBRANCH   1  23
BRANCH   6  29
ATOM     29  O   UNL     1       1.059  10.653  21.592  0.00  0.00    +0.000 OA
ATOM     30  C   UNL     1       1.252   9.371  22.177  0.00  0.00    +0.000 C 
ENDBRANCH   6  29
TORSDOF 5
ENDMDL
MODEL 6
REMARK VINA RESULT:      -6.3      2.565      3.573
REMARK  Name = 
REMARK  9 active torsions:
REMARK  status: ('A' for Active; 'I' for Inactive)
REMARK    1  A    between atoms: C_1  and  O_2
REMARK    2  A    between atoms: O_2  and  C_3
REMARK    3  A    between atoms: C_3  and  C_5
REMARK    4  A    between atoms: C_5  and  C_6
REMARK    5  A    between atoms: C_5  and  C_7
REMARK    6  A    between atoms: C_9  and  C_10
REMARK    7  A    between atoms: C_19  and  O_20
REMARK    8  A    between atoms: O_20  and  C_21
REMARK    9  A    between atoms: C_26  and  C_27
REMARK                            x       y       z     vdW  Elec       q    Type
REMARK                         _______ _______ _______ _____ _____    ______ ____
ROOT
ATOM      1  C   UNL     1      -4.771  12.600  19.671  0.00  0.00    +0.000 C 
ATOM      2  N   UNL     1      -3.582  11.806  19.358  0.00  0.00    +0.000 NA
ATOM      3  C   UNL     1      -2.406  12.209  19.702  0.00  0.00    +0.000 C 
ATOM      4  C   UNL     1      -2.118  13.490  20.438  0.00  0.00    +0.000 A 
ATOM      5  C   UNL     1      -1.002  14.242  20.025  0.00  0.00    +0.000 A 
ATOM      6  C   UNL     1      -0.613  15.401  20.702  0.00  0.00    +0.000 A 
ATOM      7  C   UNL     1      -1.376  15.853  21.773  0.00  0.00    +0.000 A 
ATOM      8  C   UNL     1      -2.502  15.135  22.184  0.00  0.00    +0.000 A 
ATOM      9  C   UNL     1      -2.867  13.942  21.540  0.00  0.00    +0.000 A 
ATOM     10  N   UNL     1      -4.029  13.261  21.978  0.00  0.00    +0.000 N 
ATOM     11  C   UNL     1      -4.555  13.129  23.253  0.00  0.00    +0.000 A 
ATOM     12  C   UNL     1      -3.906  13.495  24.534  0.00  0.00    +0.000 C 
ATOM     13  N   UNL     1      -5.723  12.523  23.177  0.00  0.00    +0.000 NA
ATOM     14  N   UNL     1      -5.974  12.237  21.866  0.00  0.00    +0.000 NA
ATOM     15  C   UNL     1      -4.947  12.644  21.152  0.00  0.00    +0.000 A 
ENDROOT
BRANCH   3  16
ATOM     16  C   UNL     1      -1.258  11.320  19.310  0.00  0.00    +0.000 A 
ATOM     17  C   UNL     1      -0.212  11.113  20.218  0.00  0.00    +0.000 A 
ATOM     18  C   UNL     1       0.851  10.266  19.893  0.00  0.00    +0.000 A 
ATOM     19  C   UNL     1       0.870   9.626  18.653  0.00  0.00    +0.000 A 
ATOM     20 CL   UNL     1       2.162   8.563  18.257  0.00  0.00    +0.000 Cl
ATOM     21  C   UNL     1      -0.154   9.842  17.733  0.00  0.00    +0.000 A 
ATOM     22  C   UNL     1      -1.212  10.698  18.053  0.00  0.00    +0.000 A 
ENDBRANCH   3  16
BRANCH   1  23
ATOM     23  C   UNL     1      -5.993  12.028  18.923  0.00  0.00    +0.000 C 
ATOM     24  C   UNL     1      -5.655  11.053  17.787  0.00  0.00    +0.000 C 
BRANCH  23  25
ATOM     25  C   UNL     1      -6.827  13.169  18.364  0.00  0.00    +0.000 C 
ATOM     26  O   UNL     1      -7.791  13.681  18.922  0.00  0.00    +0.000 OA
BRANCH  25  28
ATOM     27  C   UNL     1      -7.148  14.577  16.522  0.00  0.00    +0.000 C 
ATOM     28  O   UNL     1      -6.328  13.599  17.167  0.00  0.00    +0.000 OA
ENDBRANCH  25  28
ENDBRANCH  23  25
ENDBRANCH   1  23
BRANCH   6  29
ATOM     29  O   UNL     1       0.522  15.991  20.219  0.00  0.00    +0.000 OA
ATOM     30  C   UNL     1       1.501  16.384  21.174  0.00  0.00    +0.000 C 
ENDBRANCH   6  29
TORSDOF 5
ENDMDL
MODEL 7
REMARK VINA RESULT:      -6.3      3.736      7.406
REMARK  Name = 
REMARK  9 active torsions:
REMARK  status: ('A' for Active; 'I' for Inactive)
REMARK    1  A    between atoms: C_1  and  O_2
REMARK    2  A    between atoms: O_2  and  C_3
REMARK    3  A    between atoms: C_3  and  C_5
REMARK    4  A    between atoms: C_5  and  C_6
REMARK    5  A    between atoms: C_5  and  C_7
REMARK    6  A    between atoms: C_9  and  C_10
REMARK    7  A    between atoms: C_19  and  O_20
REMARK    8  A    between atoms: O_20  and  C_21
REMARK    9  A    between atoms: C_26  and  C_27
REMARK                            x       y       z     vdW  Elec       q    Type
REMARK                         _______ _______ _______ _____ _____    ______ ____
ROOT
ATOM      1  C   UNL     1      -0.630  14.252  20.282  0.00  0.00    +0.000 C 
ATOM      2  N   UNL     1      -1.890  14.320  21.023  0.00  0.00    +0.000 NA
ATOM      3  C   UNL     1      -2.849  13.492  20.779  0.00  0.00    +0.000 C 
ATOM      4  C   UNL     1      -2.797  12.399  19.745  0.00  0.00    +0.000 A 
ATOM      5  C   UNL     1      -3.949  12.184  18.966  0.00  0.00    +0.000 A 
ATOM      6  C   UNL     1      -4.019  11.139  18.040  0.00  0.00    +0.000 A 
ATOM      7  C   UNL     1      -2.907  10.328  17.845  0.00  0.00    +0.000 A 
ATOM      8  C   UNL     1      -1.745  10.539  18.591  0.00  0.00    +0.000 A 
ATOM      9  C   UNL     1      -1.688  11.555  19.559  0.00  0.00    +0.000 A 
ATOM     10  N   UNL     1      -0.480  11.745  20.274  0.00  0.00    +0.000 N 
ATOM     11  C   UNL     1       0.454  10.816  20.705  0.00  0.00    +0.000 A 
ATOM     12  C   UNL     1       0.316   9.340  20.713  0.00  0.00    +0.000 C 
ATOM     13  N   UNL     1       1.490  11.452  21.215  0.00  0.00    +0.000 NA
ATOM     14  N   UNL     1       1.250  12.793  21.141  0.00  0.00    +0.000 NA
ATOM     15  C   UNL     1       0.058  12.970  20.612  0.00  0.00    +0.000 A 
ENDROOT
BRANCH   3  16
ATOM     16  C   UNL     1      -4.102  13.670  21.589  0.00  0.00    +0.000 A 
ATOM     17  C   UNL     1      -4.366  12.788  22.644  0.00  0.00    +0.000 A 
ATOM     18  C   UNL     1      -5.506  12.949  23.435  0.00  0.00    +0.000 A 
ATOM     19  C   UNL     1      -6.389  13.996  23.168  0.00  0.00    +0.000 A 
ATOM     20 CL   UNL     1      -7.782  14.216  24.153  0.00  0.00    +0.000 Cl
ATOM     21  C   UNL     1      -6.150  14.867  22.107  0.00  0.00    +0.000 A 
ATOM     22  C   UNL     1      -5.015  14.700  21.308  0.00  0.00    +0.000 A 
ENDBRANCH   3  16
BRANCH   1  23
ATOM     23  C   UNL     1       0.222  15.502  20.583  0.00  0.00    +0.000 C 
ATOM     24  C   UNL     1      -0.454  16.539  21.490  0.00  0.00    +0.000 C 
BRANCH  23  25
ATOM     25  C   UNL     1       0.622  16.171  19.278  0.00  0.00    +0.000 C 
ATOM     26  O   UNL     1       1.733  16.623  19.026  0.00  0.00    +0.000 OA
BRANCH  25  28
ATOM     27  C   UNL     1      -0.678  17.437  17.800  0.00  0.00    +0.000 C 
ATOM     28  O   UNL     1      -0.412  16.160  18.385  0.00  0.00    +0.000 OA
ENDBRANCH  25  28
ENDBRANCH  23  25
ENDBRANCH   1  23
BRANCH   6  29
ATOM     29  O   UNL     1      -5.221  11.022  17.400  0.00  0.00    +0.000 OA
ATOM     30  C   UNL     1      -6.392  11.111  18.205  0.00  0.00    +0.000 C 
ENDBRANCH   6  29
TORSDOF 5
ENDMDL
MODEL 8
REMARK VINA RESULT:      -6.3      3.571      6.216
REMARK  Name = 
REMARK  9 active torsions:
REMARK  status: ('A' for Active; 'I' for Inactive)
REMARK    1  A    between atoms: C_1  and  O_2
REMARK    2  A    between atoms: O_2  and  C_3
REMARK    3  A    between atoms: C_3  and  C_5
REMARK    4  A    between atoms: C_5  and  C_6
REMARK    5  A    between atoms: C_5  and  C_7
REMARK    6  A    between atoms: C_9  and  C_10
REMARK    7  A    between atoms: C_19  and  O_20
REMARK    8  A    between atoms: O_20  and  C_21
REMARK    9  A    between atoms: C_26  and  C_27
REMARK                            x       y       z     vdW  Elec       q    Type
REMARK                         _______ _______ _______ _____ _____    ______ ____
ROOT
ATOM      1  C   UNL     1      -3.719  12.595  20.947  0.00  0.00    +0.000 C 
ATOM      2  N   UNL     1      -2.667  13.600  20.795  0.00  0.00    +0.000 NA
ATOM      3  C   UNL     1      -1.617  13.359  20.085  0.00  0.00    +0.000 C 
ATOM      4  C   UNL     1      -1.351  12.070  19.355  0.00  0.00    +0.000 A 
ATOM      5  C   UNL     1      -0.040  11.558  19.392  0.00  0.00    +0.000 A 
ATOM      6  C   UNL     1       0.316  10.412  18.677  0.00  0.00    +0.000 A 
ATOM      7  C   UNL     1      -0.658   9.730  17.956  0.00  0.00    +0.000 A 
ATOM      8  C   UNL     1      -1.971  10.207  17.925  0.00  0.00    +0.000 A 
ATOM      9  C   UNL     1      -2.322  11.387  18.600  0.00  0.00    +0.000 A 
ATOM     10  N   UNL     1      -3.670  11.819  18.559  0.00  0.00    +0.000 N 
ATOM     11  C   UNL     1      -4.603  11.725  17.538  0.00  0.00    +0.000 A 
ATOM     12  C   UNL     1      -4.357  11.334  16.130  0.00  0.00    +0.000 C 
ATOM     13  N   UNL     1      -5.772  12.138  17.984  0.00  0.00    +0.000 NA
ATOM     14  N   UNL     1      -5.626  12.518  19.286  0.00  0.00    +0.000 NA
ATOM     15  C   UNL     1      -4.363  12.363  19.621  0.00  0.00    +0.000 A 
ENDROOT
BRANCH   3  16
ATOM     16  C   UNL     1      -0.594  14.460  20.017  0.00  0.00    +0.000 A 
ATOM     17  C   UNL     1       0.099  14.821  21.178  0.00  0.00    +0.000 A 
ATOM     18  C   UNL     1       1.078  15.817  21.138  0.00  0.00    +0.000 A 
ATOM     19  C   UNL     1       1.362  16.457  19.932  0.00  0.00    +0.000 A 
ATOM     20 CL   UNL     1       2.584  17.667  19.869  0.00  0.00    +0.000 Cl
ATOM     21  C   UNL     1       0.663  16.123  18.774  0.00  0.00    +0.000 A 
ATOM     22  C   UNL     1      -0.324  15.134  18.816  0.00  0.00    +0.000 A 
ENDBRANCH   3  16
BRANCH   1  23
ATOM     23  C   UNL     1      -4.710  13.037  22.043  0.00  0.00    +0.000 C 
ATOM     24  C   UNL     1      -5.217  14.480  21.909  0.00  0.00    +0.000 C 
BRANCH  23  25
ATOM     25  C   UNL     1      -4.069  12.863  23.410  0.00  0.00    +0.000 C 
ATOM     26  O   UNL     1      -3.436  11.878  23.775  0.00  0.00    +0.000 OA
BRANCH  25  28
ATOM     27  C   UNL     1      -3.073  14.361  24.907  0.00  0.00    +0.000 C 
ATOM     28  O   UNL     1      -4.242  13.980  24.177  0.00  0.00    +0.000 OA
ENDBRANCH  25  28
ENDBRANCH  23  25
ENDBRANCH   1  23
BRANCH   6  29
ATOM     29  O   UNL     1       1.636  10.070  18.765  0.00  0.00    +0.000 OA
ATOM     30  C   UNL     1       2.071   8.964  17.982  0.00  0.00    +0.000 C 
ENDBRANCH   6  29
TORSDOF 5
ENDMDL
MODEL 9
REMARK VINA RESULT:      -6.2      1.296      1.452
REMARK  Name = 
REMARK  9 active torsions:
REMARK  status: ('A' for Active; 'I' for Inactive)
REMARK    1  A    between atoms: C_1  and  O_2
REMARK    2  A    between atoms: O_2  and  C_3
REMARK    3  A    between atoms: C_3  and  C_5
REMARK    4  A    between atoms: C_5  and  C_6
REMARK    5  A    between atoms: C_5  and  C_7
REMARK    6  A    between atoms: C_9  and  C_10
REMARK    7  A    between atoms: C_19  and  O_20
REMARK    8  A    between atoms: O_20  and  C_21
REMARK    9  A    between atoms: C_26  and  C_27
REMARK                            x       y       z     vdW  Elec       q    Type
REMARK                         _______ _______ _______ _____ _____    ______ ____
ROOT
ATOM      1  C   UNL     1      -2.217  11.848  18.323  0.00  0.00    +0.000 C 
ATOM      2  N   UNL     1      -1.268  10.745  18.478  0.00  0.00    +0.000 NA
ATOM      3  C   UNL     1      -0.174  10.900  19.144  0.00  0.00    +0.000 C 
ATOM      4  C   UNL     1       0.248  12.179  19.817  0.00  0.00    +0.000 A 
ATOM      5  C   UNL     1       1.601  12.551  19.719  0.00  0.00    +0.000 A 
ATOM      6  C   UNL     1       2.098  13.678  20.379  0.00  0.00    +0.000 A 
ATOM      7  C   UNL     1       1.226  14.480  21.105  0.00  0.00    +0.000 A 
ATOM      8  C   UNL     1      -0.127  14.143  21.196  0.00  0.00    +0.000 A 
ATOM      9  C   UNL     1      -0.620  12.983  20.577  0.00  0.00    +0.000 A 
ATOM     10  N   UNL     1      -2.003  12.694  20.678  0.00  0.00    +0.000 N 
ATOM     11  C   UNL     1      -2.885  12.918  21.724  0.00  0.00    +0.000 A 
ATOM     12  C   UNL     1      -2.549  13.329  23.108  0.00  0.00    +0.000 C 
ATOM     13  N   UNL     1      -4.105  12.613  21.332  0.00  0.00    +0.000 NA
ATOM     14  N   UNL     1      -4.045  12.177  20.041  0.00  0.00    +0.000 NA
ATOM     15  C   UNL     1      -2.786  12.189  19.660  0.00  0.00    +0.000 A 
ENDROOT
BRANCH   3  16
ATOM     16  C   UNL     1       0.732   9.703  19.220  0.00  0.00    +0.000 A 
ATOM     17  C   UNL     1       0.875   9.029  20.439  0.00  0.00    +0.000 A 
ATOM     18  C   UNL     1       1.685   7.894  20.531  0.00  0.00    +0.000 A 
ATOM     19  C   UNL     1       2.357   7.433  19.400  0.00  0.00    +0.000 A 
ATOM     20 CL   UNL     1       3.336   6.021  19.499  0.00  0.00    +0.000 Cl
ATOM     21  C   UNL     1       2.242   8.107  18.186  0.00  0.00    +0.000 A 
ATOM     22  C   UNL     1       1.440   9.250  18.096  0.00  0.00    +0.000 A 
ENDBRANCH   3  16
BRANCH   1  23
ATOM     23  C   UNL     1      -3.287  11.474  17.277  0.00  0.00    +0.000 C 
ATOM     24  C   UNL     1      -4.709  11.945  17.613  0.00  0.00    +0.000 C 
BRANCH  23  25
ATOM     25  C   UNL     1      -3.299   9.967  17.079  0.00  0.00    +0.000 C 
ATOM     26  O   UNL     1      -3.811   9.156  17.843  0.00  0.00    +0.000 OA
BRANCH  25  28
ATOM     27  C   UNL     1      -3.193  10.366  14.775  0.00  0.00    +0.000 C 
ATOM     28  O   UNL     1      -2.707   9.624  15.896  0.00  0.00    +0.000 OA
ENDBRANCH  25  28
ENDBRANCH  23  25
ENDBRANCH   1  23
BRANCH   6  29
ATOM     29  O   UNL     1       3.443  13.878  20.235  0.00  0.00    +0.000 OA
ATOM     30  C   UNL     1       4.120  14.515  21.313  0.00  0.00    +0.000 C 
ENDBRANCH   6  29
TORSDOF 5
ENDMDL
