MODEL 1
REMARK VINA RESULT:      -9.0      0.000      0.000
REMARK  Name = 
REMARK  11 active torsions:
REMARK  status: ('A' for Active; 'I' for Inactive)
REMARK    1  A    between atoms: C_1  and  O_2
REMARK    2  A    between atoms: O_2  and  C_3
REMARK    3  A    between atoms: C_6  and  C_7
REMARK    4  A    between atoms: C_12  and  O_13
REMARK    5  A    between atoms: C_15  and  O_16
REMARK    6  A    between atoms: O_16  and  C_17
REMARK    7  A    between atoms: C_17  and  C_18
REMARK    8  A    between atoms: N_20  and  C_21
REMARK    9  A    between atoms: C_21  and  C_22
REMARK   10  A    between atoms: C_27  and  C_28
REMARK   11  A    between atoms: C_35  and  O_36
REMARK                            x       y       z     vdW  Elec       q    Type
REMARK                         _______ _______ _______ _____ _____    ______ ____
ROOT
ATOM      1  C   UNL     1       9.592  13.837  21.956  0.00  0.00    +0.000 C 
ATOM      2  C   UNL     1      10.262  14.758  20.938  0.00  0.00    +0.000 C 
ATOM      3  C   UNL     1       9.959  14.294  19.543  0.00  0.00    +0.000 C 
ATOM      4  O   UNL     1       9.984  15.048  18.571  0.00  0.00    +0.000 OA
ATOM      5  C   UNL     1       9.673  12.863  19.356  0.00  0.00    +0.000 A 
ATOM      6  C   UNL     1       9.327  12.343  18.108  0.00  0.00    +0.000 A 
ATOM      7  C   UNL     1       9.027  10.992  17.983  0.00  0.00    +0.000 A 
ATOM      8  C   UNL     1       9.110  10.145  19.093  0.00  0.00    +0.000 A 
ATOM      9  C   UNL     1       9.486  10.652  20.333  0.00  0.00    +0.000 A 
ATOM     10  C   UNL     1       9.735  12.020  20.467  0.00  0.00    +0.000 A 
ATOM     11  O   UNL     1      10.007  12.471  21.734  0.00  0.00    +0.000 OA
ENDROOT
BRANCH   1  15
ATOM     12  C   UNL     1       5.257  13.970  22.514  0.00  0.00    +0.000 A 
ATOM     13  C   UNL     1       5.899  14.917  21.710  0.00  0.00    +0.000 A 
ATOM     14  C   UNL     1       7.285  14.900  21.519  0.00  0.00    +0.000 A 
ATOM     15  C   UNL     1       8.075  13.918  22.126  0.00  0.00    +0.000 A 
ATOM     16  C   UNL     1       7.428  12.973  22.948  0.00  0.00    +0.000 A 
ATOM     17  C   UNL     1       6.039  12.995  23.138  0.00  0.00    +0.000 A 
BRANCH  12  19
ATOM     18  C   UNL     1       3.346  15.295  21.944  0.00  0.00    +0.000 C 
ATOM     19  O   UNL     1       3.903  14.151  22.573  0.00  0.00    +0.000 OA
ENDBRANCH  12  19
BRANCH  17  20
ATOM     20  O   UNL     1       5.479  12.043  23.944  0.00  0.00    +0.000 OA
ATOM     21  H   UNL     1       6.133  11.348  24.125  0.00  0.00    +0.000 HD
ENDBRANCH  17  20
ENDBRANCH   1  15
BRANCH   6  22
ATOM     22  O   UNL     1       9.240  13.104  16.976  0.00  0.00    +0.000 OA
ATOM     23  H   UNL     1       9.761  13.926  17.116  0.00  0.00    +0.000 HD
ENDBRANCH   6  22
BRANCH   8  24
ATOM     24  O   UNL     1       8.697   8.870  18.855  0.00  0.00    +0.000 OA
BRANCH  24  25
ATOM     25  C   UNL     1       8.089   8.577  17.593  0.00  0.00    +0.000 C 
BRANCH  25  26
ATOM     26  C   UNL     1       7.634   7.158  17.589  0.00  0.00    +0.000 A 
ATOM     27  C   UNL     1       7.302   6.351  18.658  0.00  0.00    +0.000 A 
ATOM     28  N   UNL     1       6.726   5.258  18.084  0.00  0.00    +0.000 N 
ATOM     29  N   UNL     1       6.827   5.315  16.738  0.00  0.00    +0.000 NA
ATOM     30  N   UNL     1       7.388   6.478  16.424  0.00  0.00    +0.000 NA
BRANCH  28  31
ATOM     31  C   UNL     1       5.820   4.312  18.730  0.00  0.00    +0.000 C 
BRANCH  31  32
ATOM     32  C   UNL     1       4.368   4.546  18.392  0.00  0.00    +0.000 A 
ATOM     33  C   UNL     1       3.882   5.860  18.490  0.00  0.00    +0.000 A 
ATOM     34  C   UNL     1       2.545   6.169  18.231  0.00  0.00    +0.000 A 
ATOM     35  C   UNL     1       1.666   5.157  17.871  0.00  0.00    +0.000 A 
ATOM     36  C   UNL     1       2.118   3.843  17.780  0.00  0.00    +0.000 A 
ATOM     37  C   UNL     1       3.459   3.509  18.054  0.00  0.00    +0.000 A 
ATOM     38  C   UNL     1       3.844   2.056  17.947  0.00  0.00    +0.000 C 
ENDBRANCH  31  32
ENDBRANCH  28  31
ENDBRANCH  25  26
ENDBRANCH  24  25
ENDBRANCH   8  24
TORSDOF 9
ENDMDL
MODEL 2
REMARK VINA RESULT:      -9.0      3.404      9.243
REMARK  Name = 
REMARK  11 active torsions:
REMARK  status: ('A' for Active; 'I' for Inactive)
REMARK    1  A    between atoms: C_1  and  O_2
REMARK    2  A    between atoms: O_2  and  C_3
REMARK    3  A    between atoms: C_6  and  C_7
REMARK    4  A    between atoms: C_12  and  O_13
REMARK    5  A    between atoms: C_15  and  O_16
REMARK    6  A    between atoms: O_16  and  C_17
REMARK    7  A    between atoms: C_17  and  C_18
REMARK    8  A    between atoms: N_20  and  C_21
REMARK    9  A    between atoms: C_21  and  C_22
REMARK   10  A    between atoms: C_27  and  C_28
REMARK   11  A    between atoms: C_35  and  O_36
REMARK                            x       y       z     vdW  Elec       q    Type
REMARK                         _______ _______ _______ _____ _____    ______ ____
ROOT
ATOM      1  C   UNL     1       3.779   5.429  17.186  0.00  0.00    +0.000 C 
ATOM      2  C   UNL     1       4.253   4.145  17.862  0.00  0.00    +0.000 C 
ATOM      3  C   UNL     1       5.437   4.428  18.741  0.00  0.00    +0.000 C 
ATOM      4  O   UNL     1       5.736   3.721  19.702  0.00  0.00    +0.000 OA
ATOM      5  C   UNL     1       6.283   5.577  18.382  0.00  0.00    +0.000 A 
ATOM      6  C   UNL     1       7.373   5.956  19.165  0.00  0.00    +0.000 A 
ATOM      7  C   UNL     1       8.122   7.071  18.811  0.00  0.00    +0.000 A 
ATOM      8  C   UNL     1       7.813   7.791  17.652  0.00  0.00    +0.000 A 
ATOM      9  C   UNL     1       6.746   7.398  16.849  0.00  0.00    +0.000 A 
ATOM     10  C   UNL     1       5.962   6.308  17.237  0.00  0.00    +0.000 A 
ATOM     11  O   UNL     1       4.869   6.033  16.454  0.00  0.00    +0.000 OA
ENDROOT
BRANCH   1  15
ATOM     12  C   UNL     1       1.712   8.499  19.516  0.00  0.00    +0.000 A 
ATOM     13  C   UNL     1       2.021   7.261  20.088  0.00  0.00    +0.000 A 
ATOM     14  C   UNL     1       2.677   6.260  19.363  0.00  0.00    +0.000 A 
ATOM     15  C   UNL     1       3.056   6.476  18.034  0.00  0.00    +0.000 A 
ATOM     16  C   UNL     1       2.730   7.718  17.454  0.00  0.00    +0.000 A 
ATOM     17  C   UNL     1       2.071   8.719  18.184  0.00  0.00    +0.000 A 
BRANCH  12  19
ATOM     18  C   UNL     1       0.855   8.903  21.714  0.00  0.00    +0.000 C 
ATOM     19  O   UNL     1       1.075   9.342  20.383  0.00  0.00    +0.000 OA
ENDBRANCH  12  19
BRANCH  17  20
ATOM     20  O   UNL     1       1.793   9.902  17.557  0.00  0.00    +0.000 OA
ATOM     21  H   UNL     1       1.374  10.511  18.187  0.00  0.00    +0.000 HD
ENDBRANCH  17  20
ENDBRANCH   1  15
BRANCH   6  22
ATOM     22  O   UNL     1       7.747   5.295  20.302  0.00  0.00    +0.000 OA
ATOM     23  H   UNL     1       7.004   4.711  20.576  0.00  0.00    +0.000 HD
ENDBRANCH   6  22
BRANCH   8  24
ATOM     24  O   UNL     1       8.562   8.913  17.475  0.00  0.00    +0.000 OA
BRANCH  24  25
ATOM     25  C   UNL     1       8.755   9.785  18.593  0.00  0.00    +0.000 C 
BRANCH  25  26
ATOM     26  C   UNL     1       9.350  11.066  18.115  0.00  0.00    +0.000 A 
ATOM     27  C   UNL     1       8.755  12.304  17.989  0.00  0.00    +0.000 A 
ATOM     28  N   UNL     1       9.795  13.151  17.755  0.00  0.00    +0.000 N 
ATOM     29  N   UNL     1      10.947  12.463  17.598  0.00  0.00    +0.000 NA
ATOM     30  N   UNL     1      10.682  11.179  17.814  0.00  0.00    +0.000 NA
BRANCH  28  31
ATOM     31  C   UNL     1       9.806  14.596  17.972  0.00  0.00    +0.000 C 
BRANCH  31  32
ATOM     32  C   UNL     1       9.502  14.991  19.396  0.00  0.00    +0.000 A 
ATOM     33  C   UNL     1      10.433  14.630  20.384  0.00  0.00    +0.000 A 
ATOM     34  C   UNL     1      10.223  14.922  21.733  0.00  0.00    +0.000 A 
ATOM     35  C   UNL     1       9.063  15.580  22.118  0.00  0.00    +0.000 A 
ATOM     36  C   UNL     1       8.115  15.936  21.161  0.00  0.00    +0.000 A 
ATOM     37  C   UNL     1       8.302  15.636  19.798  0.00  0.00    +0.000 A 
ATOM     38  C   UNL     1       7.209  16.046  18.845  0.00  0.00    +0.000 C 
ENDBRANCH  31  32
ENDBRANCH  28  31
ENDBRANCH  25  26
ENDBRANCH  24  25
ENDBRANCH   8  24
TORSDOF 9
ENDMDL
MODEL 3
REMARK VINA RESULT:      -8.9      3.393      8.834
REMARK  Name = 
REMARK  11 active torsions:
REMARK  status: ('A' for Active; 'I' for Inactive)
REMARK    1  A    between atoms: C_1  and  O_2
REMARK    2  A    between atoms: O_2  and  C_3
REMARK    3  A    between atoms: C_6  and  C_7
REMARK    4  A    between atoms: C_12  and  O_13
REMARK    5  A    between atoms: C_15  and  O_16
REMARK    6  A    between atoms: O_16  and  C_17
REMARK    7  A    between atoms: C_17  and  C_18
REMARK    8  A    between atoms: N_20  and  C_21
REMARK    9  A    between atoms: C_21  and  C_22
REMARK   10  A    between atoms: C_27  and  C_28
REMARK   11  A    between atoms: C_35  and  O_36
REMARK                            x       y       z     vdW  Elec       q    Type
REMARK                         _______ _______ _______ _____ _____    ______ ____
ROOT
ATOM      1  C   UNL     1       3.520   5.460  17.337  0.00  0.00    +0.000 C 
ATOM      2  C   UNL     1       3.986   4.142  17.951  0.00  0.00    +0.000 C 
ATOM      3  C   UNL     1       5.207   4.368  18.795  0.00  0.00    +0.000 C 
ATOM      4  O   UNL     1       5.524   3.622  19.721  0.00  0.00    +0.000 OA
ATOM      5  C   UNL     1       6.067   5.509  18.444  0.00  0.00    +0.000 A 
ATOM      6  C   UNL     1       7.194   5.836  19.199  0.00  0.00    +0.000 A 
ATOM      7  C   UNL     1       7.956   6.945  18.855  0.00  0.00    +0.000 A 
ATOM      8  C   UNL     1       7.624   7.711  17.734  0.00  0.00    +0.000 A 
ATOM      9  C   UNL     1       6.519   7.370  16.957  0.00  0.00    +0.000 A 
ATOM     10  C   UNL     1       5.723   6.287  17.337  0.00  0.00    +0.000 A 
ATOM     11  O   UNL     1       4.597   6.063  16.586  0.00  0.00    +0.000 OA
ENDROOT
BRANCH   1  15
ATOM     12  C   UNL     1       1.609   8.494  19.841  0.00  0.00    +0.000 A 
ATOM     13  C   UNL     1       1.935   7.240  20.368  0.00  0.00    +0.000 A 
ATOM     14  C   UNL     1       2.541   6.250  19.587  0.00  0.00    +0.000 A 
ATOM     15  C   UNL     1       2.853   6.493  18.245  0.00  0.00    +0.000 A 
ATOM     16  C   UNL     1       2.511   7.752  17.711  0.00  0.00    +0.000 A 
ATOM     17  C   UNL     1       1.901   8.741  18.497  0.00  0.00    +0.000 A 
BRANCH  12  19
ATOM     18  C   UNL     1      -0.245   8.969  21.278  0.00  0.00    +0.000 C 
ATOM     19  O   UNL     1       1.027   9.323  20.759  0.00  0.00    +0.000 OA
ENDBRANCH  12  19
BRANCH  17  20
ATOM     20  O   UNL     1       1.603   9.941  17.913  0.00  0.00    +0.000 OA
ATOM     21  H   UNL     1       2.151  10.639  18.310  0.00  0.00    +0.000 HD
ENDBRANCH  17  20
ENDBRANCH   1  15
BRANCH   6  22
ATOM     22  O   UNL     1       7.592   5.128  20.299  0.00  0.00    +0.000 OA
ATOM     23  H   UNL     1       8.345   5.605  20.715  0.00  0.00    +0.000 HD
ENDBRANCH   6  22
BRANCH   8  24
ATOM     24  O   UNL     1       8.392   8.821  17.566  0.00  0.00    +0.000 OA
BRANCH  24  25
ATOM     25  C   UNL     1       8.908   9.473  18.731  0.00  0.00    +0.000 C 
BRANCH  25  26
ATOM     26  C   UNL     1       9.359  10.845  18.363  0.00  0.00    +0.000 A 
ATOM     27  C   UNL     1       8.619  11.895  17.858  0.00  0.00    +0.000 A 
ATOM     28  N   UNL     1       9.459  12.964  17.941  0.00  0.00    +0.000 N 
ATOM     29  N   UNL     1      10.691  12.575  18.334  0.00  0.00    +0.000 NA
ATOM     30  N   UNL     1      10.641  11.273  18.592  0.00  0.00    +0.000 NA
BRANCH  28  31
ATOM     31  C   UNL     1       9.073  14.373  17.958  0.00  0.00    +0.000 C 
BRANCH  31  32
ATOM     32  C   UNL     1       7.760  14.626  18.656  0.00  0.00    +0.000 A 
ATOM     33  C   UNL     1       6.643  14.914  17.855  0.00  0.00    +0.000 A 
ATOM     34  C   UNL     1       5.394  15.196  18.411  0.00  0.00    +0.000 A 
ATOM     35  C   UNL     1       5.244  15.199  19.791  0.00  0.00    +0.000 A 
ATOM     36  C   UNL     1       6.338  14.931  20.610  0.00  0.00    +0.000 A 
ATOM     37  C   UNL     1       7.610  14.662  20.068  0.00  0.00    +0.000 A 
ATOM     38  C   UNL     1       8.733  14.404  21.039  0.00  0.00    +0.000 C 
ENDBRANCH  31  32
ENDBRANCH  28  31
ENDBRANCH  25  26
ENDBRANCH  24  25
ENDBRANCH   8  24
TORSDOF 9
ENDMDL
MODEL 4
REMARK VINA RESULT:      -8.8      1.327      1.925
REMARK  Name = 
REMARK  11 active torsions:
REMARK  status: ('A' for Active; 'I' for Inactive)
REMARK    1  A    between atoms: C_1  and  O_2
REMARK    2  A    between atoms: O_2  and  C_3
REMARK    3  A    between atoms: C_6  and  C_7
REMARK    4  A    between atoms: C_12  and  O_13
REMARK    5  A    between atoms: C_15  and  O_16
REMARK    6  A    between atoms: O_16  and  C_17
REMARK    7  A    between atoms: C_17  and  C_18
REMARK    8  A    between atoms: N_20  and  C_21
REMARK    9  A    between atoms: C_21  and  C_22
REMARK   10  A    between atoms: C_27  and  C_28
REMARK   11  A    between atoms: C_35  and  O_36
REMARK                            x       y       z     vdW  Elec       q    Type
REMARK                         _______ _______ _______ _____ _____    ______ ____
ROOT
ATOM      1  C   UNL     1      10.358  13.603  21.126  0.00  0.00    +0.000 C 
ATOM      2  C   UNL     1      10.461  14.560  19.941  0.00  0.00    +0.000 C 
ATOM      3  C   UNL     1       9.597  14.080  18.810  0.00  0.00    +0.000 C 
ATOM      4  O   UNL     1       9.150  14.834  17.947  0.00  0.00    +0.000 OA
ATOM      5  C   UNL     1       9.332  12.634  18.733  0.00  0.00    +0.000 A 
ATOM      6  C   UNL     1       8.497  12.096  17.753  0.00  0.00    +0.000 A 
ATOM      7  C   UNL     1       8.243  10.730  17.739  0.00  0.00    +0.000 A 
ATOM      8  C   UNL     1       8.851   9.888  18.677  0.00  0.00    +0.000 A 
ATOM      9  C   UNL     1       9.710  10.417  19.636  0.00  0.00    +0.000 A 
ATOM     10  C   UNL     1       9.922  11.797  19.681  0.00  0.00    +0.000 A 
ATOM     11  O   UNL     1      10.702  12.263  20.709  0.00  0.00    +0.000 OA
ENDROOT
BRANCH   1  15
ATOM     12  C   UNL     1       6.699  13.470  23.516  0.00  0.00    +0.000 A 
ATOM     13  C   UNL     1       7.034  14.619  22.794  0.00  0.00    +0.000 A 
ATOM     14  C   UNL     1       8.201  14.690  22.025  0.00  0.00    +0.000 A 
ATOM     15  C   UNL     1       9.069  13.596  21.949  0.00  0.00    +0.000 A 
ATOM     16  C   UNL     1       8.739  12.444  22.690  0.00  0.00    +0.000 A 
ATOM     17  C   UNL     1       7.568  12.378  23.460  0.00  0.00    +0.000 A 
BRANCH  12  19
ATOM     18  C   UNL     1       5.455  14.527  25.267  0.00  0.00    +0.000 C 
ATOM     19  O   UNL     1       5.521  13.595  24.200  0.00  0.00    +0.000 OA
ENDBRANCH  12  19
BRANCH  17  20
ATOM     20  O   UNL     1       7.308  11.225  24.148  0.00  0.00    +0.000 OA
ATOM     21  H   UNL     1       7.049  10.528  23.523  0.00  0.00    +0.000 HD
ENDBRANCH  17  20
ENDBRANCH   1  15
BRANCH   6  22
ATOM     22  O   UNL     1       7.879  12.850  16.795  0.00  0.00    +0.000 OA
ATOM     23  H   UNL     1       8.254  12.602  15.919  0.00  0.00    +0.000 HD
ENDBRANCH   6  22
BRANCH   8  24
ATOM     24  O   UNL     1       8.442   8.593  18.612  0.00  0.00    +0.000 OA
BRANCH  24  25
ATOM     25  C   UNL     1       8.038   8.069  17.343  0.00  0.00    +0.000 C 
BRANCH  25  26
ATOM     26  C   UNL     1       7.101   6.931  17.561  0.00  0.00    +0.000 A 
ATOM     27  C   UNL     1       5.841   6.732  17.034  0.00  0.00    +0.000 A 
ATOM     28  N   UNL     1       5.546   5.442  17.355  0.00  0.00    +0.000 N 
ATOM     29  N   UNL     1       6.498   4.918  18.157  0.00  0.00    +0.000 NA
ATOM     30  N   UNL     1       7.457   5.828  18.293  0.00  0.00    +0.000 NA
BRANCH  28  31
ATOM     31  C   UNL     1       4.563   4.585  16.696  0.00  0.00    +0.000 C 
BRANCH  31  32
ATOM     32  C   UNL     1       3.570   3.968  17.650  0.00  0.00    +0.000 A 
ATOM     33  C   UNL     1       3.635   2.579  17.848  0.00  0.00    +0.000 A 
ATOM     34  C   UNL     1       2.737   1.914  18.684  0.00  0.00    +0.000 A 
ATOM     35  C   UNL     1       1.748   2.635  19.338  0.00  0.00    +0.000 A 
ATOM     36  C   UNL     1       1.651   4.012  19.149  0.00  0.00    +0.000 A 
ATOM     37  C   UNL     1       2.537   4.698  18.295  0.00  0.00    +0.000 A 
ATOM     38  C   UNL     1       2.336   6.183  18.143  0.00  0.00    +0.000 C 
ENDBRANCH  31  32
ENDBRANCH  28  31
ENDBRANCH  25  26
ENDBRANCH  24  25
ENDBRANCH   8  24
TORSDOF 9
ENDMDL
MODEL 5
REMARK VINA RESULT:      -8.7      3.584      9.270
REMARK  Name = 
REMARK  11 active torsions:
REMARK  status: ('A' for Active; 'I' for Inactive)
REMARK    1  A    between atoms: C_1  and  O_2
REMARK    2  A    between atoms: O_2  and  C_3
REMARK    3  A    between atoms: C_6  and  C_7
REMARK    4  A    between atoms: C_12  and  O_13
REMARK    5  A    between atoms: C_15  and  O_16
REMARK    6  A    between atoms: O_16  and  C_17
REMARK    7  A    between atoms: C_17  and  C_18
REMARK    8  A    between atoms: N_20  and  C_21
REMARK    9  A    between atoms: C_21  and  C_22
REMARK   10  A    between atoms: C_27  and  C_28
REMARK   11  A    between atoms: C_35  and  O_36
REMARK                            x       y       z     vdW  Elec       q    Type
REMARK                         _______ _______ _______ _____ _____    ______ ____
ROOT
ATOM      1  C   UNL     1       3.761   5.465  17.181  0.00  0.00    +0.000 C 
ATOM      2  C   UNL     1       4.173   4.165  17.870  0.00  0.00    +0.000 C 
ATOM      3  C   UNL     1       5.348   4.407  18.773  0.00  0.00    +0.000 C 
ATOM      4  O   UNL     1       5.600   3.693  19.742  0.00  0.00    +0.000 OA
ATOM      5  C   UNL     1       6.243   5.524  18.429  0.00  0.00    +0.000 A 
ATOM      6  C   UNL     1       7.330   5.864  19.234  0.00  0.00    +0.000 A 
ATOM      7  C   UNL     1       8.127   6.950  18.893  0.00  0.00    +0.000 A 
ATOM      8  C   UNL     1       7.869   7.677  17.727  0.00  0.00    +0.000 A 
ATOM      9  C   UNL     1       6.805   7.321  16.903  0.00  0.00    +0.000 A 
ATOM     10  C   UNL     1       5.973   6.263  17.276  0.00  0.00    +0.000 A 
ATOM     11  O   UNL     1       4.888   6.025  16.471  0.00  0.00    +0.000 OA
ENDROOT
BRANCH   1  15
ATOM     12  C   UNL     1       1.745   8.459  19.649  0.00  0.00    +0.000 A 
ATOM     13  C   UNL     1       2.160   8.771  18.351  0.00  0.00    +0.000 A 
ATOM     14  C   UNL     1       2.812   7.833  17.542  0.00  0.00    +0.000 A 
ATOM     15  C   UNL     1       3.060   6.540  18.012  0.00  0.00    +0.000 A 
ATOM     16  C   UNL     1       2.655   6.231  19.326  0.00  0.00    +0.000 A 
ATOM     17  C   UNL     1       2.003   7.175  20.134  0.00  0.00    +0.000 A 
BRANCH  12  19
ATOM     18  C   UNL     1      -0.202   9.830  19.897  0.00  0.00    +0.000 C 
ATOM     19  O   UNL     1       1.126   9.504  20.276  0.00  0.00    +0.000 OA
ENDBRANCH  12  19
BRANCH  17  20
ATOM     20  O   UNL     1       1.634   6.803  21.397  0.00  0.00    +0.000 OA
ATOM     21  H   UNL     1       0.841   7.297  21.660  0.00  0.00    +0.000 HD
ENDBRANCH  17  20
ENDBRANCH   1  15
BRANCH   6  22
ATOM     22  O   UNL     1       7.655   5.193  20.380  0.00  0.00    +0.000 OA
ATOM     23  H   UNL     1       7.189   5.625  21.132  0.00  0.00    +0.000 HD
ENDBRANCH   6  22
BRANCH   8  24
ATOM     24  O   UNL     1       8.663   8.770  17.563  0.00  0.00    +0.000 OA
BRANCH  24  25
ATOM     25  C   UNL     1       8.168  10.040  17.997  0.00  0.00    +0.000 C 
BRANCH  25  26
ATOM     26  C   UNL     1       9.223  10.728  18.794  0.00  0.00    +0.000 A 
ATOM     27  C   UNL     1      10.169  11.641  18.375  0.00  0.00    +0.000 A 
ATOM     28  N   UNL     1      10.701  12.125  19.533  0.00  0.00    +0.000 N 
ATOM     29  N   UNL     1      10.221  11.449  20.599  0.00  0.00    +0.000 NA
ATOM     30  N   UNL     1       9.314  10.585  20.154  0.00  0.00    +0.000 NA
BRANCH  28  31
ATOM     31  C   UNL     1      11.409  13.391  19.702  0.00  0.00    +0.000 C 
BRANCH  31  32
ATOM     32  C   UNL     1      10.643  14.581  19.177  0.00  0.00    +0.000 A 
ATOM     33  C   UNL     1       9.479  14.960  19.866  0.00  0.00    +0.000 A 
ATOM     34  C   UNL     1       8.686  16.025  19.436  0.00  0.00    +0.000 A 
ATOM     35  C   UNL     1       9.047  16.732  18.298  0.00  0.00    +0.000 A 
ATOM     36  C   UNL     1      10.189  16.369  17.587  0.00  0.00    +0.000 A 
ATOM     37  C   UNL     1      10.992  15.286  17.995  0.00  0.00    +0.000 A 
ATOM     38  C   UNL     1      12.194  14.961  17.147  0.00  0.00    +0.000 C 
ENDBRANCH  31  32
ENDBRANCH  28  31
ENDBRANCH  25  26
ENDBRANCH  24  25
ENDBRANCH   8  24
TORSDOF 9
ENDMDL
MODEL 6
REMARK VINA RESULT:      -8.7      1.673      2.416
REMARK  Name = 
REMARK  11 active torsions:
REMARK  status: ('A' for Active; 'I' for Inactive)
REMARK    1  A    between atoms: C_1  and  O_2
REMARK    2  A    between atoms: O_2  and  C_3
REMARK    3  A    between atoms: C_6  and  C_7
REMARK    4  A    between atoms: C_12  and  O_13
REMARK    5  A    between atoms: C_15  and  O_16
REMARK    6  A    between atoms: O_16  and  C_17
REMARK    7  A    between atoms: C_17  and  C_18
REMARK    8  A    between atoms: N_20  and  C_21
REMARK    9  A    between atoms: C_21  and  C_22
REMARK   10  A    between atoms: C_27  and  C_28
REMARK   11  A    between atoms: C_35  and  O_36
REMARK                            x       y       z     vdW  Elec       q    Type
REMARK                         _______ _______ _______ _____ _____    ______ ____
ROOT
ATOM      1  C   UNL     1      10.728  12.733  20.964  0.00  0.00    +0.000 C 
ATOM      2  C   UNL     1      10.889  13.891  19.981  0.00  0.00    +0.000 C 
ATOM      3  C   UNL     1       9.861  13.793  18.892  0.00  0.00    +0.000 C 
ATOM      4  O   UNL     1       9.476  14.769  18.250  0.00  0.00    +0.000 OA
ATOM      5  C   UNL     1       9.347  12.452  18.570  0.00  0.00    +0.000 A 
ATOM      6  C   UNL     1       8.351  12.261  17.612  0.00  0.00    +0.000 A 
ATOM      7  C   UNL     1       7.867  10.982  17.366  0.00  0.00    +0.000 A 
ATOM      8  C   UNL     1       8.401   9.882  18.044  0.00  0.00    +0.000 A 
ATOM      9  C   UNL     1       9.418  10.063  18.978  0.00  0.00    +0.000 A 
ATOM     10  C   UNL     1       9.865  11.356  19.262  0.00  0.00    +0.000 A 
ATOM     11  O   UNL     1      10.800  11.474  20.259  0.00  0.00    +0.000 OA
ENDROOT
BRANCH   1  15
ATOM     12  C   UNL     1       7.324  12.896  23.705  0.00  0.00    +0.000 A 
ATOM     13  C   UNL     1       7.749  11.676  23.171  0.00  0.00    +0.000 A 
ATOM     14  C   UNL     1       8.831  11.596  22.288  0.00  0.00    +0.000 A 
ATOM     15  C   UNL     1       9.534  12.748  21.919  0.00  0.00    +0.000 A 
ATOM     16  C   UNL     1       9.096  13.980  22.446  0.00  0.00    +0.000 A 
ATOM     17  C   UNL     1       8.009  14.055  23.329  0.00  0.00    +0.000 A 
BRANCH  12  19
ATOM     18  C   UNL     1       5.890  11.466  24.981  0.00  0.00    +0.000 C 
ATOM     19  O   UNL     1       6.256  12.767  24.548  0.00  0.00    +0.000 OA
ENDBRANCH  12  19
BRANCH  17  20
ATOM     20  O   UNL     1       7.644  15.284  23.805  0.00  0.00    +0.000 OA
ATOM     21  H   UNL     1       6.778  15.218  24.240  0.00  0.00    +0.000 HD
ENDBRANCH  17  20
ENDBRANCH   1  15
BRANCH   6  22
ATOM     22  O   UNL     1       7.790  13.283  16.898  0.00  0.00    +0.000 OA
ATOM     23  H   UNL     1       6.813  13.164  16.906  0.00  0.00    +0.000 HD
ENDBRANCH   6  22
BRANCH   8  24
ATOM     24  O   UNL     1       7.773   8.704  17.782  0.00  0.00    +0.000 OA
BRANCH  24  25
ATOM     25  C   UNL     1       8.238   7.523  18.442  0.00  0.00    +0.000 C 
BRANCH  25  26
ATOM     26  C   UNL     1       7.363   6.377  18.066  0.00  0.00    +0.000 A 
ATOM     27  C   UNL     1       5.990   6.342  17.931  0.00  0.00    +0.000 A 
ATOM     28  N   UNL     1       5.744   5.140  17.339  0.00  0.00    +0.000 N 
ATOM     29  N   UNL     1       6.878   4.412  17.245  0.00  0.00    +0.000 NA
ATOM     30  N   UNL     1       7.878   5.163  17.694  0.00  0.00    +0.000 NA
BRANCH  28  31
ATOM     31  C   UNL     1       4.549   4.772  16.584  0.00  0.00    +0.000 C 
BRANCH  31  32
ATOM     32  C   UNL     1       3.476   4.135  17.433  0.00  0.00    +0.000 A 
ATOM     33  C   UNL     1       3.441   2.732  17.491  0.00  0.00    +0.000 A 
ATOM     34  C   UNL     1       2.465   2.052  18.222  0.00  0.00    +0.000 A 
ATOM     35  C   UNL     1       1.498   2.773  18.908  0.00  0.00    +0.000 A 
ATOM     36  C   UNL     1       1.501   4.165  18.856  0.00  0.00    +0.000 A 
ATOM     37  C   UNL     1       2.467   4.868  18.110  0.00  0.00    +0.000 A 
ATOM     38  C   UNL     1       2.372   6.372  18.102  0.00  0.00    +0.000 C 
ENDBRANCH  31  32
ENDBRANCH  28  31
ENDBRANCH  25  26
ENDBRANCH  24  25
ENDBRANCH   8  24
TORSDOF 9
ENDMDL
MODEL 7
REMARK VINA RESULT:      -8.6      3.531      9.576
REMARK  Name = 
REMARK  11 active torsions:
REMARK  status: ('A' for Active; 'I' for Inactive)
REMARK    1  A    between atoms: C_1  and  O_2
REMARK    2  A    between atoms: O_2  and  C_3
REMARK    3  A    between atoms: C_6  and  C_7
REMARK    4  A    between atoms: C_12  and  O_13
REMARK    5  A    between atoms: C_15  and  O_16
REMARK    6  A    between atoms: O_16  and  C_17
REMARK    7  A    between atoms: C_17  and  C_18
REMARK    8  A    between atoms: N_20  and  C_21
REMARK    9  A    between atoms: C_21  and  C_22
REMARK   10  A    between atoms: C_27  and  C_28
REMARK   11  A    between atoms: C_35  and  O_36
REMARK                            x       y       z     vdW  Elec       q    Type
REMARK                         _______ _______ _______ _____ _____    ______ ____
ROOT
ATOM      1  C   UNL     1       3.908   5.598  17.139  0.00  0.00    +0.000 C 
ATOM      2  C   UNL     1       4.354   4.277  17.761  0.00  0.00    +0.000 C 
ATOM      3  C   UNL     1       5.500   4.508  18.703  0.00  0.00    +0.000 C 
ATOM      4  O   UNL     1       5.759   3.749  19.635  0.00  0.00    +0.000 OA
ATOM      5  C   UNL     1       6.360   5.674  18.443  0.00  0.00    +0.000 A 
ATOM      6  C   UNL     1       7.417   6.006  19.291  0.00  0.00    +0.000 A 
ATOM      7  C   UNL     1       8.180   7.138  19.031  0.00  0.00    +0.000 A 
ATOM      8  C   UNL     1       7.919   7.922  17.902  0.00  0.00    +0.000 A 
ATOM      9  C   UNL     1       6.886   7.576  17.035  0.00  0.00    +0.000 A 
ATOM     10  C   UNL     1       6.086   6.469  17.328  0.00  0.00    +0.000 A 
ATOM     11  O   UNL     1       5.027   6.239  16.487  0.00  0.00    +0.000 OA
ENDROOT
BRANCH   1  15
ATOM     12  C   UNL     1       1.741   8.536  19.546  0.00  0.00    +0.000 A 
ATOM     13  C   UNL     1       2.068   7.285  20.077  0.00  0.00    +0.000 A 
ATOM     14  C   UNL     1       2.756   6.325  19.327  0.00  0.00    +0.000 A 
ATOM     15  C   UNL     1       3.150   6.598  18.013  0.00  0.00    +0.000 A 
ATOM     16  C   UNL     1       2.807   7.854  17.473  0.00  0.00    +0.000 A 
ATOM     17  C   UNL     1       2.116   8.813  18.229  0.00  0.00    +0.000 A 
BRANCH  12  19
ATOM     18  C   UNL     1      -0.135   9.947  20.014  0.00  0.00    +0.000 C 
ATOM     19  O   UNL     1       1.074   9.334  20.433  0.00  0.00    +0.000 OA
ENDBRANCH  12  19
BRANCH  17  20
ATOM     20  O   UNL     1       1.822  10.013  17.642  0.00  0.00    +0.000 OA
ATOM     21  H   UNL     1       0.907   9.999  17.319  0.00  0.00    +0.000 HD
ENDBRANCH  17  20
ENDBRANCH   1  15
BRANCH   6  22
ATOM     22  O   UNL     1       7.743   5.283  20.404  0.00  0.00    +0.000 OA
ATOM     23  H   UNL     1       8.498   5.728  20.850  0.00  0.00    +0.000 HD
ENDBRANCH   6  22
BRANCH   8  24
ATOM     24  O   UNL     1       8.674   9.050  17.819  0.00  0.00    +0.000 OA
BRANCH  24  25
ATOM     25  C   UNL     1       8.997   9.743  19.028  0.00  0.00    +0.000 C 
BRANCH  25  26
ATOM     26  C   UNL     1       9.627  11.051  18.688  0.00  0.00    +0.000 A 
ATOM     27  C   UNL     1       9.629  12.227  19.409  0.00  0.00    +0.000 A 
ATOM     28  N   UNL     1      10.543  13.008  18.770  0.00  0.00    +0.000 N 
ATOM     29  N   UNL     1      10.975  12.412  17.638  0.00  0.00    +0.000 NA
ATOM     30  N   UNL     1      10.414  11.209  17.576  0.00  0.00    +0.000 NA
BRANCH  28  31
ATOM     31  C   UNL     1      11.253  14.154  19.334  0.00  0.00    +0.000 C 
BRANCH  31  32
ATOM     32  C   UNL     1      10.730  15.482  18.847  0.00  0.00    +0.000 A 
ATOM     33  C   UNL     1      11.252  15.984  17.643  0.00  0.00    +0.000 A 
ATOM     34  C   UNL     1      10.855  17.220  17.129  0.00  0.00    +0.000 A 
ATOM     35  C   UNL     1       9.924  17.982  17.822  0.00  0.00    +0.000 A 
ATOM     36  C   UNL     1       9.401  17.515  19.026  0.00  0.00    +0.000 A 
ATOM     37  C   UNL     1       9.802  16.279  19.568  0.00  0.00    +0.000 A 
ATOM     38  C   UNL     1       9.192  15.873  20.885  0.00  0.00    +0.000 C 
ENDBRANCH  31  32
ENDBRANCH  28  31
ENDBRANCH  25  26
ENDBRANCH  24  25
ENDBRANCH   8  24
TORSDOF 9
ENDMDL
MODEL 8
REMARK VINA RESULT:      -8.5      3.620      9.539
REMARK  Name = 
REMARK  11 active torsions:
REMARK  status: ('A' for Active; 'I' for Inactive)
REMARK    1  A    between atoms: C_1  and  O_2
REMARK    2  A    between atoms: O_2  and  C_3
REMARK    3  A    between atoms: C_6  and  C_7
REMARK    4  A    between atoms: C_12  and  O_13
REMARK    5  A    between atoms: C_15  and  O_16
REMARK    6  A    between atoms: O_16  and  C_17
REMARK    7  A    between atoms: C_17  and  C_18
REMARK    8  A    between atoms: N_20  and  C_21
REMARK    9  A    between atoms: C_21  and  C_22
REMARK   10  A    between atoms: C_27  and  C_28
REMARK   11  A    between atoms: C_35  and  O_36
REMARK                            x       y       z     vdW  Elec       q    Type
REMARK                         _______ _______ _______ _____ _____    ______ ____
ROOT
ATOM      1  C   UNL     1       3.989   5.610  17.001  0.00  0.00    +0.000 C 
ATOM      2  C   UNL     1       4.457   4.280  17.586  0.00  0.00    +0.000 C 
ATOM      3  C   UNL     1       5.588   4.505  18.546  0.00  0.00    +0.000 C 
ATOM      4  O   UNL     1       5.854   3.722  19.457  0.00  0.00    +0.000 OA
ATOM      5  C   UNL     1       6.425   5.696  18.334  0.00  0.00    +0.000 A 
ATOM      6  C   UNL     1       7.466   6.023  19.203  0.00  0.00    +0.000 A 
ATOM      7  C   UNL     1       8.207   7.179  18.987  0.00  0.00    +0.000 A 
ATOM      8  C   UNL     1       7.941   7.992  17.881  0.00  0.00    +0.000 A 
ATOM      9  C   UNL     1       6.924   7.653  16.993  0.00  0.00    +0.000 A 
ATOM     10  C   UNL     1       6.146   6.520  17.242  0.00  0.00    +0.000 A 
ATOM     11  O   UNL     1       5.100   6.296  16.382  0.00  0.00    +0.000 OA
ENDROOT
BRANCH   1  15
ATOM     12  C   UNL     1       1.733   8.254  19.656  0.00  0.00    +0.000 A 
ATOM     13  C   UNL     1       2.113   8.683  18.380  0.00  0.00    +0.000 A 
ATOM     14  C   UNL     1       2.839   7.860  17.514  0.00  0.00    +0.000 A 
ATOM     15  C   UNL     1       3.201   6.565  17.899  0.00  0.00    +0.000 A 
ATOM     16  C   UNL     1       2.831   6.138  19.191  0.00  0.00    +0.000 A 
ATOM     17  C   UNL     1       2.104   6.968  20.057  0.00  0.00    +0.000 A 
BRANCH  12  19
ATOM     18  C   UNL     1       0.788  10.452  19.728  0.00  0.00    +0.000 C 
ATOM     19  O   UNL     1       1.029   9.199  20.348  0.00  0.00    +0.000 OA
ENDBRANCH  12  19
BRANCH  17  20
ATOM     20  O   UNL     1       1.775   6.485  21.293  0.00  0.00    +0.000 OA
ATOM     21  H   UNL     1       1.069   7.031  21.676  0.00  0.00    +0.000 HD
ENDBRANCH  17  20
ENDBRANCH   1  15
BRANCH   6  22
ATOM     22  O   UNL     1       7.797   5.272  20.296  0.00  0.00    +0.000 OA
ATOM     23  H   UNL     1       8.759   5.073  20.252  0.00  0.00    +0.000 HD
ENDBRANCH   6  22
BRANCH   8  24
ATOM     24  O   UNL     1       8.672   9.139  17.842  0.00  0.00    +0.000 OA
BRANCH  24  25
ATOM     25  C   UNL     1       9.079   9.729  19.080  0.00  0.00    +0.000 C 
BRANCH  25  26
ATOM     26  C   UNL     1       9.245  11.198  18.889  0.00  0.00    +0.000 A 
ATOM     27  C   UNL     1       9.863  12.116  19.714  0.00  0.00    +0.000 A 
ATOM     28  N   UNL     1       9.946  13.243  18.954  0.00  0.00    +0.000 N 
ATOM     29  N   UNL     1       9.289  13.082  17.785  0.00  0.00    +0.000 NA
ATOM     30  N   UNL     1       8.851  11.829  17.738  0.00  0.00    +0.000 NA
BRANCH  28  31
ATOM     31  C   UNL     1      10.870  14.358  19.151  0.00  0.00    +0.000 C 
BRANCH  31  32
ATOM     32  C   UNL     1      10.234  15.709  18.934  0.00  0.00    +0.000 A 
ATOM     33  C   UNL     1       9.125  16.040  19.730  0.00  0.00    +0.000 A 
ATOM     34  C   UNL     1       8.449  17.253  19.579  0.00  0.00    +0.000 A 
ATOM     35  C   UNL     1       8.875  18.159  18.618  0.00  0.00    +0.000 A 
ATOM     36  C   UNL     1       9.964  17.850  17.805  0.00  0.00    +0.000 A 
ATOM     37  C   UNL     1      10.647  16.624  17.930  0.00  0.00    +0.000 A 
ATOM     38  C   UNL     1      11.799  16.378  16.991  0.00  0.00    +0.000 C 
ENDBRANCH  31  32
ENDBRANCH  28  31
ENDBRANCH  25  26
ENDBRANCH  24  25
ENDBRANCH   8  24
TORSDOF 9
ENDMDL
MODEL 9
REMARK VINA RESULT:      -8.5      3.994      7.510
REMARK  Name = 
REMARK  11 active torsions:
REMARK  status: ('A' for Active; 'I' for Inactive)
REMARK    1  A    between atoms: C_1  and  O_2
REMARK    2  A    between atoms: O_2  and  C_3
REMARK    3  A    between atoms: C_6  and  C_7
REMARK    4  A    between atoms: C_12  and  O_13
REMARK    5  A    between atoms: C_15  and  O_16
REMARK    6  A    between atoms: O_16  and  C_17
REMARK    7  A    between atoms: C_17  and  C_18
REMARK    8  A    between atoms: N_20  and  C_21
REMARK    9  A    between atoms: C_21  and  C_22
REMARK   10  A    between atoms: C_27  and  C_28
REMARK   11  A    between atoms: C_35  and  O_36
REMARK                            x       y       z     vdW  Elec       q    Type
REMARK                         _______ _______ _______ _____ _____    ______ ____
ROOT
ATOM      1  C   UNL     1      -0.501  12.853  19.132  0.00  0.00    +0.000 C 
ATOM      2  C   UNL     1      -1.597  12.980  20.187  0.00  0.00    +0.000 C 
ATOM      3  C   UNL     1      -1.291  12.095  21.361  0.00  0.00    +0.000 C 
ATOM      4  O   UNL     1      -1.729  12.312  22.490  0.00  0.00    +0.000 OA
ATOM      5  C   UNL     1      -0.471  10.900  21.108  0.00  0.00    +0.000 A 
ATOM      6  C   UNL     1      -0.086  10.045  22.141  0.00  0.00    +0.000 A 
ATOM      7  C   UNL     1       0.721   8.949  21.863  0.00  0.00    +0.000 A 
ATOM      8  C   UNL     1       1.116   8.676  20.549  0.00  0.00    +0.000 A 
ATOM      9  C   UNL     1       0.708   9.508  19.510  0.00  0.00    +0.000 A 
ATOM     10  C   UNL     1      -0.059  10.640  19.800  0.00  0.00    +0.000 A 
ATOM     11  O   UNL     1      -0.347  11.469  18.745  0.00  0.00    +0.000 OA
ENDROOT
BRANCH   1  15
ATOM     12  C   UNL     1       3.434  14.628  19.829  0.00  0.00    +0.000 A 
ATOM     13  C   UNL     1       2.417  14.758  20.780  0.00  0.00    +0.000 A 
ATOM     14  C   UNL     1       1.148  14.205  20.579  0.00  0.00    +0.000 A 
ATOM     15  C   UNL     1       0.861  13.488  19.413  0.00  0.00    +0.000 A 
ATOM     16  C   UNL     1       1.882  13.370  18.448  0.00  0.00    +0.000 A 
ATOM     17  C   UNL     1       3.152  13.928  18.653  0.00  0.00    +0.000 A 
BRANCH  12  19
ATOM     18  C   UNL     1       5.298  14.714  21.328  0.00  0.00    +0.000 C 
ATOM     19  O   UNL     1       4.599  15.234  20.208  0.00  0.00    +0.000 OA
ENDBRANCH  12  19
BRANCH  17  20
ATOM     20  O   UNL     1       4.096  13.769  17.676  0.00  0.00    +0.000 OA
ATOM     21  H   UNL     1       4.980  13.885  18.059  0.00  0.00    +0.000 HD
ENDBRANCH  17  20
ENDBRANCH   1  15
BRANCH   6  22
ATOM     22  O   UNL     1      -0.443  10.236  23.446  0.00  0.00    +0.000 OA
ATOM     23  H   UNL     1       0.233   9.804  24.016  0.00  0.00    +0.000 HD
ENDBRANCH   6  22
BRANCH   8  24
ATOM     24  O   UNL     1       1.981   7.633  20.431  0.00  0.00    +0.000 OA
BRANCH  24  25
ATOM     25  C   UNL     1       1.499   6.315  20.709  0.00  0.00    +0.000 C 
BRANCH  25  26
ATOM     26  C   UNL     1       2.337   5.324  19.976  0.00  0.00    +0.000 A 
ATOM     27  C   UNL     1       2.784   5.363  18.671  0.00  0.00    +0.000 A 
ATOM     28  N   UNL     1       3.697   4.354  18.601  0.00  0.00    +0.000 N 
ATOM     29  N   UNL     1       3.709   3.640  19.748  0.00  0.00    +0.000 NA
ATOM     30  N   UNL     1       2.873   4.227  20.598  0.00  0.00    +0.000 NA
BRANCH  28  31
ATOM     31  C   UNL     1       4.770   4.220  17.619  0.00  0.00    +0.000 C 
BRANCH  31  32
ATOM     32  C   UNL     1       5.861   5.249  17.779  0.00  0.00    +0.000 A 
ATOM     33  C   UNL     1       6.774   5.071  18.831  0.00  0.00    +0.000 A 
ATOM     34  C   UNL     1       7.797   5.988  19.079  0.00  0.00    +0.000 A 
ATOM     35  C   UNL     1       7.920   7.111  18.273  0.00  0.00    +0.000 A 
ATOM     36  C   UNL     1       7.019   7.320  17.231  0.00  0.00    +0.000 A 
ATOM     37  C   UNL     1       5.971   6.415  16.976  0.00  0.00    +0.000 A 
ATOM     38  C   UNL     1       5.039   6.742  15.838  0.00  0.00    +0.000 C 
ENDBRANCH  31  32
ENDBRANCH  28  31
ENDBRANCH  25  26
ENDBRANCH  24  25
ENDBRANCH   8  24
TORSDOF 9
ENDMDL
