MODEL 1
REMARK VINA RESULT:      -8.4      0.000      0.000
REMARK  Name = 
REMARK  6 active torsions:
REMARK  status: ('A' for Active; 'I' for Inactive)
REMARK    1  A    between atoms: C_2  and  C_3
REMARK    2  A    between atoms: C_3  and  C_4
REMARK    3  A    between atoms: C_4  and  C_5
REMARK    4  A    between atoms: N_11  and  C_12
REMARK    5  A    between atoms: N_15  and  C_16
REMARK    6  A    between atoms: C_16  and  C_17
REMARK                            x       y       z     vdW  Elec       q    Type
REMARK                         _______ _______ _______ _____ _____    ______ ____
ROOT
ATOM      1  C   UNL     1       7.292   6.036  16.713  0.00  0.00    +0.000 C 
ATOM      2  C   UNL     1       6.285   5.778  15.588  0.00  0.00    +0.000 C 
ATOM      3  C   UNL     1       4.866   6.213  15.968  0.00  0.00    +0.000 C 
ATOM      4  N   UNL     1       4.382   5.580  17.211  0.00  0.00    +0.000 NA
ATOM      5  C   UNL     1       5.326   5.819  18.316  0.00  0.00    +0.000 C 
ATOM      6  C   UNL     1       6.770   5.405  18.003  0.00  0.00    +0.000 C 
ENDROOT
BRANCH   1   9
ATOM      7  O   UNL     1       8.532   7.328  18.948  0.00  0.00    +0.000 OA
ATOM      8  C   UNL     1       8.164   8.005  17.996  0.00  0.00    +0.000 C 
ATOM      9  N   UNL     1       7.551   7.472  16.873  0.00  0.00    +0.000 N 
ATOM     10  H   UNL     1       7.109   8.119  16.236  0.00  0.00    +0.000 HD
BRANCH   8  11
ATOM     11  C   UNL     1       8.307   9.515  17.952  0.00  0.00    +0.000 C 
BRANCH  11  12
ATOM     12  C   UNL     1       9.225  10.027  19.062  0.00  0.00    +0.000 C 
BRANCH  12  13
ATOM     13  C   UNL     1      10.008  11.245  18.645  0.00  0.00    +0.000 A 
ATOM     14  C   UNL     1       9.444  12.231  17.831  0.00  0.00    +0.000 A 
ATOM     15  C   UNL     1      10.195  13.347  17.474  0.00  0.00    +0.000 A 
ATOM     16  C   UNL     1      11.498  13.437  17.937  0.00  0.00    +0.000 A 
ATOM     17  N   UNL     1      12.085  12.498  18.707  0.00  0.00    +0.000 NA
ATOM     18  C   UNL     1      11.330  11.428  19.044  0.00  0.00    +0.000 A 
ENDBRANCH  12  13
ENDBRANCH  11  12
ENDBRANCH   8  11
ENDBRANCH   1   9
BRANCH   4  19
ATOM     19  C   UNL     1       3.025   6.114  17.533  0.00  0.00    +0.000 C 
BRANCH  19  20
ATOM     20  C   UNL     1       2.562   5.762  18.925  0.00  0.00    +0.000 A 
ATOM     21  C   UNL     1       2.270   6.643  19.952  0.00  0.00    +0.000 A 
ATOM     22  N   UNL     1       1.823   5.926  21.031  0.00  0.00    +0.000 N 
ATOM     23  C   UNL     1       1.800   4.584  20.737  0.00  0.00    +0.000 A 
ATOM     24  C   UNL     1       1.348   3.499  21.505  0.00  0.00    +0.000 A 
ATOM     25  C   UNL     1       1.416   2.227  20.932  0.00  0.00    +0.000 A 
ATOM     26  C   UNL     1       1.984   2.041  19.677  0.00  0.00    +0.000 A 
ATOM     27  C   UNL     1       2.476   3.131  18.943  0.00  0.00    +0.000 A 
ATOM     28  C   UNL     1       2.328   4.440  19.452  0.00  0.00    +0.000 A 
ATOM     29  H   UNL     1       1.516   6.324  21.907  0.00  0.00    +0.000 HD
ENDBRANCH  19  20
ENDBRANCH   4  19
TORSDOF 6
ENDMDL
MODEL 2
REMARK VINA RESULT:      -8.2      5.889     10.021
REMARK  Name = 
REMARK  6 active torsions:
REMARK  status: ('A' for Active; 'I' for Inactive)
REMARK    1  A    between atoms: C_2  and  C_3
REMARK    2  A    between atoms: C_3  and  C_4
REMARK    3  A    between atoms: C_4  and  C_5
REMARK    4  A    between atoms: N_11  and  C_12
REMARK    5  A    between atoms: N_15  and  C_16
REMARK    6  A    between atoms: C_16  and  C_17
REMARK                            x       y       z     vdW  Elec       q    Type
REMARK                         _______ _______ _______ _____ _____    ______ ____
ROOT
ATOM      1  C   UNL     1       0.991  10.141  18.765  0.00  0.00    +0.000 C 
ATOM      2  C   UNL     1       2.247   9.915  17.917  0.00  0.00    +0.000 C 
ATOM      3  C   UNL     1       2.466   8.434  17.590  0.00  0.00    +0.000 C 
ATOM      4  N   UNL     1       2.530   7.581  18.794  0.00  0.00    +0.000 NA
ATOM      5  C   UNL     1       1.331   7.770  19.627  0.00  0.00    +0.000 C 
ATOM      6  C   UNL     1       1.049   9.234  19.993  0.00  0.00    +0.000 C 
ENDROOT
BRANCH   1   9
ATOM      7  O   UNL     1      -1.102  12.027  18.255  0.00  0.00    +0.000 OA
ATOM      8  C   UNL     1      -1.186  10.900  17.782  0.00  0.00    +0.000 C 
ATOM      9  N   UNL     1      -0.228   9.918  17.977  0.00  0.00    +0.000 N 
ATOM     10  H   UNL     1      -0.474   8.973  17.720  0.00  0.00    +0.000 HD
BRANCH   8  11
ATOM     11  C   UNL     1      -2.371  10.437  16.954  0.00  0.00    +0.000 C 
BRANCH  11  12
ATOM     12  C   UNL     1      -3.488   9.875  17.833  0.00  0.00    +0.000 C 
BRANCH  12  13
ATOM     13  C   UNL     1      -4.730  10.728  17.801  0.00  0.00    +0.000 A 
ATOM     14  C   UNL     1      -5.837  10.434  18.601  0.00  0.00    +0.000 A 
ATOM     15  C   UNL     1      -6.963  11.252  18.552  0.00  0.00    +0.000 A 
ATOM     16  C   UNL     1      -6.949  12.337  17.691  0.00  0.00    +0.000 A 
ATOM     17  N   UNL     1      -5.908  12.643  16.888  0.00  0.00    +0.000 NA
ATOM     18  C   UNL     1      -4.825  11.835  16.962  0.00  0.00    +0.000 A 
ENDBRANCH  12  13
ENDBRANCH  11  12
ENDBRANCH   8  11
ENDBRANCH   1   9
BRANCH   4  19
ATOM     19  C   UNL     1       2.679   6.156  18.374  0.00  0.00    +0.000 C 
BRANCH  19  20
ATOM     20  C   UNL     1       4.103   5.660  18.446  0.00  0.00    +0.000 A 
ATOM     21  C   UNL     1       4.784   5.245  19.578  0.00  0.00    +0.000 A 
ATOM     22  N   UNL     1       6.029   4.812  19.207  0.00  0.00    +0.000 N 
ATOM     23  C   UNL     1       6.187   4.919  17.845  0.00  0.00    +0.000 A 
ATOM     24  C   UNL     1       7.257   4.527  17.026  0.00  0.00    +0.000 A 
ATOM     25  C   UNL     1       7.130   4.731  15.651  0.00  0.00    +0.000 A 
ATOM     26  C   UNL     1       6.013   5.372  15.127  0.00  0.00    +0.000 A 
ATOM     27  C   UNL     1       4.973   5.801  15.966  0.00  0.00    +0.000 A 
ATOM     28  C   UNL     1       5.027   5.517  17.348  0.00  0.00    +0.000 A 
ATOM     29  H   UNL     1       6.724   4.430  19.833  0.00  0.00    +0.000 HD
ENDBRANCH  19  20
ENDBRANCH   4  19
TORSDOF 6
ENDMDL
MODEL 3
REMARK VINA RESULT:      -8.1      4.339      6.972
REMARK  Name = 
REMARK  6 active torsions:
REMARK  status: ('A' for Active; 'I' for Inactive)
REMARK    1  A    between atoms: C_2  and  C_3
REMARK    2  A    between atoms: C_3  and  C_4
REMARK    3  A    between atoms: C_4  and  C_5
REMARK    4  A    between atoms: N_11  and  C_12
REMARK    5  A    between atoms: N_15  and  C_16
REMARK    6  A    between atoms: C_16  and  C_17
REMARK                            x       y       z     vdW  Elec       q    Type
REMARK                         _______ _______ _______ _____ _____    ______ ____
ROOT
ATOM      1  C   UNL     1       2.778   5.614  19.456  0.00  0.00    +0.000 C 
ATOM      2  C   UNL     1       2.278   5.980  18.054  0.00  0.00    +0.000 C 
ATOM      3  C   UNL     1       2.268   7.494  17.818  0.00  0.00    +0.000 C 
ATOM      4  N   UNL     1       1.478   8.229  18.826  0.00  0.00    +0.000 NA
ATOM      5  C   UNL     1       1.942   7.905  20.186  0.00  0.00    +0.000 C 
ATOM      6  C   UNL     1       1.977   6.402  20.491  0.00  0.00    +0.000 C 
ENDROOT
BRANCH   1   9
ATOM      7  O   UNL     1       4.889   3.749  18.940  0.00  0.00    +0.000 OA
ATOM      8  C   UNL     1       5.171   4.885  19.304  0.00  0.00    +0.000 C 
ATOM      9  N   UNL     1       4.221   5.854  19.582  0.00  0.00    +0.000 N 
ATOM     10  H   UNL     1       4.535   6.687  20.059  0.00  0.00    +0.000 HD
BRANCH   8  11
ATOM     11  C   UNL     1       6.598   5.350  19.526  0.00  0.00    +0.000 C 
BRANCH  11  12
ATOM     12  C   UNL     1       7.090   6.231  18.377  0.00  0.00    +0.000 C 
BRANCH  12  13
ATOM     13  C   UNL     1       6.648   5.719  17.031  0.00  0.00    +0.000 A 
ATOM     14  C   UNL     1       5.620   6.340  16.316  0.00  0.00    +0.000 A 
ATOM     15  C   UNL     1       5.246   5.844  15.070  0.00  0.00    +0.000 A 
ATOM     16  C   UNL     1       5.909   4.730  14.580  0.00  0.00    +0.000 A 
ATOM     17  N   UNL     1       6.892   4.091  15.248  0.00  0.00    +0.000 NA
ATOM     18  C   UNL     1       7.239   4.598  16.452  0.00  0.00    +0.000 A 
ENDBRANCH  12  13
ENDBRANCH  11  12
ENDBRANCH   8  11
ENDBRANCH   1   9
BRANCH   4  19
ATOM     19  C   UNL     1       1.582   9.693  18.553  0.00  0.00    +0.000 C 
BRANCH  19  20
ATOM     20  C   UNL     1       0.356  10.466  18.975  0.00  0.00    +0.000 A 
ATOM     21  C   UNL     1       0.250  11.341  20.042  0.00  0.00    +0.000 A 
ATOM     22  N   UNL     1      -1.008  11.882  20.044  0.00  0.00    +0.000 N 
ATOM     23  C   UNL     1      -1.740  11.392  18.988  0.00  0.00    +0.000 A 
ATOM     24  C   UNL     1      -3.035  11.721  18.558  0.00  0.00    +0.000 A 
ATOM     25  C   UNL     1      -3.521  11.079  17.418  0.00  0.00    +0.000 A 
ATOM     26  C   UNL     1      -2.775  10.094  16.782  0.00  0.00    +0.000 A 
ATOM     27  C   UNL     1      -1.500   9.744  17.254  0.00  0.00    +0.000 A 
ATOM     28  C   UNL     1      -0.941  10.447  18.343  0.00  0.00    +0.000 A 
ATOM     29  H   UNL     1      -1.345  12.572  20.700  0.00  0.00    +0.000 HD
ENDBRANCH  19  20
ENDBRANCH   4  19
TORSDOF 6
ENDMDL
MODEL 4
REMARK VINA RESULT:      -8.0      1.178      1.407
REMARK  Name = 
REMARK  6 active torsions:
REMARK  status: ('A' for Active; 'I' for Inactive)
REMARK    1  A    between atoms: C_2  and  C_3
REMARK    2  A    between atoms: C_3  and  C_4
REMARK    3  A    between atoms: C_4  and  C_5
REMARK    4  A    between atoms: N_11  and  C_12
REMARK    5  A    between atoms: N_15  and  C_16
REMARK    6  A    between atoms: C_16  and  C_17
REMARK                            x       y       z     vdW  Elec       q    Type
REMARK                         _______ _______ _______ _____ _____    ______ ____
ROOT
ATOM      1  C   UNL     1       7.670   5.355  16.314  0.00  0.00    +0.000 C 
ATOM      2  C   UNL     1       6.807   4.978  15.105  0.00  0.00    +0.000 C 
ATOM      3  C   UNL     1       5.309   5.087  15.407  0.00  0.00    +0.000 C 
ATOM      4  N   UNL     1       4.895   4.281  16.573  0.00  0.00    +0.000 NA
ATOM      5  C   UNL     1       5.702   4.627  17.755  0.00  0.00    +0.000 C 
ATOM      6  C   UNL     1       7.216   4.540  17.524  0.00  0.00    +0.000 C 
ENDROOT
BRANCH   1   9
ATOM      7  O   UNL     1       8.325   6.692  18.760  0.00  0.00    +0.000 OA
ATOM      8  C   UNL     1       7.957   7.355  17.797  0.00  0.00    +0.000 C 
ATOM      9  N   UNL     1       7.614   6.798  16.575  0.00  0.00    +0.000 N 
ATOM     10  H   UNL     1       7.140   7.394  15.912  0.00  0.00    +0.000 HD
BRANCH   8  11
ATOM     11  C   UNL     1       7.800   8.864  17.844  0.00  0.00    +0.000 C 
BRANCH  11  12
ATOM     12  C   UNL     1       8.771   9.501  18.839  0.00  0.00    +0.000 C 
BRANCH  12  13
ATOM     13  C   UNL     1       9.358  10.789  18.324  0.00  0.00    +0.000 A 
ATOM     14  C   UNL     1      10.739  11.001  18.295  0.00  0.00    +0.000 A 
ATOM     15  C   UNL     1      11.245  12.200  17.803  0.00  0.00    +0.000 A 
ATOM     16  C   UNL     1      10.349  13.160  17.362  0.00  0.00    +0.000 A 
ATOM     17  N   UNL     1       9.009  13.002  17.392  0.00  0.00    +0.000 NA
ATOM     18  C   UNL     1       8.545  11.824  17.869  0.00  0.00    +0.000 A 
ENDBRANCH  12  13
ENDBRANCH  11  12
ENDBRANCH   8  11
ENDBRANCH   1   9
BRANCH   4  19
ATOM     19  C   UNL     1       3.440   4.502  16.826  0.00  0.00    +0.000 C 
BRANCH  19  20
ATOM     20  C   UNL     1       3.130   4.834  18.265  0.00  0.00    +0.000 A 
ATOM     21  C   UNL     1       3.170   6.084  18.858  0.00  0.00    +0.000 A 
ATOM     22  N   UNL     1       2.759   5.967  20.159  0.00  0.00    +0.000 N 
ATOM     23  C   UNL     1       2.433   4.662  20.441  0.00  0.00    +0.000 A 
ATOM     24  C   UNL     1       1.898   4.097  21.610  0.00  0.00    +0.000 A 
ATOM     25  C   UNL     1       1.632   2.727  21.604  0.00  0.00    +0.000 A 
ATOM     26  C   UNL     1       1.960   1.942  20.505  0.00  0.00    +0.000 A 
ATOM     27  C   UNL     1       2.539   2.515  19.362  0.00  0.00    +0.000 A 
ATOM     28  C   UNL     1       2.726   3.913  19.299  0.00  0.00    +0.000 A 
ATOM     29  H   UNL     1       2.668   6.732  20.813  0.00  0.00    +0.000 HD
ENDBRANCH  19  20
ENDBRANCH   4  19
TORSDOF 6
ENDMDL
MODEL 5
REMARK VINA RESULT:      -7.8      5.953      9.959
REMARK  Name = 
REMARK  6 active torsions:
REMARK  status: ('A' for Active; 'I' for Inactive)
REMARK    1  A    between atoms: C_2  and  C_3
REMARK    2  A    between atoms: C_3  and  C_4
REMARK    3  A    between atoms: C_4  and  C_5
REMARK    4  A    between atoms: N_11  and  C_12
REMARK    5  A    between atoms: N_15  and  C_16
REMARK    6  A    between atoms: C_16  and  C_17
REMARK                            x       y       z     vdW  Elec       q    Type
REMARK                         _______ _______ _______ _____ _____    ______ ____
ROOT
ATOM      1  C   UNL     1       1.044  10.104  18.527  0.00  0.00    +0.000 C 
ATOM      2  C   UNL     1       2.136   9.277  17.841  0.00  0.00    +0.000 C 
ATOM      3  C   UNL     1       2.097   7.803  18.261  0.00  0.00    +0.000 C 
ATOM      4  N   UNL     1       2.189   7.617  19.723  0.00  0.00    +0.000 NA
ATOM      5  C   UNL     1       1.145   8.395  20.411  0.00  0.00    +0.000 C 
ATOM      6  C   UNL     1       1.126   9.883  20.036  0.00  0.00    +0.000 C 
ENDROOT
BRANCH   1   9
ATOM      7  O   UNL     1      -1.252  11.813  18.428  0.00  0.00    +0.000 OA
ATOM      8  C   UNL     1      -1.337  10.672  17.987  0.00  0.00    +0.000 C 
ATOM      9  N   UNL     1      -0.284   9.771  17.996  0.00  0.00    +0.000 N 
ATOM     10  H   UNL     1      -0.500   8.805  17.798  0.00  0.00    +0.000 HD
BRANCH   8  11
ATOM     11  C   UNL     1      -2.621  10.103  17.413  0.00  0.00    +0.000 C 
BRANCH  11  12
ATOM     12  C   UNL     1      -3.438  11.173  16.688  0.00  0.00    +0.000 C 
BRANCH  12  13
ATOM     13  C   UNL     1      -4.791  11.386  17.316  0.00  0.00    +0.000 A 
ATOM     14  C   UNL     1      -5.625  12.432  16.914  0.00  0.00    +0.000 A 
ATOM     15  C   UNL     1      -6.873  12.591  17.510  0.00  0.00    +0.000 A 
ATOM     16  C   UNL     1      -7.244  11.700  18.504  0.00  0.00    +0.000 A 
ATOM     17  N   UNL     1      -6.460  10.690  18.934  0.00  0.00    +0.000 NA
ATOM     18  C   UNL     1      -5.256  10.555  18.332  0.00  0.00    +0.000 A 
ENDBRANCH  12  13
ENDBRANCH  11  12
ENDBRANCH   8  11
ENDBRANCH   1   9
BRANCH   4  19
ATOM     19  C   UNL     1       2.077   6.163  20.037  0.00  0.00    +0.000 C 
BRANCH  19  20
ATOM     20  C   UNL     1       2.590   5.273  18.930  0.00  0.00    +0.000 A 
ATOM     21  C   UNL     1       1.836   4.492  18.072  0.00  0.00    +0.000 A 
ATOM     22  N   UNL     1       2.676   3.889  17.174  0.00  0.00    +0.000 N 
ATOM     23  C   UNL     1       3.977   4.264  17.411  0.00  0.00    +0.000 A 
ATOM     24  C   UNL     1       5.149   3.956  16.701  0.00  0.00    +0.000 A 
ATOM     25  C   UNL     1       6.346   4.510  17.157  0.00  0.00    +0.000 A 
ATOM     26  C   UNL     1       6.382   5.274  18.318  0.00  0.00    +0.000 A 
ATOM     27  C   UNL     1       5.207   5.531  19.043  0.00  0.00    +0.000 A 
ATOM     28  C   UNL     1       3.967   5.071  18.551  0.00  0.00    +0.000 A 
ATOM     29  H   UNL     1       2.385   3.284  16.419  0.00  0.00    +0.000 HD
ENDBRANCH  19  20
ENDBRANCH   4  19
TORSDOF 6
ENDMDL
MODEL 6
REMARK VINA RESULT:      -7.8      1.421      2.744
REMARK  Name = 
REMARK  6 active torsions:
REMARK  status: ('A' for Active; 'I' for Inactive)
REMARK    1  A    between atoms: C_2  and  C_3
REMARK    2  A    between atoms: C_3  and  C_4
REMARK    3  A    between atoms: C_4  and  C_5
REMARK    4  A    between atoms: N_11  and  C_12
REMARK    5  A    between atoms: N_15  and  C_16
REMARK    6  A    between atoms: C_16  and  C_17
REMARK                            x       y       z     vdW  Elec       q    Type
REMARK                         _______ _______ _______ _____ _____    ______ ____
ROOT
ATOM      1  C   UNL     1       7.499   5.436  17.547  0.00  0.00    +0.000 C 
ATOM      2  C   UNL     1       6.797   4.640  16.442  0.00  0.00    +0.000 C 
ATOM      3  C   UNL     1       5.293   4.929  16.385  0.00  0.00    +0.000 C 
ATOM      4  N   UNL     1       4.610   4.686  17.671  0.00  0.00    +0.000 NA
ATOM      5  C   UNL     1       5.258   5.445  18.754  0.00  0.00    +0.000 C 
ATOM      6  C   UNL     1       6.768   5.204  18.868  0.00  0.00    +0.000 C 
ENDROOT
BRANCH   1   9
ATOM      7  O   UNL     1       8.659   7.527  19.122  0.00  0.00    +0.000 OA
ATOM      8  C   UNL     1       8.162   7.803  18.036  0.00  0.00    +0.000 C 
ATOM      9  N   UNL     1       7.573   6.862  17.207  0.00  0.00    +0.000 N 
ATOM     10  H   UNL     1       7.022   7.207  16.435  0.00  0.00    +0.000 HD
BRANCH   8  11
ATOM     11  C   UNL     1       8.103   9.218  17.491  0.00  0.00    +0.000 C 
BRANCH  11  12
ATOM     12  C   UNL     1       8.342  10.256  18.588  0.00  0.00    +0.000 C 
BRANCH  12  13
ATOM     13  C   UNL     1       9.268  11.358  18.143  0.00  0.00    +0.000 A 
ATOM     14  C   UNL     1       8.803  12.658  17.928  0.00  0.00    +0.000 A 
ATOM     15  C   UNL     1       9.691  13.653  17.528  0.00  0.00    +0.000 A 
ATOM     16  C   UNL     1      11.021  13.312  17.344  0.00  0.00    +0.000 A 
ATOM     17  N   UNL     1      11.505  12.065  17.521  0.00  0.00    +0.000 NA
ATOM     18  C   UNL     1      10.621  11.120  17.917  0.00  0.00    +0.000 A 
ENDBRANCH  12  13
ENDBRANCH  11  12
ENDBRANCH   8  11
ENDBRANCH   1   9
BRANCH   4  19
ATOM     19  C   UNL     1       3.170   5.056  17.535  0.00  0.00    +0.000 C 
BRANCH  19  20
ATOM     20  C   UNL     1       2.621   5.766  18.748  0.00  0.00    +0.000 A 
ATOM     21  C   UNL     1       2.502   5.255  20.029  0.00  0.00    +0.000 A 
ATOM     22  N   UNL     1       2.017   6.238  20.851  0.00  0.00    +0.000 N 
ATOM     23  C   UNL     1       1.822   7.400  20.143  0.00  0.00    +0.000 A 
ATOM     24  C   UNL     1       1.417   8.669  20.584  0.00  0.00    +0.000 A 
ATOM     25  C   UNL     1       1.333   9.689  19.635  0.00  0.00    +0.000 A 
ATOM     26  C   UNL     1       1.570   9.431  18.289  0.00  0.00    +0.000 A 
ATOM     27  C   UNL     1       1.927   8.144  17.858  0.00  0.00    +0.000 A 
ATOM     28  C   UNL     1       2.119   7.117  18.808  0.00  0.00    +0.000 A 
ATOM     29  H   UNL     1       1.860   6.142  21.844  0.00  0.00    +0.000 HD
ENDBRANCH  19  20
ENDBRANCH   4  19
TORSDOF 6
ENDMDL
MODEL 7
REMARK VINA RESULT:      -7.7      6.486     10.271
REMARK  Name = 
REMARK  6 active torsions:
REMARK  status: ('A' for Active; 'I' for Inactive)
REMARK    1  A    between atoms: C_2  and  C_3
REMARK    2  A    between atoms: C_3  and  C_4
REMARK    3  A    between atoms: C_4  and  C_5
REMARK    4  A    between atoms: N_11  and  C_12
REMARK    5  A    between atoms: N_15  and  C_16
REMARK    6  A    between atoms: C_16  and  C_17
REMARK                            x       y       z     vdW  Elec       q    Type
REMARK                         _______ _______ _______ _____ _____    ______ ____
ROOT
ATOM      1  C   UNL     1       0.881  10.231  18.341  0.00  0.00    +0.000 C 
ATOM      2  C   UNL     1       1.423  11.545  18.914  0.00  0.00    +0.000 C 
ATOM      3  C   UNL     1       0.760  11.914  20.245  0.00  0.00    +0.000 C 
ATOM      4  N   UNL     1      -0.712  11.991  20.155  0.00  0.00    +0.000 NA
ATOM      5  C   UNL     1      -1.264  10.737  19.614  0.00  0.00    +0.000 C 
ATOM      6  C   UNL     1      -0.644  10.306  18.279  0.00  0.00    +0.000 C 
ENDROOT
BRANCH   1   9
ATOM      7  O   UNL     1       2.673   8.165  17.492  0.00  0.00    +0.000 OA
ATOM      8  C   UNL     1       2.217   8.131  18.630  0.00  0.00    +0.000 C 
ATOM      9  N   UNL     1       1.340   9.081  19.128  0.00  0.00    +0.000 N 
ATOM     10  H   UNL     1       0.869   8.866  19.995  0.00  0.00    +0.000 HD
BRANCH   8  11
ATOM     11  C   UNL     1       2.535   7.020  19.613  0.00  0.00    +0.000 C 
BRANCH  11  12
ATOM     12  C   UNL     1       3.272   5.862  18.938  0.00  0.00    +0.000 C 
BRANCH  12  13
ATOM     13  C   UNL     1       2.450   4.600  18.904  0.00  0.00    +0.000 A 
ATOM     14  C   UNL     1       1.632   4.233  19.976  0.00  0.00    +0.000 A 
ATOM     15  C   UNL     1       0.879   3.064  19.904  0.00  0.00    +0.000 A 
ATOM     16  C   UNL     1       0.977   2.290  18.760  0.00  0.00    +0.000 A 
ATOM     17  N   UNL     1       1.770   2.599  17.712  0.00  0.00    +0.000 NA
ATOM     18  C   UNL     1       2.484   3.743  17.807  0.00  0.00    +0.000 A 
ENDBRANCH  12  13
ENDBRANCH  11  12
ENDBRANCH   8  11
ENDBRANCH   1   9
BRANCH   4  19
ATOM     19  C   UNL     1      -1.268  12.290  21.507  0.00  0.00    +0.000 C 
BRANCH  19  20
ATOM     20  C   UNL     1      -2.722  12.695  21.478  0.00  0.00    +0.000 A 
ATOM     21  C   UNL     1      -3.442  13.133  20.380  0.00  0.00    +0.000 A 
ATOM     22  N   UNL     1      -4.742  13.337  20.760  0.00  0.00    +0.000 N 
ATOM     23  C   UNL     1      -4.904  13.031  22.091  0.00  0.00    +0.000 A 
ATOM     24  C   UNL     1      -6.066  13.017  22.879  0.00  0.00    +0.000 A 
ATOM     25  C   UNL     1      -5.939  12.628  24.213  0.00  0.00    +0.000 A 
ATOM     26  C   UNL     1      -4.691  12.341  24.756  0.00  0.00    +0.000 A 
ATOM     27  C   UNL     1      -3.533  12.407  23.965  0.00  0.00    +0.000 A 
ATOM     28  C   UNL     1      -3.643  12.697  22.588  0.00  0.00    +0.000 A 
ATOM     29  H   UNL     1      -5.488  13.633  20.148  0.00  0.00    +0.000 HD
ENDBRANCH  19  20
ENDBRANCH   4  19
TORSDOF 6
ENDMDL
MODEL 8
REMARK VINA RESULT:      -7.6      1.765      2.332
REMARK  Name = 
REMARK  6 active torsions:
REMARK  status: ('A' for Active; 'I' for Inactive)
REMARK    1  A    between atoms: C_2  and  C_3
REMARK    2  A    between atoms: C_3  and  C_4
REMARK    3  A    between atoms: C_4  and  C_5
REMARK    4  A    between atoms: N_11  and  C_12
REMARK    5  A    between atoms: N_15  and  C_16
REMARK    6  A    between atoms: C_16  and  C_17
REMARK                            x       y       z     vdW  Elec       q    Type
REMARK                         _______ _______ _______ _____ _____    ______ ____
ROOT
ATOM      1  C   UNL     1       7.769   6.486  17.523  0.00  0.00    +0.000 C 
ATOM      2  C   UNL     1       7.260   5.716  16.299  0.00  0.00    +0.000 C 
ATOM      3  C   UNL     1       5.731   5.714  16.211  0.00  0.00    +0.000 C 
ATOM      4  N   UNL     1       5.083   5.182  17.427  0.00  0.00    +0.000 NA
ATOM      5  C   UNL     1       5.547   5.908  18.621  0.00  0.00    +0.000 C 
ATOM      6  C   UNL     1       7.073   5.951  18.773  0.00  0.00    +0.000 C 
ENDROOT
BRANCH   1   9
ATOM      7  O   UNL     1       9.073   8.583  18.973  0.00  0.00    +0.000 OA
ATOM      8  C   UNL     1       8.253   8.874  18.110  0.00  0.00    +0.000 C 
ATOM      9  N   UNL     1       7.568   7.931  17.360  0.00  0.00    +0.000 N 
ATOM     10  H   UNL     1       6.778   8.253  16.820  0.00  0.00    +0.000 HD
BRANCH   8  11
ATOM     11  C   UNL     1       7.866  10.305  17.787  0.00  0.00    +0.000 C 
BRANCH  11  12
ATOM     12  C   UNL     1       9.042  11.264  17.979  0.00  0.00    +0.000 C 
BRANCH  12  13
ATOM     13  C   UNL     1       8.595  12.692  18.160  0.00  0.00    +0.000 A 
ATOM     14  C   UNL     1       7.557  13.233  17.398  0.00  0.00    +0.000 A 
ATOM     15  C   UNL     1       7.165  14.554  17.601  0.00  0.00    +0.000 A 
ATOM     16  C   UNL     1       7.835  15.298  18.558  0.00  0.00    +0.000 A 
ATOM     17  N   UNL     1       8.855  14.818  19.301  0.00  0.00    +0.000 NA
ATOM     18  C   UNL     1       9.210  13.530  19.087  0.00  0.00    +0.000 A 
ENDBRANCH  12  13
ENDBRANCH  11  12
ENDBRANCH   8  11
ENDBRANCH   1   9
BRANCH   4  19
ATOM     19  C   UNL     1       3.602   5.281  17.274  0.00  0.00    +0.000 C 
BRANCH  19  20
ATOM     20  C   UNL     1       2.863   4.099  17.854  0.00  0.00    +0.000 A 
ATOM     21  C   UNL     1       2.446   2.965  17.179  0.00  0.00    +0.000 A 
ATOM     22  N   UNL     1       1.869   2.106  18.077  0.00  0.00    +0.000 N 
ATOM     23  C   UNL     1       1.906   2.643  19.342  0.00  0.00    +0.000 A 
ATOM     24  C   UNL     1       1.505   2.091  20.569  0.00  0.00    +0.000 A 
ATOM     25  C   UNL     1       1.691   2.862  21.718  0.00  0.00    +0.000 A 
ATOM     26  C   UNL     1       2.183   4.159  21.633  0.00  0.00    +0.000 A 
ATOM     27  C   UNL     1       2.534   4.714  20.392  0.00  0.00    +0.000 A 
ATOM     28  C   UNL     1       2.453   3.923  19.225  0.00  0.00    +0.000 A 
ATOM     29  H   UNL     1       1.503   1.192  17.855  0.00  0.00    +0.000 HD
ENDBRANCH  19  20
ENDBRANCH   4  19
TORSDOF 6
ENDMDL
MODEL 9
REMARK VINA RESULT:      -7.5      6.443     10.246
REMARK  Name = 
REMARK  6 active torsions:
REMARK  status: ('A' for Active; 'I' for Inactive)
REMARK    1  A    between atoms: C_2  and  C_3
REMARK    2  A    between atoms: C_3  and  C_4
REMARK    3  A    between atoms: C_4  and  C_5
REMARK    4  A    between atoms: N_11  and  C_12
REMARK    5  A    between atoms: N_15  and  C_16
REMARK    6  A    between atoms: C_16  and  C_17
REMARK                            x       y       z     vdW  Elec       q    Type
REMARK                         _______ _______ _______ _____ _____    ______ ____
ROOT
ATOM      1  C   UNL     1       0.914  10.296  18.165  0.00  0.00    +0.000 C 
ATOM      2  C   UNL     1       1.387  11.576  18.863  0.00  0.00    +0.000 C 
ATOM      3  C   UNL     1       0.694  11.790  20.213  0.00  0.00    +0.000 C 
ATOM      4  N   UNL     1      -0.779  11.807  20.108  0.00  0.00    +0.000 NA
ATOM      5  C   UNL     1      -1.266  10.584  19.447  0.00  0.00    +0.000 C 
ATOM      6  C   UNL     1      -0.611  10.307  18.088  0.00  0.00    +0.000 C 
ENDROOT
BRANCH   1   9
ATOM      7  O   UNL     1       2.633   8.281  17.077  0.00  0.00    +0.000 OA
ATOM      8  C   UNL     1       2.255   8.181  18.239  0.00  0.00    +0.000 C 
ATOM      9  N   UNL     1       1.420   9.101  18.851  0.00  0.00    +0.000 N 
ATOM     10  H   UNL     1       1.007   8.836  19.733  0.00  0.00    +0.000 HD
BRANCH   8  11
ATOM     11  C   UNL     1       2.632   7.013  19.132  0.00  0.00    +0.000 C 
BRANCH  11  12
ATOM     12  C   UNL     1       2.437   5.673  18.421  0.00  0.00    +0.000 C 
BRANCH  12  13
ATOM     13  C   UNL     1       2.163   4.547  19.384  0.00  0.00    +0.000 A 
ATOM     14  C   UNL     1       1.777   3.282  18.935  0.00  0.00    +0.000 A 
ATOM     15  C   UNL     1       1.543   2.263  19.854  0.00  0.00    +0.000 A 
ATOM     16  C   UNL     1       1.693   2.546  21.202  0.00  0.00    +0.000 A 
ATOM     17  N   UNL     1       2.045   3.760  21.676  0.00  0.00    +0.000 NA
ATOM     18  C   UNL     1       2.273   4.729  20.760  0.00  0.00    +0.000 A 
ENDBRANCH  12  13
ENDBRANCH  11  12
ENDBRANCH   8  11
ENDBRANCH   1   9
BRANCH   4  19
ATOM     19  C   UNL     1      -1.362  11.954  21.474  0.00  0.00    +0.000 C 
BRANCH  19  20
ATOM     20  C   UNL     1      -2.764  12.513  21.466  0.00  0.00    +0.000 A 
ATOM     21  C   UNL     1      -3.449  13.026  20.379  0.00  0.00    +0.000 A 
ATOM     22  N   UNL     1      -4.714  13.370  20.778  0.00  0.00    +0.000 N 
ATOM     23  C   UNL     1      -4.888  13.084  22.112  0.00  0.00    +0.000 A 
ATOM     24  C   UNL     1      -6.032  13.196  22.917  0.00  0.00    +0.000 A 
ATOM     25  C   UNL     1      -5.927  12.796  24.251  0.00  0.00    +0.000 A 
ATOM     26  C   UNL     1      -4.709  12.377  24.775  0.00  0.00    +0.000 A 
ATOM     27  C   UNL     1      -3.563  12.316  23.966  0.00  0.00    +0.000 A 
ATOM     28  C   UNL     1      -3.662  12.616  22.591  0.00  0.00    +0.000 A 
ATOM     29  H   UNL     1      -5.433  13.745  20.176  0.00  0.00    +0.000 HD
ENDBRANCH  19  20
ENDBRANCH   4  19
TORSDOF 6
ENDMDL
