MODEL 1
REMARK VINA RESULT:      -8.5      0.000      0.000
REMARK  Name = 
REMARK  2 active torsions:
REMARK  status: ('A' for Active; 'I' for Inactive)
REMARK    1  A    between atoms: C_1  and  C_2
REMARK    2  A    between atoms: C_2  and  C_3
REMARK                            x       y       z     vdW  Elec       q    Type
REMARK                         _______ _______ _______ _____ _____    ______ ____
ROOT
ATOM      1  C   UNL     1       2.079   5.519  20.004  0.00  0.00    +0.000 C 
ATOM      2  C   UNL     1       2.988   4.403  19.426  0.00  0.00    +0.000 C 
ATOM      3  C   UNL     1       2.220   3.546  18.383  0.00  0.00    +0.000 C 
ATOM      4  C   UNL     1       1.010   2.862  18.986  0.00  0.00    +0.000 C 
ATOM      5  O   UNL     1      -0.034   2.686  18.369  0.00  0.00    +0.000 OA
ATOM      6  N   UNL     1       1.142   2.423  20.281  0.00  0.00    +0.000 N 
ATOM      7  C   UNL     1       2.163   2.727  21.144  0.00  0.00    +0.000 C 
ATOM      8  O   UNL     1       2.071   2.472  22.340  0.00  0.00    +0.000 OA
ATOM      9  C   UNL     1       3.382   3.386  20.531  0.00  0.00    +0.000 C 
ATOM     10  C   UNL     1       4.298   2.318  19.962  0.00  0.00    +0.000 C 
ATOM     11  O   UNL     1       5.188   1.787  20.619  0.00  0.00    +0.000 OA
ATOM     12  N   UNL     1       4.051   1.940  18.664  0.00  0.00    +0.000 N 
ATOM     13  C   UNL     1       3.149   2.504  17.791  0.00  0.00    +0.000 C 
ATOM     14  O   UNL     1       3.101   2.159  16.615  0.00  0.00    +0.000 OA
ATOM     15  H   UNL     1       0.319   1.999  20.692  0.00  0.00    +0.000 HD
ATOM     16  H   UNL     1       4.678   1.247  18.273  0.00  0.00    +0.000 HD
ENDROOT
BRANCH   2  17
ATOM     17  C   UNL     1       4.207   5.154  18.816  0.00  0.00    +0.000 A 
ATOM     18  C   UNL     1       5.483   5.083  19.408  0.00  0.00    +0.000 A 
ATOM     19  C   UNL     1       6.575   5.778  18.875  0.00  0.00    +0.000 A 
ATOM     20  C   UNL     1       6.411   6.573  17.747  0.00  0.00    +0.000 A 
ATOM     21 CL   UNL     1       7.747   7.444  17.108  0.00  0.00    +0.000 Cl
ATOM     22  C   UNL     1       5.163   6.675  17.148  0.00  0.00    +0.000 A 
ATOM     23  C   UNL     1       4.072   5.977  17.679  0.00  0.00    +0.000 A 
ENDBRANCH   2  17
TORSDOF 1
ENDMDL
MODEL 2
REMARK VINA RESULT:      -8.4      0.058      1.051
REMARK  Name = 
REMARK  2 active torsions:
REMARK  status: ('A' for Active; 'I' for Inactive)
REMARK    1  A    between atoms: C_1  and  C_2
REMARK    2  A    between atoms: C_2  and  C_3
REMARK                            x       y       z     vdW  Elec       q    Type
REMARK                         _______ _______ _______ _____ _____    ______ ____
ROOT
ATOM      1  C   UNL     1       2.018   5.472  20.047  0.00  0.00    +0.000 C 
ATOM      2  C   UNL     1       2.951   4.381  19.461  0.00  0.00    +0.000 C 
ATOM      3  C   UNL     1       2.207   3.524  18.401  0.00  0.00    +0.000 C 
ATOM      4  C   UNL     1       1.005   2.810  18.986  0.00  0.00    +0.000 C 
ATOM      5  O   UNL     1      -0.031   2.624  18.359  0.00  0.00    +0.000 OA
ATOM      6  N   UNL     1       1.135   2.356  20.275  0.00  0.00    +0.000 N 
ATOM      7  C   UNL     1       2.144   2.667  21.151  0.00  0.00    +0.000 C 
ATOM      8  O   UNL     1       2.048   2.394  22.342  0.00  0.00    +0.000 OA
ATOM      9  C   UNL     1       3.355   3.356  20.555  0.00  0.00    +0.000 C 
ATOM     10  C   UNL     1       4.295   2.312  19.979  0.00  0.00    +0.000 C 
ATOM     11  O   UNL     1       5.190   1.789  20.636  0.00  0.00    +0.000 OA
ATOM     12  N   UNL     1       4.064   1.947  18.674  0.00  0.00    +0.000 N 
ATOM     13  C   UNL     1       3.159   2.507  17.802  0.00  0.00    +0.000 C 
ATOM     14  O   UNL     1       3.126   2.177  16.621  0.00  0.00    +0.000 OA
ATOM     15  H   UNL     1       0.317   1.912  20.674  0.00  0.00    +0.000 HD
ATOM     16  H   UNL     1       4.707   1.271  18.279  0.00  0.00    +0.000 HD
ENDROOT
BRANCH   2  17
ATOM     17  C   UNL     1       4.161   5.161  18.870  0.00  0.00    +0.000 A 
ATOM     18  C   UNL     1       4.029   5.951  17.711  0.00  0.00    +0.000 A 
ATOM     19  C   UNL     1       5.122   6.632  17.164  0.00  0.00    +0.000 A 
ATOM     20  C   UNL     1       6.376   6.526  17.753  0.00  0.00    +0.000 A 
ATOM     21 CL   UNL     1       7.721   7.345  17.067  0.00  0.00    +0.000 Cl
ATOM     22  C   UNL     1       6.541   5.745  18.889  0.00  0.00    +0.000 A 
ATOM     23  C   UNL     1       5.448   5.065  19.438  0.00  0.00    +0.000 A 
ENDBRANCH   2  17
TORSDOF 1
ENDMDL
MODEL 3
REMARK VINA RESULT:      -7.9      2.173      2.641
REMARK  Name = 
REMARK  2 active torsions:
REMARK  status: ('A' for Active; 'I' for Inactive)
REMARK    1  A    between atoms: C_1  and  C_2
REMARK    2  A    between atoms: C_2  and  C_3
REMARK                            x       y       z     vdW  Elec       q    Type
REMARK                         _______ _______ _______ _____ _____    ______ ____
ROOT
ATOM      1  C   UNL     1       5.017   5.324  19.587  0.00  0.00    +0.000 C 
ATOM      2  C   UNL     1       4.192   4.393  18.661  0.00  0.00    +0.000 C 
ATOM      3  C   UNL     1       2.689   4.782  18.679  0.00  0.00    +0.000 C 
ATOM      4  C   UNL     1       2.088   4.671  20.065  0.00  0.00    +0.000 C 
ATOM      5  O   UNL     1       1.230   5.439  20.485  0.00  0.00    +0.000 OA
ATOM      6  N   UNL     1       2.545   3.638  20.846  0.00  0.00    +0.000 N 
ATOM      7  C   UNL     1       3.629   2.839  20.587  0.00  0.00    +0.000 C 
ATOM      8  O   UNL     1       4.086   2.099  21.451  0.00  0.00    +0.000 OA
ATOM      9  C   UNL     1       4.208   2.934  19.190  0.00  0.00    +0.000 C 
ATOM     10  C   UNL     1       3.427   2.026  18.257  0.00  0.00    +0.000 C 
ATOM     11  O   UNL     1       3.728   0.852  18.065  0.00  0.00    +0.000 OA
ATOM     12  N   UNL     1       2.320   2.583  17.661  0.00  0.00    +0.000 N 
ATOM     13  C   UNL     1       1.917   3.897  17.720  0.00  0.00    +0.000 C 
ATOM     14  O   UNL     1       0.977   4.305  17.045  0.00  0.00    +0.000 OA
ATOM     15  H   UNL     1       2.167   3.589  21.784  0.00  0.00    +0.000 HD
ATOM     16  H   UNL     1       1.813   1.987  17.017  0.00  0.00    +0.000 HD
ENDROOT
BRANCH   2  17
ATOM     17  C   UNL     1       4.841   4.547  17.255  0.00  0.00    +0.000 A 
ATOM     18  C   UNL     1       5.561   3.493  16.660  0.00  0.00    +0.000 A 
ATOM     19  C   UNL     1       6.168   3.638  15.407  0.00  0.00    +0.000 A 
ATOM     20  C   UNL     1       6.082   4.847  14.728  0.00  0.00    +0.000 A 
ATOM     21 CL   UNL     1       6.847   5.032  13.200  0.00  0.00    +0.000 Cl
ATOM     22  C   UNL     1       5.391   5.910  15.293  0.00  0.00    +0.000 A 
ATOM     23  C   UNL     1       4.782   5.764  16.545  0.00  0.00    +0.000 A 
ENDBRANCH   2  17
TORSDOF 1
ENDMDL
MODEL 4
REMARK VINA RESULT:      -7.7      2.543      4.551
REMARK  Name = 
REMARK  2 active torsions:
REMARK  status: ('A' for Active; 'I' for Inactive)
REMARK    1  A    between atoms: C_1  and  C_2
REMARK    2  A    between atoms: C_2  and  C_3
REMARK                            x       y       z     vdW  Elec       q    Type
REMARK                         _______ _______ _______ _____ _____    ______ ____
ROOT
ATOM      1  C   UNL     1       4.932   5.608  19.330  0.00  0.00    +0.000 C 
ATOM      2  C   UNL     1       3.447   5.162  19.280  0.00  0.00    +0.000 C 
ATOM      3  C   UNL     1       3.165   4.054  20.331  0.00  0.00    +0.000 C 
ATOM      4  C   UNL     1       4.006   2.816  20.095  0.00  0.00    +0.000 C 
ATOM      5  O   UNL     1       4.449   2.127  21.006  0.00  0.00    +0.000 OA
ATOM      6  N   UNL     1       4.243   2.482  18.784  0.00  0.00    +0.000 N 
ATOM      7  C   UNL     1       3.985   3.262  17.685  0.00  0.00    +0.000 C 
ATOM      8  O   UNL     1       4.440   2.968  16.585  0.00  0.00    +0.000 OA
ATOM      9  C   UNL     1       3.121   4.484  17.923  0.00  0.00    +0.000 C 
ATOM     10  C   UNL     1       1.658   4.082  17.872  0.00  0.00    +0.000 C 
ATOM     11  O   UNL     1       1.001   4.090  16.835  0.00  0.00    +0.000 OA
ATOM     12  N   UNL     1       1.106   3.662  19.059  0.00  0.00    +0.000 N 
ATOM     13  C   UNL     1       1.695   3.681  20.302  0.00  0.00    +0.000 C 
ATOM     14  O   UNL     1       1.060   3.393  21.311  0.00  0.00    +0.000 OA
ATOM     15  H   UNL     1       4.836   1.676  18.631  0.00  0.00    +0.000 HD
ATOM     16  H   UNL     1       0.123   3.419  19.033  0.00  0.00    +0.000 HD
ENDROOT
BRANCH   2  17
ATOM     17  C   UNL     1       2.628   6.461  19.533  0.00  0.00    +0.000 A 
ATOM     18  C   UNL     1       2.511   7.458  18.545  0.00  0.00    +0.000 A 
ATOM     19  C   UNL     1       1.796   8.638  18.780  0.00  0.00    +0.000 A 
ATOM     20  C   UNL     1       1.198   8.856  20.015  0.00  0.00    +0.000 A 
ATOM     21 CL   UNL     1       0.341  10.316  20.310  0.00  0.00    +0.000 Cl
ATOM     22  C   UNL     1       1.307   7.899  21.015  0.00  0.00    +0.000 A 
ATOM     23  C   UNL     1       2.019   6.717  20.779  0.00  0.00    +0.000 A 
ENDBRANCH   2  17
TORSDOF 1
ENDMDL
MODEL 5
REMARK VINA RESULT:      -7.7      2.556      4.503
REMARK  Name = 
REMARK  2 active torsions:
REMARK  status: ('A' for Active; 'I' for Inactive)
REMARK    1  A    between atoms: C_1  and  C_2
REMARK    2  A    between atoms: C_2  and  C_3
REMARK                            x       y       z     vdW  Elec       q    Type
REMARK                         _______ _______ _______ _____ _____    ______ ____
ROOT
ATOM      1  C   UNL     1       5.011   5.672  19.254  0.00  0.00    +0.000 C 
ATOM      2  C   UNL     1       3.532   5.208  19.249  0.00  0.00    +0.000 C 
ATOM      3  C   UNL     1       3.297   4.087  20.296  0.00  0.00    +0.000 C 
ATOM      4  C   UNL     1       4.145   2.862  20.020  0.00  0.00    +0.000 C 
ATOM      5  O   UNL     1       4.626   2.168  20.908  0.00  0.00    +0.000 OA
ATOM      6  N   UNL     1       4.343   2.544  18.698  0.00  0.00    +0.000 N 
ATOM      7  C   UNL     1       4.040   3.331  17.617  0.00  0.00    +0.000 C 
ATOM      8  O   UNL     1       4.462   3.054  16.499  0.00  0.00    +0.000 OA
ATOM      9  C   UNL     1       3.169   4.540  17.895  0.00  0.00    +0.000 C 
ATOM     10  C   UNL     1       1.710   4.121  17.888  0.00  0.00    +0.000 C 
ATOM     11  O   UNL     1       1.020   4.132  16.873  0.00  0.00    +0.000 OA
ATOM     12  N   UNL     1       1.203   3.682  19.088  0.00  0.00    +0.000 N 
ATOM     13  C   UNL     1       1.832   3.696  20.311  0.00  0.00    +0.000 C 
ATOM     14  O   UNL     1       1.234   3.390  21.338  0.00  0.00    +0.000 OA
ATOM     15  H   UNL     1       4.940   1.747  18.517  0.00  0.00    +0.000 HD
ATOM     16  H   UNL     1       0.222   3.427  19.092  0.00  0.00    +0.000 HD
ENDROOT
BRANCH   2  17
ATOM     17  C   UNL     1       2.706   6.495  19.542  0.00  0.00    +0.000 A 
ATOM     18  C   UNL     1       2.068   6.690  20.783  0.00  0.00    +0.000 A 
ATOM     19  C   UNL     1       1.304   7.834  21.039  0.00  0.00    +0.000 A 
ATOM     20  C   UNL     1       1.146   8.801  20.054  0.00  0.00    +0.000 A 
ATOM     21 CL   UNL     1       0.189  10.194  20.361  0.00  0.00    +0.000 Cl
ATOM     22  C   UNL     1       1.750   8.632  18.815  0.00  0.00    +0.000 A 
ATOM     23  C   UNL     1       2.517   7.489  18.560  0.00  0.00    +0.000 A 
ENDBRANCH   2  17
TORSDOF 1
ENDMDL
MODEL 6
REMARK VINA RESULT:      -7.7      2.184      2.760
REMARK  Name = 
REMARK  2 active torsions:
REMARK  status: ('A' for Active; 'I' for Inactive)
REMARK    1  A    between atoms: C_1  and  C_2
REMARK    2  A    between atoms: C_2  and  C_3
REMARK                            x       y       z     vdW  Elec       q    Type
REMARK                         _______ _______ _______ _____ _____    ______ ____
ROOT
ATOM      1  C   UNL     1       5.020   5.311  19.635  0.00  0.00    +0.000 C 
ATOM      2  C   UNL     1       4.204   4.392  18.690  0.00  0.00    +0.000 C 
ATOM      3  C   UNL     1       2.703   4.788  18.689  0.00  0.00    +0.000 C 
ATOM      4  C   UNL     1       2.081   4.670  20.065  0.00  0.00    +0.000 C 
ATOM      5  O   UNL     1       1.221   5.439  20.478  0.00  0.00    +0.000 OA
ATOM      6  N   UNL     1       2.521   3.628  20.845  0.00  0.00    +0.000 N 
ATOM      7  C   UNL     1       3.605   2.826  20.596  0.00  0.00    +0.000 C 
ATOM      8  O   UNL     1       4.045   2.078  21.462  0.00  0.00    +0.000 OA
ATOM      9  C   UNL     1       4.206   2.928  19.209  0.00  0.00    +0.000 C 
ATOM     10  C   UNL     1       3.434   2.031  18.258  0.00  0.00    +0.000 C 
ATOM     11  O   UNL     1       3.732   0.857  18.062  0.00  0.00    +0.000 OA
ATOM     12  N   UNL     1       2.339   2.598  17.649  0.00  0.00    +0.000 N 
ATOM     13  C   UNL     1       1.941   3.913  17.712  0.00  0.00    +0.000 C 
ATOM     14  O   UNL     1       1.014   4.330  17.026  0.00  0.00    +0.000 OA
ATOM     15  H   UNL     1       2.129   3.575  21.777  0.00  0.00    +0.000 HD
ATOM     16  H   UNL     1       1.838   2.009  16.994  0.00  0.00    +0.000 HD
ENDROOT
BRANCH   2  17
ATOM     17  C   UNL     1       4.875   4.552  17.295  0.00  0.00    +0.000 A 
ATOM     18  C   UNL     1       4.765   5.750  16.562  0.00  0.00    +0.000 A 
ATOM     19  C   UNL     1       5.346   5.887  15.296  0.00  0.00    +0.000 A 
ATOM     20  C   UNL     1       6.036   4.823  14.727  0.00  0.00    +0.000 A 
ATOM     21 CL   UNL     1       6.729   4.985  13.163  0.00  0.00    +0.000 Cl
ATOM     22  C   UNL     1       6.150   3.625  15.419  0.00  0.00    +0.000 A 
ATOM     23  C   UNL     1       5.572   3.488  16.686  0.00  0.00    +0.000 A 
ENDBRANCH   2  17
TORSDOF 1
ENDMDL
MODEL 7
REMARK VINA RESULT:      -7.5      3.562      5.887
REMARK  Name = 
REMARK  2 active torsions:
REMARK  status: ('A' for Active; 'I' for Inactive)
REMARK    1  A    between atoms: C_1  and  C_2
REMARK    2  A    between atoms: C_2  and  C_3
REMARK                            x       y       z     vdW  Elec       q    Type
REMARK                         _______ _______ _______ _____ _____    ______ ____
ROOT
ATOM      1  C   UNL     1       4.304   7.375  16.720  0.00  0.00    +0.000 C 
ATOM      2  C   UNL     1       4.887   6.069  17.317  0.00  0.00    +0.000 C 
ATOM      3  C   UNL     1       6.126   6.368  18.204  0.00  0.00    +0.000 C 
ATOM      4  C   UNL     1       7.241   7.033  17.422  0.00  0.00    +0.000 C 
ATOM      5  O   UNL     1       7.978   7.885  17.903  0.00  0.00    +0.000 OA
ATOM      6  N   UNL     1       7.404   6.618  16.123  0.00  0.00    +0.000 N 
ATOM      7  C   UNL     1       6.538   5.834  15.403  0.00  0.00    +0.000 C 
ATOM      8  O   UNL     1       6.663   5.710  14.190  0.00  0.00    +0.000 OA
ATOM      9  C   UNL     1       5.442   5.150  16.195  0.00  0.00    +0.000 C 
ATOM     10  C   UNL     1       5.980   3.860  16.787  0.00  0.00    +0.000 C 
ATOM     11  O   UNL     1       5.923   2.784  16.200  0.00  0.00    +0.000 OA
ATOM     12  N   UNL     1       6.580   3.966  18.020  0.00  0.00    +0.000 N 
ATOM     13  C   UNL     1       6.638   5.082  18.823  0.00  0.00    +0.000 C 
ATOM     14  O   UNL     1       7.097   5.024  19.959  0.00  0.00    +0.000 OA
ATOM     15  H   UNL     1       8.125   7.091  15.593  0.00  0.00    +0.000 HD
ATOM     16  H   UNL     1       6.916   3.102  18.429  0.00  0.00    +0.000 HD
ENDROOT
BRANCH   2  17
ATOM     17  C   UNL     1       3.712   5.430  18.113  0.00  0.00    +0.000 A 
ATOM     18  C   UNL     1       3.494   5.735  19.471  0.00  0.00    +0.000 A 
ATOM     19  C   UNL     1       2.453   5.141  20.194  0.00  0.00    +0.000 A 
ATOM     20  C   UNL     1       1.617   4.216  19.580  0.00  0.00    +0.000 A 
ATOM     21 CL   UNL     1       0.354   3.471  20.476  0.00  0.00    +0.000 Cl
ATOM     22  C   UNL     1       1.815   3.884  18.247  0.00  0.00    +0.000 A 
ATOM     23  C   UNL     1       2.853   4.479  17.522  0.00  0.00    +0.000 A 
ENDBRANCH   2  17
TORSDOF 1
ENDMDL
MODEL 8
REMARK VINA RESULT:      -7.5      2.051      3.521
REMARK  Name = 
REMARK  2 active torsions:
REMARK  status: ('A' for Active; 'I' for Inactive)
REMARK    1  A    between atoms: C_1  and  C_2
REMARK    2  A    between atoms: C_2  and  C_3
REMARK                            x       y       z     vdW  Elec       q    Type
REMARK                         _______ _______ _______ _____ _____    ______ ____
ROOT
ATOM      1  C   UNL     1       3.913   1.759  19.233  0.00  0.00    +0.000 C 
ATOM      2  C   UNL     1       3.390   3.158  18.813  0.00  0.00    +0.000 C 
ATOM      3  C   UNL     1       3.173   4.065  20.055  0.00  0.00    +0.000 C 
ATOM      4  C   UNL     1       2.155   3.483  21.015  0.00  0.00    +0.000 C 
ATOM      5  O   UNL     1       2.244   3.597  22.232  0.00  0.00    +0.000 OA
ATOM      6  N   UNL     1       1.095   2.817  20.450  0.00  0.00    +0.000 N 
ATOM      7  C   UNL     1       0.976   2.443  19.136  0.00  0.00    +0.000 C 
ATOM      8  O   UNL     1       0.101   1.659  18.782  0.00  0.00    +0.000 OA
ATOM      9  C   UNL     1       1.979   3.050  18.175  0.00  0.00    +0.000 C 
ATOM     10  C   UNL     1       1.492   4.419  17.738  0.00  0.00    +0.000 C 
ATOM     11  O   UNL     1       0.778   4.588  16.754  0.00  0.00    +0.000 OA
ATOM     12  N   UNL     1       1.862   5.475  18.537  0.00  0.00    +0.000 N 
ATOM     13  C   UNL     1       2.720   5.442  19.612  0.00  0.00    +0.000 C 
ATOM     14  O   UNL     1       3.072   6.474  20.176  0.00  0.00    +0.000 OA
ATOM     15  H   UNL     1       0.438   2.399  21.096  0.00  0.00    +0.000 HD
ATOM     16  H   UNL     1       1.561   6.393  18.232  0.00  0.00    +0.000 HD
ENDROOT
BRANCH   2  17
ATOM     17  C   UNL     1       4.467   3.714  17.837  0.00  0.00    +0.000 A 
ATOM     18  C   UNL     1       4.300   3.639  16.440  0.00  0.00    +0.000 A 
ATOM     19  C   UNL     1       5.279   4.115  15.562  0.00  0.00    +0.000 A 
ATOM     20  C   UNL     1       6.456   4.661  16.059  0.00  0.00    +0.000 A 
ATOM     21 CL   UNL     1       7.667   5.224  14.978  0.00  0.00    +0.000 Cl
ATOM     22  C   UNL     1       6.657   4.737  17.430  0.00  0.00    +0.000 A 
ATOM     23  C   UNL     1       5.677   4.264  18.310  0.00  0.00    +0.000 A 
ENDBRANCH   2  17
TORSDOF 1
ENDMDL
MODEL 9
REMARK VINA RESULT:      -7.5      3.739      5.609
REMARK  Name = 
REMARK  2 active torsions:
REMARK  status: ('A' for Active; 'I' for Inactive)
REMARK    1  A    between atoms: C_1  and  C_2
REMARK    2  A    between atoms: C_2  and  C_3
REMARK                            x       y       z     vdW  Elec       q    Type
REMARK                         _______ _______ _______ _____ _____    ______ ____
ROOT
ATOM      1  C   UNL     1       4.578   3.159  16.335  0.00  0.00    +0.000 C 
ATOM      2  C   UNL     1       4.714   4.230  17.449  0.00  0.00    +0.000 C 
ATOM      3  C   UNL     1       4.387   5.645  16.902  0.00  0.00    +0.000 C 
ATOM      4  C   UNL     1       5.321   6.053  15.780  0.00  0.00    +0.000 C 
ATOM      5  O   UNL     1       4.959   6.726  14.822  0.00  0.00    +0.000 OA
ATOM      6  N   UNL     1       6.625   5.639  15.893  0.00  0.00    +0.000 N 
ATOM      7  C   UNL     1       7.115   4.726  16.791  0.00  0.00    +0.000 C 
ATOM      8  O   UNL     1       8.242   4.259  16.662  0.00  0.00    +0.000 OA
ATOM      9  C   UNL     1       6.187   4.343  17.927  0.00  0.00    +0.000 C 
ATOM     10  C   UNL     1       6.303   5.368  19.040  0.00  0.00    +0.000 C 
ATOM     11  O   UNL     1       7.110   5.265  19.958  0.00  0.00    +0.000 OA
ATOM     12  N   UNL     1       5.472   6.459  18.944  0.00  0.00    +0.000 N 
ATOM     13  C   UNL     1       4.469   6.662  18.024  0.00  0.00    +0.000 C 
ATOM     14  O   UNL     1       3.710   7.621  18.112  0.00  0.00    +0.000 OA
ATOM     15  H   UNL     1       7.237   5.883  15.124  0.00  0.00    +0.000 HD
ATOM     16  H   UNL     1       5.528   7.132  19.700  0.00  0.00    +0.000 HD
ENDROOT
BRANCH   2  17
ATOM     17  C   UNL     1       3.736   3.771  18.569  0.00  0.00    +0.000 A 
ATOM     18  C   UNL     1       2.393   4.196  18.589  0.00  0.00    +0.000 A 
ATOM     19  C   UNL     1       1.519   3.805  19.610  0.00  0.00    +0.000 A 
ATOM     20  C   UNL     1       1.973   2.996  20.644  0.00  0.00    +0.000 A 
ATOM     21 CL   UNL     1       0.905   2.536  21.909  0.00  0.00    +0.000 Cl
ATOM     22  C   UNL     1       3.295   2.572  20.661  0.00  0.00    +0.000 A 
ATOM     23  C   UNL     1       4.168   2.959  19.638  0.00  0.00    +0.000 A 
ENDBRANCH   2  17
TORSDOF 1
ENDMDL
