MODEL 1
REMARK VINA RESULT:      -7.0      0.000      0.000
REMARK  Name = 
REMARK  7 active torsions:
REMARK  status: ('A' for Active; 'I' for Inactive)
REMARK    1  A    between atoms: C_1  and  N_2
REMARK    2  A    between atoms: C_4  and  C_5
REMARK    3  A    between atoms: C_10  and  C_11
REMARK    4  A    between atoms: C_13  and  C_14
REMARK    5  A    between atoms: C_14  and  C_15
REMARK    6  A    between atoms: C_15  and  O_16
REMARK    7  A    between atoms: N_17  and  C_18
REMARK                            x       y       z     vdW  Elec       q    Type
REMARK                         _______ _______ _______ _____ _____    ______ ____
ROOT
ATOM      1  C   UNL     1       3.259   5.925  18.712  0.00  0.00    +0.000 C 
ATOM      2  O   UNL     1       2.841   7.084  18.706  0.00  0.00    +0.000 OA
ATOM      3  N   UNL     1       4.495   5.594  18.192  0.00  0.00    +0.000 N 
ATOM      4  C   UNL     1       5.226   4.344  18.343  0.00  0.00    +0.000 C 
ATOM      5  C   UNL     1       6.679   4.723  18.106  0.00  0.00    +0.000 C 
ATOM      6  C   UNL     1       6.596   5.847  17.068  0.00  0.00    +0.000 C 
ATOM      7  C   UNL     1       5.268   6.547  17.406  0.00  0.00    +0.000 C 
ENDROOT
BRANCH   1  11
ATOM      8  C   UNL     1       1.242   2.619  21.858  0.00  0.00    +0.000 C 
ATOM      9  N   UNL     1       1.568   3.405  20.694  0.00  0.00    +0.000 N 
ATOM     10  C   UNL     1       2.456   4.438  20.609  0.00  0.00    +0.000 A 
ATOM     11  C   UNL     1       2.460   4.849  19.286  0.00  0.00    +0.000 A 
ATOM     12  C   UNL     1       1.477   4.024  18.689  0.00  0.00    +0.000 A 
ATOM     13  N   UNL     1       0.957   3.126  19.529  0.00  0.00    +0.000 NA
ENDBRANCH   1  11
BRANCH   6  14
ATOM     14  C   UNL     1       6.669   5.339  15.657  0.00  0.00    +0.000 A 
ATOM     15  C   UNL     1       5.836   4.375  15.046  0.00  0.00    +0.000 A 
ATOM     16  C   UNL     1       6.346   4.194  13.776  0.00  0.00    +0.000 A 
ATOM     17  N   UNL     1       7.393   5.078  13.676  0.00  0.00    +0.000 N 
ATOM     18  C   UNL     1       8.294   5.315  12.572  0.00  0.00    +0.000 C 
ATOM     19  N   UNL     1       7.588   5.792  14.800  0.00  0.00    +0.000 NA
BRANCH  16  20
ATOM     20  C   UNL     1       5.941   3.217  12.717  0.00  0.00    +0.000 C 
BRANCH  20  21
ATOM     21  C   UNL     1       4.614   3.568  12.047  0.00  0.00    +0.000 C 
BRANCH  21  22
ATOM     22  O   UNL     1       4.282   2.620  11.038  0.00  0.00    +0.000 OA
ATOM     23  H   UNL     1       4.746   2.900  10.231  0.00  0.00    +0.000 HD
ENDBRANCH  21  22
ENDBRANCH  20  21
ENDBRANCH  16  20
ENDBRANCH   6  14
TORSDOF 5
ENDMDL
MODEL 2
REMARK VINA RESULT:      -6.8      2.320      7.352
REMARK  Name = 
REMARK  7 active torsions:
REMARK  status: ('A' for Active; 'I' for Inactive)
REMARK    1  A    between atoms: C_1  and  N_2
REMARK    2  A    between atoms: C_4  and  C_5
REMARK    3  A    between atoms: C_10  and  C_11
REMARK    4  A    between atoms: C_13  and  C_14
REMARK    5  A    between atoms: C_14  and  C_15
REMARK    6  A    between atoms: C_15  and  O_16
REMARK    7  A    between atoms: N_17  and  C_18
REMARK                            x       y       z     vdW  Elec       q    Type
REMARK                         _______ _______ _______ _____ _____    ______ ____
ROOT
ATOM      1  C   UNL     1       7.097   4.715  16.135  0.00  0.00    +0.000 C 
ATOM      2  O   UNL     1       8.121   4.412  16.749  0.00  0.00    +0.000 OA
ATOM      3  N   UNL     1       6.006   5.277  16.770  0.00  0.00    +0.000 N 
ATOM      4  C   UNL     1       4.844   5.908  16.164  0.00  0.00    +0.000 C 
ATOM      5  C   UNL     1       4.302   6.827  17.247  0.00  0.00    +0.000 C 
ATOM      6  C   UNL     1       4.613   6.077  18.546  0.00  0.00    +0.000 C 
ATOM      7  C   UNL     1       5.917   5.328  18.223  0.00  0.00    +0.000 C 
ENDROOT
BRANCH   1  11
ATOM      8  C   UNL     1       5.838   2.981  11.629  0.00  0.00    +0.000 C 
ATOM      9  N   UNL     1       6.423   3.732  12.712  0.00  0.00    +0.000 N 
ATOM     10  C   UNL     1       6.180   3.594  14.048  0.00  0.00    +0.000 A 
ATOM     11  C   UNL     1       7.002   4.501  14.696  0.00  0.00    +0.000 A 
ATOM     12  C   UNL     1       7.645   5.173  13.630  0.00  0.00    +0.000 A 
ATOM     13  N   UNL     1       7.322   4.690  12.427  0.00  0.00    +0.000 NA
ENDBRANCH   1  11
BRANCH   6  14
ATOM     14  C   UNL     1       3.491   5.178  18.978  0.00  0.00    +0.000 A 
ATOM     15  C   UNL     1       2.769   5.226  20.192  0.00  0.00    +0.000 A 
ATOM     16  C   UNL     1       1.899   4.155  20.150  0.00  0.00    +0.000 A 
ATOM     17  N   UNL     1       2.099   3.572  18.923  0.00  0.00    +0.000 N 
ATOM     18  C   UNL     1       1.468   2.410  18.343  0.00  0.00    +0.000 C 
ATOM     19  N   UNL     1       3.046   4.193  18.194  0.00  0.00    +0.000 NA
BRANCH  16  20
ATOM     20  C   UNL     1       0.969   3.642  21.204  0.00  0.00    +0.000 C 
BRANCH  20  21
ATOM     21  C   UNL     1       1.519   2.434  21.959  0.00  0.00    +0.000 C 
BRANCH  21  22
ATOM     22  O   UNL     1       2.942   2.399  21.905  0.00  0.00    +0.000 OA
ATOM     23  H   UNL     1       3.180   1.595  21.412  0.00  0.00    +0.000 HD
ENDBRANCH  21  22
ENDBRANCH  20  21
ENDBRANCH  16  20
ENDBRANCH   6  14
TORSDOF 5
ENDMDL
MODEL 3
REMARK VINA RESULT:      -6.7      1.461      1.877
REMARK  Name = 
REMARK  7 active torsions:
REMARK  status: ('A' for Active; 'I' for Inactive)
REMARK    1  A    between atoms: C_1  and  N_2
REMARK    2  A    between atoms: C_4  and  C_5
REMARK    3  A    between atoms: C_10  and  C_11
REMARK    4  A    between atoms: C_13  and  C_14
REMARK    5  A    between atoms: C_14  and  C_15
REMARK    6  A    between atoms: C_15  and  O_16
REMARK    7  A    between atoms: N_17  and  C_18
REMARK                            x       y       z     vdW  Elec       q    Type
REMARK                         _______ _______ _______ _____ _____    ______ ____
ROOT
ATOM      1  C   UNL     1       3.583   5.794  17.558  0.00  0.00    +0.000 C 
ATOM      2  O   UNL     1       3.268   6.980  17.462  0.00  0.00    +0.000 OA
ATOM      3  N   UNL     1       4.622   5.253  16.825  0.00  0.00    +0.000 N 
ATOM      4  C   UNL     1       5.268   3.962  17.002  0.00  0.00    +0.000 C 
ATOM      5  C   UNL     1       6.642   4.135  16.374  0.00  0.00    +0.000 C 
ATOM      6  C   UNL     1       6.391   5.106  15.216  0.00  0.00    +0.000 C 
ATOM      7  C   UNL     1       5.247   5.993  15.736  0.00  0.00    +0.000 C 
ENDROOT
BRANCH   1  11
ATOM      8  C   UNL     1       2.097   3.285  21.607  0.00  0.00    +0.000 C 
ATOM      9  N   UNL     1       2.218   3.818  20.272  0.00  0.00    +0.000 N 
ATOM     10  C   UNL     1       3.113   4.744  19.823  0.00  0.00    +0.000 A 
ATOM     11  C   UNL     1       2.870   4.907  18.469  0.00  0.00    +0.000 A 
ATOM     12  C   UNL     1       1.755   4.066  18.238  0.00  0.00    +0.000 A 
ATOM     13  N   UNL     1       1.376   3.380  19.320  0.00  0.00    +0.000 NA
ENDBRANCH   1  11
BRANCH   6  14
ATOM     14  C   UNL     1       6.073   4.402  13.929  0.00  0.00    +0.000 A 
ATOM     15  C   UNL     1       4.817   4.308  13.287  0.00  0.00    +0.000 A 
ATOM     16  C   UNL     1       5.021   3.503  12.185  0.00  0.00    +0.000 A 
ATOM     17  N   UNL     1       6.364   3.213  12.191  0.00  0.00    +0.000 N 
ATOM     18  C   UNL     1       7.133   2.401  11.277  0.00  0.00    +0.000 C 
ATOM     19  N   UNL     1       7.017   3.766  13.230  0.00  0.00    +0.000 NA
BRANCH  16  20
ATOM     20  C   UNL     1       4.030   2.967  11.200  0.00  0.00    +0.000 C 
BRANCH  20  21
ATOM     21  C   UNL     1       3.411   4.049  10.317  0.00  0.00    +0.000 C 
BRANCH  21  22
ATOM     22  O   UNL     1       2.909   3.496   9.104  0.00  0.00    +0.000 OA
ATOM     23  H   UNL     1       3.394   2.666   8.957  0.00  0.00    +0.000 HD
ENDBRANCH  21  22
ENDBRANCH  20  21
ENDBRANCH  16  20
ENDBRANCH   6  14
TORSDOF 5
ENDMDL
MODEL 4
REMARK VINA RESULT:      -6.6      1.657      2.312
REMARK  Name = 
REMARK  7 active torsions:
REMARK  status: ('A' for Active; 'I' for Inactive)
REMARK    1  A    between atoms: C_1  and  N_2
REMARK    2  A    between atoms: C_4  and  C_5
REMARK    3  A    between atoms: C_10  and  C_11
REMARK    4  A    between atoms: C_13  and  C_14
REMARK    5  A    between atoms: C_14  and  C_15
REMARK    6  A    between atoms: C_15  and  O_16
REMARK    7  A    between atoms: N_17  and  C_18
REMARK                            x       y       z     vdW  Elec       q    Type
REMARK                         _______ _______ _______ _____ _____    ______ ____
ROOT
ATOM      1  C   UNL     1       4.016   5.993  17.350  0.00  0.00    +0.000 C 
ATOM      2  O   UNL     1       3.781   7.194  17.214  0.00  0.00    +0.000 OA
ATOM      3  N   UNL     1       4.977   5.348  16.595  0.00  0.00    +0.000 N 
ATOM      4  C   UNL     1       5.539   4.022  16.803  0.00  0.00    +0.000 C 
ATOM      5  C   UNL     1       6.889   4.068  16.103  0.00  0.00    +0.000 C 
ATOM      6  C   UNL     1       6.649   5.003  14.914  0.00  0.00    +0.000 C 
ATOM      7  C   UNL     1       5.597   5.993  15.445  0.00  0.00    +0.000 C 
ENDROOT
BRANCH   1  11
ATOM      8  C   UNL     1       0.770   2.915  19.562  0.00  0.00    +0.000 C 
ATOM      9  N   UNL     1       1.856   3.826  19.293  0.00  0.00    +0.000 N 
ATOM     10  C   UNL     1       2.223   4.351  18.088  0.00  0.00    +0.000 A 
ATOM     11  C   UNL     1       3.290   5.200  18.335  0.00  0.00    +0.000 A 
ATOM     12  C   UNL     1       3.511   5.045  19.724  0.00  0.00    +0.000 A 
ATOM     13  N   UNL     1       2.626   4.239  20.315  0.00  0.00    +0.000 NA
ENDBRANCH   1  11
BRANCH   6  14
ATOM     14  C   UNL     1       6.218   4.269  13.678  0.00  0.00    +0.000 A 
ATOM     15  C   UNL     1       4.935   4.260  13.086  0.00  0.00    +0.000 A 
ATOM     16  C   UNL     1       5.021   3.386  12.021  0.00  0.00    +0.000 A 
ATOM     17  N   UNL     1       6.331   2.973  11.997  0.00  0.00    +0.000 N 
ATOM     18  C   UNL     1       6.987   2.049  11.101  0.00  0.00    +0.000 C 
ATOM     19  N   UNL     1       7.072   3.514  12.982  0.00  0.00    +0.000 NA
BRANCH  16  20
ATOM     20  C   UNL     1       3.948   2.897  11.101  0.00  0.00    +0.000 C 
BRANCH  20  21
ATOM     21  C   UNL     1       3.312   4.008  10.270  0.00  0.00    +0.000 C 
BRANCH  21  22
ATOM     22  O   UNL     1       2.925   3.532   8.984  0.00  0.00    +0.000 OA
ATOM     23  H   UNL     1       2.219   4.122   8.671  0.00  0.00    +0.000 HD
ENDBRANCH  21  22
ENDBRANCH  20  21
ENDBRANCH  16  20
ENDBRANCH   6  14
TORSDOF 5
ENDMDL
MODEL 5
REMARK VINA RESULT:      -6.6      1.057      1.177
REMARK  Name = 
REMARK  7 active torsions:
REMARK  status: ('A' for Active; 'I' for Inactive)
REMARK    1  A    between atoms: C_1  and  N_2
REMARK    2  A    between atoms: C_4  and  C_5
REMARK    3  A    between atoms: C_10  and  C_11
REMARK    4  A    between atoms: C_13  and  C_14
REMARK    5  A    between atoms: C_14  and  C_15
REMARK    6  A    between atoms: C_15  and  O_16
REMARK    7  A    between atoms: N_17  and  C_18
REMARK                            x       y       z     vdW  Elec       q    Type
REMARK                         _______ _______ _______ _____ _____    ______ ____
ROOT
ATOM      1  C   UNL     1       3.585   5.966  18.091  0.00  0.00    +0.000 C 
ATOM      2  O   UNL     1       3.329   7.170  18.119  0.00  0.00    +0.000 OA
ATOM      3  N   UNL     1       4.726   5.477  17.483  0.00  0.00    +0.000 N 
ATOM      4  C   UNL     1       5.289   4.139  17.578  0.00  0.00    +0.000 C 
ATOM      5  C   UNL     1       6.760   4.321  17.240  0.00  0.00    +0.000 C 
ATOM      6  C   UNL     1       6.757   5.459  16.214  0.00  0.00    +0.000 C 
ATOM      7  C   UNL     1       5.564   6.327  16.648  0.00  0.00    +0.000 C 
ENDROOT
BRANCH   1  11
ATOM      8  C   UNL     1       1.287   3.009  21.389  0.00  0.00    +0.000 C 
ATOM      9  N   UNL     1       1.676   3.711  20.190  0.00  0.00    +0.000 N 
ATOM     10  C   UNL     1       2.662   4.644  20.055  0.00  0.00    +0.000 A 
ATOM     11  C   UNL     1       2.689   5.000  18.716  0.00  0.00    +0.000 A 
ATOM     12  C   UNL     1       1.621   4.255  18.163  0.00  0.00    +0.000 A 
ATOM     13  N   UNL     1       1.024   3.449  19.044  0.00  0.00    +0.000 NA
ENDBRANCH   1  11
BRANCH   6  14
ATOM     14  C   UNL     1       6.663   4.965  14.800  0.00  0.00    +0.000 A 
ATOM     15  C   UNL     1       5.833   3.935  14.303  0.00  0.00    +0.000 A 
ATOM     16  C   UNL     1       6.162   3.803  12.969  0.00  0.00    +0.000 A 
ATOM     17  N   UNL     1       7.103   4.774  12.729  0.00  0.00    +0.000 N 
ATOM     18  C   UNL     1       7.806   5.093  11.508  0.00  0.00    +0.000 C 
ATOM     19  N   UNL     1       7.403   5.498  13.824  0.00  0.00    +0.000 NA
BRANCH  16  20
ATOM     20  C   UNL     1       5.688   2.799  11.966  0.00  0.00    +0.000 C 
BRANCH  20  21
ATOM     21  C   UNL     1       6.779   1.825  11.525  0.00  0.00    +0.000 C 
BRANCH  21  22
ATOM     22  O   UNL     1       6.273   0.498  11.425  0.00  0.00    +0.000 OA
ATOM     23  H   UNL     1       5.480   0.461  11.986  0.00  0.00    +0.000 HD
ENDBRANCH  21  22
ENDBRANCH  20  21
ENDBRANCH  16  20
ENDBRANCH   6  14
TORSDOF 5
ENDMDL
MODEL 6
REMARK VINA RESULT:      -6.5      2.334      7.053
REMARK  Name = 
REMARK  7 active torsions:
REMARK  status: ('A' for Active; 'I' for Inactive)
REMARK    1  A    between atoms: C_1  and  N_2
REMARK    2  A    between atoms: C_4  and  C_5
REMARK    3  A    between atoms: C_10  and  C_11
REMARK    4  A    between atoms: C_13  and  C_14
REMARK    5  A    between atoms: C_14  and  C_15
REMARK    6  A    between atoms: C_15  and  O_16
REMARK    7  A    between atoms: N_17  and  C_18
REMARK                            x       y       z     vdW  Elec       q    Type
REMARK                         _______ _______ _______ _____ _____    ______ ____
ROOT
ATOM      1  C   UNL     1       7.031   4.727  16.093  0.00  0.00    +0.000 C 
ATOM      2  O   UNL     1       8.099   4.456  16.643  0.00  0.00    +0.000 OA
ATOM      3  N   UNL     1       5.977   5.293  16.785  0.00  0.00    +0.000 N 
ATOM      4  C   UNL     1       4.767   5.891  16.243  0.00  0.00    +0.000 C 
ATOM      5  C   UNL     1       4.287   6.832  17.337  0.00  0.00    +0.000 C 
ATOM      6  C   UNL     1       4.696   6.123  18.631  0.00  0.00    +0.000 C 
ATOM      7  C   UNL     1       5.987   5.383  18.239  0.00  0.00    +0.000 C 
ENDROOT
BRANCH   1  11
ATOM      8  C   UNL     1       5.376   2.969  11.726  0.00  0.00    +0.000 C 
ATOM      9  N   UNL     1       6.088   3.695  12.749  0.00  0.00    +0.000 N 
ATOM     10  C   UNL     1       5.901   3.631  14.099  0.00  0.00    +0.000 A 
ATOM     11  C   UNL     1       6.842   4.472  14.670  0.00  0.00    +0.000 A 
ATOM     12  C   UNL     1       7.494   5.036  13.548  0.00  0.00    +0.000 A 
ATOM     13  N   UNL     1       7.063   4.545  12.383  0.00  0.00    +0.000 NA
ENDBRANCH   1  11
BRANCH   6  14
ATOM     14  C   UNL     1       3.620   5.221  19.162  0.00  0.00    +0.000 A 
ATOM     15  C   UNL     1       2.477   4.751  18.479  0.00  0.00    +0.000 A 
ATOM     16  C   UNL     1       1.761   4.022  19.407  0.00  0.00    +0.000 A 
ATOM     17  N   UNL     1       2.522   4.044  20.551  0.00  0.00    +0.000 N 
ATOM     18  C   UNL     1       2.259   3.453  21.842  0.00  0.00    +0.000 C 
ATOM     19  N   UNL     1       3.659   4.751  20.412  0.00  0.00    +0.000 NA
BRANCH  16  20
ATOM     20  C   UNL     1       0.413   3.383  19.283  0.00  0.00    +0.000 C 
BRANCH  20  21
ATOM     21  C   UNL     1       0.460   1.992  18.655  0.00  0.00    +0.000 C 
BRANCH  21  22
ATOM     22  O   UNL     1       1.742   1.395  18.824  0.00  0.00    +0.000 OA
ATOM     23  H   UNL     1       1.913   1.372  19.781  0.00  0.00    +0.000 HD
ENDBRANCH  21  22
ENDBRANCH  20  21
ENDBRANCH  16  20
ENDBRANCH   6  14
TORSDOF 5
ENDMDL
MODEL 7
REMARK VINA RESULT:      -6.4      5.498      8.160
REMARK  Name = 
REMARK  7 active torsions:
REMARK  status: ('A' for Active; 'I' for Inactive)
REMARK    1  A    between atoms: C_1  and  N_2
REMARK    2  A    between atoms: C_4  and  C_5
REMARK    3  A    between atoms: C_10  and  C_11
REMARK    4  A    between atoms: C_13  and  C_14
REMARK    5  A    between atoms: C_14  and  C_15
REMARK    6  A    between atoms: C_15  and  O_16
REMARK    7  A    between atoms: N_17  and  C_18
REMARK                            x       y       z     vdW  Elec       q    Type
REMARK                         _______ _______ _______ _____ _____    ______ ____
ROOT
ATOM      1  C   UNL     1       2.226   6.800  19.693  0.00  0.00    +0.000 C 
ATOM      2  O   UNL     1       2.201   6.549  20.899  0.00  0.00    +0.000 OA
ATOM      3  N   UNL     1       1.834   8.028  19.196  0.00  0.00    +0.000 N 
ATOM      4  C   UNL     1       2.035   8.558  17.856  0.00  0.00    +0.000 C 
ATOM      5  C   UNL     1       1.962  10.067  18.030  0.00  0.00    +0.000 C 
ATOM      6  C   UNL     1       0.945  10.252  19.160  0.00  0.00    +0.000 C 
ATOM      7  C   UNL     1       1.155   9.005  20.037  0.00  0.00    +0.000 C 
ENDROOT
BRANCH   1  11
ATOM      8  C   UNL     1       5.051   4.075  16.611  0.00  0.00    +0.000 C 
ATOM      9  N   UNL     1       3.955   4.600  17.390  0.00  0.00    +0.000 N 
ATOM     10  C   UNL     1       3.983   5.646  18.266  0.00  0.00    +0.000 A 
ATOM     11  C   UNL     1       2.689   5.802  18.736  0.00  0.00    +0.000 A 
ATOM     12  C   UNL     1       1.989   4.742  18.113  0.00  0.00    +0.000 A 
ATOM     13  N   UNL     1       2.744   4.030  17.272  0.00  0.00    +0.000 NA
ENDBRANCH   1  11
BRANCH   6  14
ATOM     14  C   UNL     1      -0.460  10.407  18.656  0.00  0.00    +0.000 A 
ATOM     15  C   UNL     1      -1.050   9.768  17.543  0.00  0.00    +0.000 A 
ATOM     16  C   UNL     1      -2.324  10.290  17.445  0.00  0.00    +0.000 A 
ATOM     17  N   UNL     1      -2.448  11.147  18.511  0.00  0.00    +0.000 N 
ATOM     18  C   UNL     1      -3.565  11.975  18.900  0.00  0.00    +0.000 C 
ATOM     19  N   UNL     1      -1.334  11.214  19.264  0.00  0.00    +0.000 NA
BRANCH  16  20
ATOM     20  C   UNL     1      -3.366  10.068  16.394  0.00  0.00    +0.000 C 
BRANCH  20  21
ATOM     21  C   UNL     1      -2.903  10.463  14.993  0.00  0.00    +0.000 C 
BRANCH  21  22
ATOM     22  O   UNL     1      -3.843  10.049  14.006  0.00  0.00    +0.000 OA
ATOM     23  H   UNL     1      -3.491   9.232  13.613  0.00  0.00    +0.000 HD
ENDBRANCH  21  22
ENDBRANCH  20  21
ENDBRANCH  16  20
ENDBRANCH   6  14
TORSDOF 5
ENDMDL
MODEL 8
REMARK VINA RESULT:      -6.4      0.740      1.045
REMARK  Name = 
REMARK  7 active torsions:
REMARK  status: ('A' for Active; 'I' for Inactive)
REMARK    1  A    between atoms: C_1  and  N_2
REMARK    2  A    between atoms: C_4  and  C_5
REMARK    3  A    between atoms: C_10  and  C_11
REMARK    4  A    between atoms: C_13  and  C_14
REMARK    5  A    between atoms: C_14  and  C_15
REMARK    6  A    between atoms: C_15  and  O_16
REMARK    7  A    between atoms: N_17  and  C_18
REMARK                            x       y       z     vdW  Elec       q    Type
REMARK                         _______ _______ _______ _____ _____    ______ ____
ROOT
ATOM      1  C   UNL     1       3.385   6.077  18.548  0.00  0.00    +0.000 C 
ATOM      2  O   UNL     1       3.101   7.275  18.592  0.00  0.00    +0.000 OA
ATOM      3  N   UNL     1       4.582   5.631  18.021  0.00  0.00    +0.000 N 
ATOM      4  C   UNL     1       5.166   4.302  18.121  0.00  0.00    +0.000 C 
ATOM      5  C   UNL     1       6.655   4.524  17.908  0.00  0.00    +0.000 C 
ATOM      6  C   UNL     1       6.709   5.694  16.921  0.00  0.00    +0.000 C 
ATOM      7  C   UNL     1       5.465   6.524  17.282  0.00  0.00    +0.000 C 
ENDROOT
BRANCH   1  11
ATOM      8  C   UNL     1       0.406   2.102  19.019  0.00  0.00    +0.000 C 
ATOM      9  N   UNL     1       1.163   3.305  19.264  0.00  0.00    +0.000 N 
ATOM     10  C   UNL     1       2.003   3.951  18.404  0.00  0.00    +0.000 A 
ATOM     11  C   UNL     1       2.464   5.075  19.069  0.00  0.00    +0.000 A 
ATOM     12  C   UNL     1       1.877   4.955  20.351  0.00  0.00    +0.000 A 
ATOM     13  N   UNL     1       1.063   3.902  20.464  0.00  0.00    +0.000 NA
ENDBRANCH   1  11
BRANCH   6  14
ATOM     14  C   UNL     1       6.740   5.243  15.490  0.00  0.00    +0.000 A 
ATOM     15  C   UNL     1       5.908   4.283  14.872  0.00  0.00    +0.000 A 
ATOM     16  C   UNL     1       6.372   4.164  13.578  0.00  0.00    +0.000 A 
ATOM     17  N   UNL     1       7.393   5.077  13.474  0.00  0.00    +0.000 N 
ATOM     18  C   UNL     1       8.244   5.380  12.347  0.00  0.00    +0.000 C 
ATOM     19  N   UNL     1       7.615   5.752  14.617  0.00  0.00    +0.000 NA
BRANCH  16  20
ATOM     20  C   UNL     1       5.950   3.219  12.497  0.00  0.00    +0.000 C 
BRANCH  20  21
ATOM     21  C   UNL     1       4.448   3.248  12.223  0.00  0.00    +0.000 C 
BRANCH  21  22
ATOM     22  O   UNL     1       4.177   3.680  10.893  0.00  0.00    +0.000 OA
ATOM     23  H   UNL     1       5.023   3.647  10.414  0.00  0.00    +0.000 HD
ENDBRANCH  21  22
ENDBRANCH  20  21
ENDBRANCH  16  20
ENDBRANCH   6  14
TORSDOF 5
ENDMDL
MODEL 9
REMARK VINA RESULT:      -6.3      2.355      6.963
REMARK  Name = 
REMARK  7 active torsions:
REMARK  status: ('A' for Active; 'I' for Inactive)
REMARK    1  A    between atoms: C_1  and  N_2
REMARK    2  A    between atoms: C_4  and  C_5
REMARK    3  A    between atoms: C_10  and  C_11
REMARK    4  A    between atoms: C_13  and  C_14
REMARK    5  A    between atoms: C_14  and  C_15
REMARK    6  A    between atoms: C_15  and  O_16
REMARK    7  A    between atoms: N_17  and  C_18
REMARK                            x       y       z     vdW  Elec       q    Type
REMARK                         _______ _______ _______ _____ _____    ______ ____
ROOT
ATOM      1  C   UNL     1       7.101   4.594  16.052  0.00  0.00    +0.000 C 
ATOM      2  O   UNL     1       8.153   4.202  16.558  0.00  0.00    +0.000 OA
ATOM      3  N   UNL     1       6.152   5.281  16.785  0.00  0.00    +0.000 N 
ATOM      4  C   UNL     1       4.997   6.014  16.291  0.00  0.00    +0.000 C 
ATOM      5  C   UNL     1       4.678   7.009  17.395  0.00  0.00    +0.000 C 
ATOM      6  C   UNL     1       5.058   6.262  18.677  0.00  0.00    +0.000 C 
ATOM      7  C   UNL     1       6.236   5.375  18.236  0.00  0.00    +0.000 C 
ENDROOT
BRANCH   1  11
ATOM      8  C   UNL     1       5.058   3.030  11.777  0.00  0.00    +0.000 C 
ATOM      9  N   UNL     1       5.897   3.669  12.762  0.00  0.00    +0.000 N 
ATOM     10  C   UNL     1       5.761   3.634  14.119  0.00  0.00    +0.000 A 
ATOM     11  C   UNL     1       6.821   4.357  14.641  0.00  0.00    +0.000 A 
ATOM     12  C   UNL     1       7.487   4.833  13.487  0.00  0.00    +0.000 A 
ATOM     13  N   UNL     1       6.950   4.393  12.346  0.00  0.00    +0.000 NA
ENDBRANCH   1  11
BRANCH   6  14
ATOM     14  C   UNL     1       3.909   5.494  19.262  0.00  0.00    +0.000 A 
ATOM     15  C   UNL     1       3.801   4.094  19.419  0.00  0.00    +0.000 A 
ATOM     16  C   UNL     1       2.538   3.872  19.931  0.00  0.00    +0.000 A 
ATOM     17  N   UNL     1       1.993   5.121  20.104  0.00  0.00    +0.000 N 
ATOM     18  C   UNL     1       0.689   5.494  20.600  0.00  0.00    +0.000 C 
ATOM     19  N   UNL     1       2.819   6.113  19.722  0.00  0.00    +0.000 NA
BRANCH  16  20
ATOM     20  C   UNL     1       1.830   2.581  20.194  0.00  0.00    +0.000 C 
BRANCH  20  21
ATOM     21  C   UNL     1       1.078   2.046  18.977  0.00  0.00    +0.000 C 
BRANCH  21  22
ATOM     22  O   UNL     1       1.981   1.636  17.954  0.00  0.00    +0.000 OA
ATOM     23  H   UNL     1       2.029   2.369  17.318  0.00  0.00    +0.000 HD
ENDBRANCH  21  22
ENDBRANCH  20  21
ENDBRANCH  16  20
ENDBRANCH   6  14
TORSDOF 5
ENDMDL
