MODEL 1
REMARK VINA RESULT:      -7.2      0.000      0.000
REMARK  Name = 
REMARK  4 active torsions:
REMARK  status: ('A' for Active; 'I' for Inactive)
REMARK    1  A    between atoms: C_2  and  C_3
REMARK    2  A    between atoms: C_6  and  C_7
REMARK    3  A    between atoms: C_10  and  C_11
REMARK    4  A    between atoms: C_15  and  O_16
REMARK                            x       y       z     vdW  Elec       q    Type
REMARK                         _______ _______ _______ _____ _____    ______ ____
ROOT
ATOM      1  C   UNL     1       1.725   7.896  19.679  0.00  0.00    +0.000 A 
ATOM      2  C   UNL     1       2.442   8.005  18.503  0.00  0.00    +0.000 A 
ATOM      3  C   UNL     1       2.967   6.758  18.061  0.00  0.00    +0.000 A 
ATOM      4  C   UNL     1       2.639   5.708  18.898  0.00  0.00    +0.000 A 
ATOM      5  S   UNL     1       1.718   6.270  20.230  0.00  0.00    +0.000 S 
ENDROOT
BRANCH   1   9
ATOM      6  C   UNL     1      -0.241  10.943  21.979  0.00  0.00    +0.000 A 
ATOM      7  C   UNL     1       0.061  11.176  20.636  0.00  0.00    +0.000 A 
ATOM      8  C   UNL     1       0.718  10.195  19.883  0.00  0.00    +0.000 A 
ATOM      9  C   UNL     1       1.074   8.964  20.456  0.00  0.00    +0.000 A 
ATOM     10  C   UNL     1       0.788   8.758  21.816  0.00  0.00    +0.000 A 
ATOM     11  C   UNL     1       0.135   9.737  22.572  0.00  0.00    +0.000 A 
BRANCH   6  13
ATOM     12  N   UNL     1      -1.514  12.733  23.355  0.00  0.00    +0.000 NA
ATOM     13  C   UNL     1      -0.943  11.930  22.741  0.00  0.00    +0.000 C 
ENDBRANCH   6  13
ENDBRANCH   1   9
BRANCH   4  14
ATOM     14  C   UNL     1       3.004   4.289  18.757  0.00  0.00    +0.000 A 
ATOM     15  C   UNL     1       2.316   3.487  17.829  0.00  0.00    +0.000 A 
ATOM     16  C   UNL     1       2.585   2.121  17.715  0.00  0.00    +0.000 A 
ATOM     17  C   UNL     1       3.552   1.532  18.527  0.00  0.00    +0.000 A 
ATOM     18  C   UNL     1       4.245   2.321  19.438  0.00  0.00    +0.000 A 
ATOM     19  C   UNL     1       3.985   3.685  19.555  0.00  0.00    +0.000 A 
BRANCH  18  20
ATOM     20  O   UNL     1       5.195   1.783  20.258  0.00  0.00    +0.000 OA
ATOM     21  H   UNL     1       6.051   1.815  19.802  0.00  0.00    +0.000 HD
ENDBRANCH  18  20
ENDBRANCH   4  14
TORSDOF 4
ENDMDL
MODEL 2
REMARK VINA RESULT:      -7.1      4.756      8.426
REMARK  Name = 
REMARK  4 active torsions:
REMARK  status: ('A' for Active; 'I' for Inactive)
REMARK    1  A    between atoms: C_2  and  C_3
REMARK    2  A    between atoms: C_6  and  C_7
REMARK    3  A    between atoms: C_10  and  C_11
REMARK    4  A    between atoms: C_15  and  O_16
REMARK                            x       y       z     vdW  Elec       q    Type
REMARK                         _______ _______ _______ _____ _____    ______ ____
ROOT
ATOM      1  C   UNL     1       3.161   6.187  18.535  0.00  0.00    +0.000 A 
ATOM      2  C   UNL     1       2.845   5.570  19.731  0.00  0.00    +0.000 A 
ATOM      3  C   UNL     1       2.074   6.400  20.591  0.00  0.00    +0.000 A 
ATOM      4  C   UNL     1       1.800   7.639  20.042  0.00  0.00    +0.000 A 
ATOM      5  S   UNL     1       2.518   7.778  18.492  0.00  0.00    +0.000 S 
ENDROOT
BRANCH   1   9
ATOM      6  C   UNL     1       5.478   4.728  15.227  0.00  0.00    +0.000 A 
ATOM      7  C   UNL     1       4.845   3.823  16.081  0.00  0.00    +0.000 A 
ATOM      8  C   UNL     1       4.103   4.289  17.173  0.00  0.00    +0.000 A 
ATOM      9  C   UNL     1       3.972   5.665  17.423  0.00  0.00    +0.000 A 
ATOM     10  C   UNL     1       4.639   6.559  16.569  0.00  0.00    +0.000 A 
ATOM     11  C   UNL     1       5.384   6.098  15.480  0.00  0.00    +0.000 A 
BRANCH   6  13
ATOM     12  N   UNL     1       6.798   3.871  13.167  0.00  0.00    +0.000 NA
ATOM     13  C   UNL     1       6.209   4.257  14.091  0.00  0.00    +0.000 C 
ENDBRANCH   6  13
ENDBRANCH   1   9
BRANCH   4  14
ATOM     14  C   UNL     1       1.033   8.745  20.638  0.00  0.00    +0.000 A 
ATOM     15  C   UNL     1       0.715   9.867  19.854  0.00  0.00    +0.000 A 
ATOM     16  C   UNL     1       0.049  10.966  20.402  0.00  0.00    +0.000 A 
ATOM     17  C   UNL     1      -0.314  10.960  21.747  0.00  0.00    +0.000 A 
ATOM     18  C   UNL     1      -0.014   9.849  22.526  0.00  0.00    +0.000 A 
ATOM     19  C   UNL     1       0.647   8.747  21.985  0.00  0.00    +0.000 A 
BRANCH  18  20
ATOM     20  O   UNL     1      -0.344   9.804  23.850  0.00  0.00    +0.000 OA
ATOM     21  H   UNL     1       0.275   9.210  24.304  0.00  0.00    +0.000 HD
ENDBRANCH  18  20
ENDBRANCH   4  14
TORSDOF 4
ENDMDL
MODEL 3
REMARK VINA RESULT:      -7.1      0.154      1.083
REMARK  Name = 
REMARK  4 active torsions:
REMARK  status: ('A' for Active; 'I' for Inactive)
REMARK    1  A    between atoms: C_2  and  C_3
REMARK    2  A    between atoms: C_6  and  C_7
REMARK    3  A    between atoms: C_10  and  C_11
REMARK    4  A    between atoms: C_15  and  O_16
REMARK                            x       y       z     vdW  Elec       q    Type
REMARK                         _______ _______ _______ _____ _____    ______ ____
ROOT
ATOM      1  C   UNL     1       1.658   7.937  19.710  0.00  0.00    +0.000 A 
ATOM      2  C   UNL     1       2.379   8.065  18.538  0.00  0.00    +0.000 A 
ATOM      3  C   UNL     1       2.922   6.829  18.088  0.00  0.00    +0.000 A 
ATOM      4  C   UNL     1       2.604   5.768  18.915  0.00  0.00    +0.000 A 
ATOM      5  S   UNL     1       1.670   6.306  20.247  0.00  0.00    +0.000 S 
ENDROOT
BRANCH   1   9
ATOM      6  C   UNL     1      -0.212  11.069  21.976  0.00  0.00    +0.000 A 
ATOM      7  C   UNL     1      -0.067   9.800  22.538  0.00  0.00    +0.000 A 
ATOM      8  C   UNL     1       0.525   8.767  21.801  0.00  0.00    +0.000 A 
ATOM      9  C   UNL     1       0.990   8.989  20.494  0.00  0.00    +0.000 A 
ATOM     10  C   UNL     1       0.810  10.265  19.934  0.00  0.00    +0.000 A 
ATOM     11  C   UNL     1       0.216  11.297  20.667  0.00  0.00    +0.000 A 
BRANCH   6  13
ATOM     12  N   UNL     1      -1.247  12.998  23.363  0.00  0.00    +0.000 NA
ATOM     13  C   UNL     1      -0.786  12.134  22.739  0.00  0.00    +0.000 C 
ENDBRANCH   6  13
ENDBRANCH   1   9
BRANCH   4  14
ATOM     14  C   UNL     1       2.988   4.355  18.763  0.00  0.00    +0.000 A 
ATOM     15  C   UNL     1       2.317   3.553  17.824  0.00  0.00    +0.000 A 
ATOM     16  C   UNL     1       2.604   2.192  17.699  0.00  0.00    +0.000 A 
ATOM     17  C   UNL     1       3.573   1.607  18.513  0.00  0.00    +0.000 A 
ATOM     18  C   UNL     1       4.249   2.396  19.435  0.00  0.00    +0.000 A 
ATOM     19  C   UNL     1       3.971   3.756  19.563  0.00  0.00    +0.000 A 
BRANCH  18  20
ATOM     20  O   UNL     1       5.200   1.863  20.257  0.00  0.00    +0.000 OA
ATOM     21  H   UNL     1       5.844   1.381  19.713  0.00  0.00    +0.000 HD
ENDBRANCH  18  20
ENDBRANCH   4  14
TORSDOF 4
ENDMDL
MODEL 4
REMARK VINA RESULT:      -7.0      4.767      8.467
REMARK  Name = 
REMARK  4 active torsions:
REMARK  status: ('A' for Active; 'I' for Inactive)
REMARK    1  A    between atoms: C_2  and  C_3
REMARK    2  A    between atoms: C_6  and  C_7
REMARK    3  A    between atoms: C_10  and  C_11
REMARK    4  A    between atoms: C_15  and  O_16
REMARK                            x       y       z     vdW  Elec       q    Type
REMARK                         _______ _______ _______ _____ _____    ______ ____
ROOT
ATOM      1  C   UNL     1       2.797   6.389  18.918  0.00  0.00    +0.000 A 
ATOM      2  C   UNL     1       2.356   5.739  20.055  0.00  0.00    +0.000 A 
ATOM      3  C   UNL     1       1.581   6.579  20.903  0.00  0.00    +0.000 A 
ATOM      4  C   UNL     1       1.429   7.858  20.401  0.00  0.00    +0.000 A 
ATOM      5  S   UNL     1       2.265   8.021  18.914  0.00  0.00    +0.000 S 
ENDROOT
BRANCH   1   9
ATOM      6  C   UNL     1       5.243   4.929  15.704  0.00  0.00    +0.000 A 
ATOM      7  C   UNL     1       4.532   4.027  16.498  0.00  0.00    +0.000 A 
ATOM      8  C   UNL     1       3.747   4.492  17.559  0.00  0.00    +0.000 A 
ATOM      9  C   UNL     1       3.650   5.866  17.838  0.00  0.00    +0.000 A 
ATOM     10  C   UNL     1       4.395   6.756  17.047  0.00  0.00    +0.000 A 
ATOM     11  C   UNL     1       5.183   6.294  15.988  0.00  0.00    +0.000 A 
BRANCH   6  13
ATOM     12  N   UNL     1       6.651   4.084  13.699  0.00  0.00    +0.000 NA
ATOM     13  C   UNL     1       6.020   4.459  14.598  0.00  0.00    +0.000 C 
ENDBRANCH   6  13
ENDBRANCH   1   9
BRANCH   4  14
ATOM     14  C   UNL     1       0.696   8.985  21.000  0.00  0.00    +0.000 A 
ATOM     15  C   UNL     1       0.438   8.986  22.382  0.00  0.00    +0.000 A 
ATOM     16  C   UNL     1      -0.315  10.002  22.976  0.00  0.00    +0.000 A 
ATOM     17  C   UNL     1      -0.822  11.040  22.196  0.00  0.00    +0.000 A 
ATOM     18  C   UNL     1      -0.560  11.052  20.831  0.00  0.00    +0.000 A 
ATOM     19  C   UNL     1       0.193  10.044  20.232  0.00  0.00    +0.000 A 
BRANCH  18  20
ATOM     20  O   UNL     1      -1.044  12.045  20.029  0.00  0.00    +0.000 OA
ATOM     21  H   UNL     1      -0.504  12.841  20.162  0.00  0.00    +0.000 HD
ENDBRANCH  18  20
ENDBRANCH   4  14
TORSDOF 4
ENDMDL
MODEL 5
REMARK VINA RESULT:      -7.0      2.714      3.243
REMARK  Name = 
REMARK  4 active torsions:
REMARK  status: ('A' for Active; 'I' for Inactive)
REMARK    1  A    between atoms: C_2  and  C_3
REMARK    2  A    between atoms: C_6  and  C_7
REMARK    3  A    between atoms: C_10  and  C_11
REMARK    4  A    between atoms: C_15  and  O_16
REMARK                            x       y       z     vdW  Elec       q    Type
REMARK                         _______ _______ _______ _____ _____    ______ ____
ROOT
ATOM      1  C   UNL     1       2.222   7.719  19.153  0.00  0.00    +0.000 A 
ATOM      2  C   UNL     1       2.404   6.536  19.842  0.00  0.00    +0.000 A 
ATOM      3  C   UNL     1       3.430   5.725  19.281  0.00  0.00    +0.000 A 
ATOM      4  C   UNL     1       4.026   6.300  18.174  0.00  0.00    +0.000 A 
ATOM      5  S   UNL     1       3.301   7.812  17.821  0.00  0.00    +0.000 S 
ENDROOT
BRANCH   1   9
ATOM      6  C   UNL     1      -0.593  10.888  19.848  0.00  0.00    +0.000 A 
ATOM      7  C   UNL     1      -0.225  10.046  20.899  0.00  0.00    +0.000 A 
ATOM      8  C   UNL     1       0.678   8.999  20.678  0.00  0.00    +0.000 A 
ATOM      9  C   UNL     1       1.235   8.783  19.406  0.00  0.00    +0.000 A 
ATOM     10  C   UNL     1       0.832   9.622  18.355  0.00  0.00    +0.000 A 
ATOM     11  C   UNL     1      -0.072  10.667  18.572  0.00  0.00    +0.000 A 
BRANCH   6  13
ATOM     12  N   UNL     1      -2.216  12.864  20.272  0.00  0.00    +0.000 NA
ATOM     13  C   UNL     1      -1.488  11.979  20.079  0.00  0.00    +0.000 C 
ENDBRANCH   6  13
ENDBRANCH   1   9
BRANCH   4  14
ATOM     14  C   UNL     1       5.115   5.755  17.346  0.00  0.00    +0.000 A 
ATOM     15  C   UNL     1       4.998   5.781  15.946  0.00  0.00    +0.000 A 
ATOM     16  C   UNL     1       5.977   5.212  15.128  0.00  0.00    +0.000 A 
ATOM     17  C   UNL     1       7.096   4.608  15.699  0.00  0.00    +0.000 A 
ATOM     18  C   UNL     1       7.225   4.590  17.083  0.00  0.00    +0.000 A 
ATOM     19  C   UNL     1       6.254   5.159  17.905  0.00  0.00    +0.000 A 
BRANCH  18  20
ATOM     20  O   UNL     1       8.301   4.003  17.683  0.00  0.00    +0.000 OA
ATOM     21  H   UNL     1       9.015   3.923  17.030  0.00  0.00    +0.000 HD
ENDBRANCH  18  20
ENDBRANCH   4  14
TORSDOF 4
ENDMDL
MODEL 6
REMARK VINA RESULT:      -7.0      1.241      1.513
REMARK  Name = 
REMARK  4 active torsions:
REMARK  status: ('A' for Active; 'I' for Inactive)
REMARK    1  A    between atoms: C_2  and  C_3
REMARK    2  A    between atoms: C_6  and  C_7
REMARK    3  A    between atoms: C_10  and  C_11
REMARK    4  A    between atoms: C_15  and  O_16
REMARK                            x       y       z     vdW  Elec       q    Type
REMARK                         _______ _______ _______ _____ _____    ______ ____
ROOT
ATOM      1  C   UNL     1       1.378   9.139  19.522  0.00  0.00    +0.000 A 
ATOM      2  C   UNL     1       1.791   9.326  18.216  0.00  0.00    +0.000 A 
ATOM      3  C   UNL     1       2.401   8.166  17.661  0.00  0.00    +0.000 A 
ATOM      4  C   UNL     1       2.441   7.103  18.544  0.00  0.00    +0.000 A 
ATOM      5  S   UNL     1       1.757   7.551  20.051  0.00  0.00    +0.000 S 
ENDROOT
BRANCH   1   9
ATOM      6  C   UNL     1      -0.539  11.927  22.167  0.00  0.00    +0.000 A 
ATOM      7  C   UNL     1       0.179  12.399  21.066  0.00  0.00    +0.000 A 
ATOM      8  C   UNL     1       0.822  11.498  20.208  0.00  0.00    +0.000 A 
ATOM      9  C   UNL     1       0.751  10.113  20.431  0.00  0.00    +0.000 A 
ATOM     10  C   UNL     1       0.049   9.659  21.559  0.00  0.00    +0.000 A 
ATOM     11  C   UNL     1      -0.593  10.555  22.419  0.00  0.00    +0.000 A 
BRANCH   6  13
ATOM     12  N   UNL     1      -1.778  13.586  23.726  0.00  0.00    +0.000 NA
ATOM     13  C   UNL     1      -1.226  12.843  23.025  0.00  0.00    +0.000 C 
ENDBRANCH   6  13
ENDBRANCH   1   9
BRANCH   4  14
ATOM     14  C   UNL     1       2.991   5.757  18.317  0.00  0.00    +0.000 A 
ATOM     15  C   UNL     1       2.141   4.728  17.874  0.00  0.00    +0.000 A 
ATOM     16  C   UNL     1       2.610   3.422  17.714  0.00  0.00    +0.000 A 
ATOM     17  C   UNL     1       3.942   3.122  17.991  0.00  0.00    +0.000 A 
ATOM     18  C   UNL     1       4.791   4.136  18.418  0.00  0.00    +0.000 A 
ATOM     19  C   UNL     1       4.332   5.442  18.577  0.00  0.00    +0.000 A 
BRANCH  18  20
ATOM     20  O   UNL     1       6.101   3.884  18.709  0.00  0.00    +0.000 OA
ATOM     21  H   UNL     1       6.167   2.996  19.096  0.00  0.00    +0.000 HD
ENDBRANCH  18  20
ENDBRANCH   4  14
TORSDOF 4
ENDMDL
MODEL 7
REMARK VINA RESULT:      -6.9      1.282      1.905
REMARK  Name = 
REMARK  4 active torsions:
REMARK  status: ('A' for Active; 'I' for Inactive)
REMARK    1  A    between atoms: C_2  and  C_3
REMARK    2  A    between atoms: C_6  and  C_7
REMARK    3  A    between atoms: C_10  and  C_11
REMARK    4  A    between atoms: C_15  and  O_16
REMARK                            x       y       z     vdW  Elec       q    Type
REMARK                         _______ _______ _______ _____ _____    ______ ____
ROOT
ATOM      1  C   UNL     1       1.329   9.181  19.510  0.00  0.00    +0.000 A 
ATOM      2  C   UNL     1       1.789   9.401  18.226  0.00  0.00    +0.000 A 
ATOM      3  C   UNL     1       2.440   8.263  17.673  0.00  0.00    +0.000 A 
ATOM      4  C   UNL     1       2.463   7.183  18.535  0.00  0.00    +0.000 A 
ATOM      5  S   UNL     1       1.713   7.588  20.022  0.00  0.00    +0.000 S 
ENDROOT
BRANCH   1   9
ATOM      6  C   UNL     1      -0.573  11.999  22.135  0.00  0.00    +0.000 A 
ATOM      7  C   UNL     1      -0.449  10.664  22.524  0.00  0.00    +0.000 A 
ATOM      8  C   UNL     1       0.153   9.735  21.668  0.00  0.00    +0.000 A 
ATOM      9  C   UNL     1       0.650  10.125  20.413  0.00  0.00    +0.000 A 
ATOM     10  C   UNL     1       0.491  11.466  20.027  0.00  0.00    +0.000 A 
ATOM     11  C   UNL     1      -0.112  12.396  20.878  0.00  0.00    +0.000 A 
BRANCH   6  13
ATOM     12  N   UNL     1      -1.636  13.732  23.742  0.00  0.00    +0.000 NA
ATOM     13  C   UNL     1      -1.157  12.958  23.021  0.00  0.00    +0.000 C 
ENDBRANCH   6  13
ENDBRANCH   1   9
BRANCH   4  14
ATOM     14  C   UNL     1       3.044   5.850  18.302  0.00  0.00    +0.000 A 
ATOM     15  C   UNL     1       2.225   4.813  17.824  0.00  0.00    +0.000 A 
ATOM     16  C   UNL     1       2.722   3.518  17.657  0.00  0.00    +0.000 A 
ATOM     17  C   UNL     1       4.052   3.238  17.964  0.00  0.00    +0.000 A 
ATOM     18  C   UNL     1       4.871   4.262  18.426  0.00  0.00    +0.000 A 
ATOM     19  C   UNL     1       4.383   5.557  18.591  0.00  0.00    +0.000 A 
BRANCH  18  20
ATOM     20  O   UNL     1       6.178   4.030  18.745  0.00  0.00    +0.000 OA
ATOM     21  H   UNL     1       6.635   3.696  17.957  0.00  0.00    +0.000 HD
ENDBRANCH  18  20
ENDBRANCH   4  14
TORSDOF 4
ENDMDL
MODEL 8
REMARK VINA RESULT:      -6.9      4.760      8.419
REMARK  Name = 
REMARK  4 active torsions:
REMARK  status: ('A' for Active; 'I' for Inactive)
REMARK    1  A    between atoms: C_2  and  C_3
REMARK    2  A    between atoms: C_6  and  C_7
REMARK    3  A    between atoms: C_10  and  C_11
REMARK    4  A    between atoms: C_15  and  O_16
REMARK                            x       y       z     vdW  Elec       q    Type
REMARK                         _______ _______ _______ _____ _____    ______ ____
ROOT
ATOM      1  C   UNL     1       2.710   6.505  18.938  0.00  0.00    +0.000 A 
ATOM      2  C   UNL     1       2.300   5.841  20.079  0.00  0.00    +0.000 A 
ATOM      3  C   UNL     1       1.537   6.668  20.951  0.00  0.00    +0.000 A 
ATOM      4  C   UNL     1       1.366   7.950  20.466  0.00  0.00    +0.000 A 
ATOM      5  S   UNL     1       2.167   8.133  18.962  0.00  0.00    +0.000 S 
ENDROOT
BRANCH   1   9
ATOM      6  C   UNL     1       5.180   4.960  15.783  0.00  0.00    +0.000 A 
ATOM      7  C   UNL     1       5.149   6.334  16.028  0.00  0.00    +0.000 A 
ATOM      8  C   UNL     1       4.333   6.848  17.043  0.00  0.00    +0.000 A 
ATOM      9  C   UNL     1       3.543   5.998  17.835  0.00  0.00    +0.000 A 
ATOM     10  C   UNL     1       3.566   4.622  17.555  0.00  0.00    +0.000 A 
ATOM     11  C   UNL     1       4.378   4.105  16.541  0.00  0.00    +0.000 A 
BRANCH   6  13
ATOM     12  N   UNL     1       6.739   4.000  13.948  0.00  0.00    +0.000 NA
ATOM     13  C   UNL     1       6.039   4.427  14.770  0.00  0.00    +0.000 C 
ENDBRANCH   6  13
ENDBRANCH   1   9
BRANCH   4  14
ATOM     14  C   UNL     1       0.638   9.066  21.092  0.00  0.00    +0.000 A 
ATOM     15  C   UNL     1       0.330   9.009  22.462  0.00  0.00    +0.000 A 
ATOM     16  C   UNL     1      -0.420  10.015  23.077  0.00  0.00    +0.000 A 
ATOM     17  C   UNL     1      -0.873  11.100  22.330  0.00  0.00    +0.000 A 
ATOM     18  C   UNL     1      -0.562  11.170  20.977  0.00  0.00    +0.000 A 
ATOM     19  C   UNL     1       0.189  10.172  20.358  0.00  0.00    +0.000 A 
BRANCH  18  20
ATOM     20  O   UNL     1      -0.992  12.212  20.207  0.00  0.00    +0.000 OA
ATOM     21  H   UNL     1      -1.835  11.964  19.795  0.00  0.00    +0.000 HD
ENDBRANCH  18  20
ENDBRANCH   4  14
TORSDOF 4
ENDMDL
MODEL 9
REMARK VINA RESULT:      -6.9      4.761      8.362
REMARK  Name = 
REMARK  4 active torsions:
REMARK  status: ('A' for Active; 'I' for Inactive)
REMARK    1  A    between atoms: C_2  and  C_3
REMARK    2  A    between atoms: C_6  and  C_7
REMARK    3  A    between atoms: C_10  and  C_11
REMARK    4  A    between atoms: C_15  and  O_16
REMARK                            x       y       z     vdW  Elec       q    Type
REMARK                         _______ _______ _______ _____ _____    ______ ____
ROOT
ATOM      1  C   UNL     1       3.177   6.268  18.481  0.00  0.00    +0.000 A 
ATOM      2  C   UNL     1       2.931   5.629  19.681  0.00  0.00    +0.000 A 
ATOM      3  C   UNL     1       2.164   6.421  20.580  0.00  0.00    +0.000 A 
ATOM      4  C   UNL     1       1.825   7.655  20.057  0.00  0.00    +0.000 A 
ATOM      5  S   UNL     1       2.477   7.836  18.482  0.00  0.00    +0.000 S 
ENDROOT
BRANCH   1   9
ATOM      6  C   UNL     1       5.517   4.805  15.191  0.00  0.00    +0.000 A 
ATOM      7  C   UNL     1       5.396   6.180  15.397  0.00  0.00    +0.000 A 
ATOM      8  C   UNL     1       4.620   6.667  16.456  0.00  0.00    +0.000 A 
ATOM      9  C   UNL     1       3.962   5.788  17.332  0.00  0.00    +0.000 A 
ATOM     10  C   UNL     1       4.072   4.409  17.092  0.00  0.00    +0.000 A 
ATOM     11  C   UNL     1       4.844   3.919  16.034  0.00  0.00    +0.000 A 
BRANCH   6  13
ATOM     12  N   UNL     1       7.006   3.896  13.274  0.00  0.00    +0.000 NA
ATOM     13  C   UNL     1       6.336   4.304  14.131  0.00  0.00    +0.000 C 
ENDBRANCH   6  13
ENDBRANCH   1   9
BRANCH   4  14
ATOM     14  C   UNL     1       1.043   8.726  20.695  0.00  0.00    +0.000 A 
ATOM     15  C   UNL     1       0.646   9.840  19.934  0.00  0.00    +0.000 A 
ATOM     16  C   UNL     1      -0.036  10.909  20.520  0.00  0.00    +0.000 A 
ATOM     17  C   UNL     1      -0.338  10.881  21.880  0.00  0.00    +0.000 A 
ATOM     18  C   UNL     1       0.041   9.778  22.636  0.00  0.00    +0.000 A 
ATOM     19  C   UNL     1       0.719   8.706  22.058  0.00  0.00    +0.000 A 
BRANCH  18  20
ATOM     20  O   UNL     1      -0.227   9.713  23.973  0.00  0.00    +0.000 OA
ATOM     21  H   UNL     1      -0.140   8.790  24.262  0.00  0.00    +0.000 HD
ENDBRANCH  18  20
ENDBRANCH   4  14
TORSDOF 4
ENDMDL
