MODEL 1
REMARK VINA RESULT:      -7.7      0.000      0.000
REMARK  Name = 
REMARK  6 active torsions:
REMARK  status: ('A' for Active; 'I' for Inactive)
REMARK    1  A    between atoms: C_1  and  C_2
REMARK    2  A    between atoms: C_2  and  C_3
REMARK    3  A    between atoms: C_7  and  C_8
REMARK    4  A    between atoms: C_11  and  C_12
REMARK    5  A    between atoms: C_26  and  C_27
REMARK    6  A    between atoms: C_28  and  C_29
REMARK                            x       y       z     vdW  Elec       q    Type
REMARK                         _______ _______ _______ _____ _____    ______ ____
ROOT
ATOM      1  C   UNL     1       0.606  15.398  19.027  0.00  0.00    +0.000 A 
ATOM      2  N   UNL     1       1.777  15.788  18.462  0.00  0.00    +0.000 NA
ATOM      3  C   UNL     1       2.707  14.846  18.250  0.00  0.00    +0.000 A 
ATOM      4  C   UNL     1       2.550  13.524  18.623  0.00  0.00    +0.000 A 
ATOM      5  C   UNL     1       1.335  13.086  19.181  0.00  0.00    +0.000 A 
ATOM      6  C   UNL     1       0.317  14.061  19.351  0.00  0.00    +0.000 A 
ENDROOT
BRANCH   5   7
ATOM      7  C   UNL     1       1.171  11.644  19.526  0.00  0.00    +0.000 A 
ATOM      8  C   UNL     1       1.210  11.208  20.863  0.00  0.00    +0.000 A 
ATOM      9  C   UNL     1       1.162   9.849  21.190  0.00  0.00    +0.000 A 
ATOM     10  C   UNL     1       1.125   8.874  20.186  0.00  0.00    +0.000 A 
ATOM     11  C   UNL     1       1.097   9.291  18.865  0.00  0.00    +0.000 A 
ATOM     12  F   UNL     1       1.186   8.422  17.848  0.00  0.00    +0.000 F 
ATOM     13  C   UNL     1       1.025  10.646  18.547  0.00  0.00    +0.000 A 
BRANCH  10  14
ATOM     14  C   UNL     1       1.222   7.464  20.617  0.00  0.00    +0.000 C 
ATOM     15  O   UNL     1       0.307   7.066  21.344  0.00  0.00    +0.000 OA
ATOM     16  N   UNL     1       2.230   6.616  20.176  0.00  0.00    +0.000 N 
ATOM     17  C   UNL     1       3.318   6.910  19.220  0.00  0.00    +0.000 C 
ATOM     18  C   UNL     1       3.298   5.994  17.972  0.00  0.00    +0.000 C 
ATOM     19  N   UNL     1       3.119   4.590  18.334  0.00  0.00    +0.000 NA
ATOM     20  C   UNL     1       2.922   3.685  17.212  0.00  0.00    +0.000 C 
ATOM     21  C   UNL     1       2.260   2.467  17.860  0.00  0.00    +0.000 C 
ATOM     22  C   UNL     1       1.855   2.911  19.270  0.00  0.00    +0.000 C 
ATOM     23  C   UNL     1       1.927   4.421  19.185  0.00  0.00    +0.000 C 
ATOM     24  C   UNL     1       2.106   5.183  20.499  0.00  0.00    +0.000 C 
ENDBRANCH  10  14
ENDBRANCH   5   7
BRANCH   1  26
ATOM     25  C   UNL     1      -0.803  17.255  18.190  0.00  0.00    +0.000 C 
ATOM     26  C   UNL     1      -0.298  16.536  19.436  0.00  0.00    +0.000 C 
ENDBRANCH   1  26
BRANCH   6  27
ATOM     27  C   UNL     1      -1.009  13.716  19.804  0.00  0.00    +0.000 C 
ATOM     28  C   UNL     1      -2.107  13.420  20.206  0.00  0.00    +0.000 C 
BRANCH  28  29
ATOM     29  C   UNL     1      -3.392  13.063  20.717  0.00  0.00    +0.000 A 
ATOM     30  C   UNL     1      -4.479  12.868  19.869  0.00  0.00    +0.000 A 
ATOM     31  C   UNL     1      -5.722  12.542  20.416  0.00  0.00    +0.000 A 
ATOM     32  C   UNL     1      -5.844  12.429  21.794  0.00  0.00    +0.000 A 
ATOM     33  N   UNL     1      -7.069  12.106  22.374  0.00  0.00    +0.000 N 
ATOM     34  N   UNL     1      -4.805  12.585  22.631  0.00  0.00    +0.000 NA
ATOM     35  C   UNL     1      -3.606  12.894  22.077  0.00  0.00    +0.000 A 
ATOM     36  H   UNL     1      -7.805  12.735  22.072  0.00  0.00    +0.000 HD
ATOM     37  H   UNL     1      -6.936  12.134  23.382  0.00  0.00    +0.000 HD
ENDBRANCH  28  29
ENDBRANCH   6  27
TORSDOF 5
ENDMDL
MODEL 2
REMARK VINA RESULT:      -7.5      0.970      1.072
REMARK  Name = 
REMARK  6 active torsions:
REMARK  status: ('A' for Active; 'I' for Inactive)
REMARK    1  A    between atoms: C_1  and  C_2
REMARK    2  A    between atoms: C_2  and  C_3
REMARK    3  A    between atoms: C_7  and  C_8
REMARK    4  A    between atoms: C_11  and  C_12
REMARK    5  A    between atoms: C_26  and  C_27
REMARK    6  A    between atoms: C_28  and  C_29
REMARK                            x       y       z     vdW  Elec       q    Type
REMARK                         _______ _______ _______ _____ _____    ______ ____
ROOT
ATOM      1  C   UNL     1       0.439  15.001  18.855  0.00  0.00    +0.000 A 
ATOM      2  N   UNL     1       1.663  15.508  18.559  0.00  0.00    +0.000 NA
ATOM      3  C   UNL     1       2.702  14.661  18.558  0.00  0.00    +0.000 A 
ATOM      4  C   UNL     1       2.593  13.323  18.891  0.00  0.00    +0.000 A 
ATOM      5  C   UNL     1       1.332  12.764  19.169  0.00  0.00    +0.000 A 
ATOM      6  C   UNL     1       0.215  13.637  19.109  0.00  0.00    +0.000 A 
ENDROOT
BRANCH   5   7
ATOM      7  C   UNL     1       1.234  11.307  19.472  0.00  0.00    +0.000 A 
ATOM      8  C   UNL     1       1.211  10.841  20.800  0.00  0.00    +0.000 A 
ATOM      9  C   UNL     1       1.224   9.474  21.096  0.00  0.00    +0.000 A 
ATOM     10  C   UNL     1       1.314   8.523  20.071  0.00  0.00    +0.000 A 
ATOM     11  C   UNL     1       1.349   8.970  18.760  0.00  0.00    +0.000 A 
ATOM     12  F   UNL     1       1.558   8.134  17.734  0.00  0.00    +0.000 F 
ATOM     13  C   UNL     1       1.216  10.327  18.466  0.00  0.00    +0.000 A 
BRANCH  10  14
ATOM     14  C   UNL     1       1.468   7.112  20.479  0.00  0.00    +0.000 C 
ATOM     15  O   UNL     1       0.552   6.655  21.170  0.00  0.00    +0.000 OA
ATOM     16  N   UNL     1       2.530   6.323  20.054  0.00  0.00    +0.000 N 
ATOM     17  C   UNL     1       3.629   6.690  19.138  0.00  0.00    +0.000 C 
ATOM     18  C   UNL     1       3.693   5.799  17.873  0.00  0.00    +0.000 C 
ATOM     19  N   UNL     1       3.572   4.380  18.204  0.00  0.00    +0.000 NA
ATOM     20  C   UNL     1       3.455   3.489  17.059  0.00  0.00    +0.000 C 
ATOM     21  C   UNL     1       2.835   2.227  17.664  0.00  0.00    +0.000 C 
ATOM     22  C   UNL     1       2.366   2.623  19.069  0.00  0.00    +0.000 C 
ATOM     23  C   UNL     1       2.366   4.136  19.014  0.00  0.00    +0.000 C 
ATOM     24  C   UNL     1       2.467   4.880  20.347  0.00  0.00    +0.000 C 
ENDBRANCH  10  14
ENDBRANCH   5   7
BRANCH   1  26
ATOM     25  C   UNL     1      -0.462  17.153  18.022  0.00  0.00    +0.000 C 
ATOM     26  C   UNL     1      -0.635  16.042  19.052  0.00  0.00    +0.000 C 
ENDBRANCH   1  26
BRANCH   6  27
ATOM     27  C   UNL     1      -1.140  13.162  19.261  0.00  0.00    +0.000 C 
ATOM     28  C   UNL     1      -2.276  12.773  19.362  0.00  0.00    +0.000 C 
BRANCH  28  29
ATOM     29  C   UNL     1      -3.628  12.318  19.445  0.00  0.00    +0.000 A 
ATOM     30  C   UNL     1      -4.197  11.548  18.433  0.00  0.00    +0.000 A 
ATOM     31  C   UNL     1      -5.529  11.146  18.548  0.00  0.00    +0.000 A 
ATOM     32  C   UNL     1      -6.257  11.532  19.664  0.00  0.00    +0.000 A 
ATOM     33  N   UNL     1      -7.589  11.150  19.811  0.00  0.00    +0.000 N 
ATOM     34  N   UNL     1      -5.724  12.251  20.667  0.00  0.00    +0.000 NA
ATOM     35  C   UNL     1      -4.426  12.625  20.538  0.00  0.00    +0.000 A 
ATOM     36  H   UNL     1      -8.145  11.409  19.004  0.00  0.00    +0.000 HD
ATOM     37  H   UNL     1      -7.931  11.588  20.664  0.00  0.00    +0.000 HD
ENDBRANCH  28  29
ENDBRANCH   6  27
TORSDOF 5
ENDMDL
MODEL 3
REMARK VINA RESULT:      -7.4      6.054     10.148
REMARK  Name = 
REMARK  6 active torsions:
REMARK  status: ('A' for Active; 'I' for Inactive)
REMARK    1  A    between atoms: C_1  and  C_2
REMARK    2  A    between atoms: C_2  and  C_3
REMARK    3  A    between atoms: C_7  and  C_8
REMARK    4  A    between atoms: C_11  and  C_12
REMARK    5  A    between atoms: C_26  and  C_27
REMARK    6  A    between atoms: C_28  and  C_29
REMARK                            x       y       z     vdW  Elec       q    Type
REMARK                         _______ _______ _______ _____ _____    ______ ____
ROOT
ATOM      1  C   UNL     1      10.982  13.583  19.251  0.00  0.00    +0.000 A 
ATOM      2  N   UNL     1      11.773  14.080  18.267  0.00  0.00    +0.000 NA
ATOM      3  C   UNL     1      11.228  14.970  17.424  0.00  0.00    +0.000 A 
ATOM      4  C   UNL     1       9.902  15.358  17.481  0.00  0.00    +0.000 A 
ATOM      5  C   UNL     1       9.069  14.882  18.511  0.00  0.00    +0.000 A 
ATOM      6  C   UNL     1       9.652  13.990  19.448  0.00  0.00    +0.000 A 
ENDROOT
BRANCH   5   7
ATOM      7  C   UNL     1       7.657  15.358  18.581  0.00  0.00    +0.000 A 
ATOM      8  C   UNL     1       7.283  16.397  19.453  0.00  0.00    +0.000 A 
ATOM      9  C   UNL     1       5.947  16.780  19.604  0.00  0.00    +0.000 A 
ATOM     10  C   UNL     1       4.928  16.100  18.925  0.00  0.00    +0.000 A 
ATOM     11  C   UNL     1       5.283  15.066  18.072  0.00  0.00    +0.000 A 
ATOM     12  F   UNL     1       4.363  14.289  17.484  0.00  0.00    +0.000 F 
ATOM     13  C   UNL     1       6.623  14.767  17.835  0.00  0.00    +0.000 A 
BRANCH  10  14
ATOM     14  C   UNL     1       3.537  16.475  19.253  0.00  0.00    +0.000 C 
ATOM     15  O   UNL     1       3.068  17.406  18.592  0.00  0.00    +0.000 OA
ATOM     16  N   UNL     1       2.777  15.781  20.187  0.00  0.00    +0.000 N 
ATOM     17  C   UNL     1       3.156  14.583  20.964  0.00  0.00    +0.000 C 
ATOM     18  C   UNL     1       2.229  13.371  20.708  0.00  0.00    +0.000 C 
ATOM     19  N   UNL     1       0.818  13.749  20.752  0.00  0.00    +0.000 NA
ATOM     20  C   UNL     1      -0.113  12.703  20.357  0.00  0.00    +0.000 C 
ATOM     21  C   UNL     1      -1.378  13.484  19.992  0.00  0.00    +0.000 C 
ATOM     22  C   UNL     1      -0.956  14.956  19.922  0.00  0.00    +0.000 C 
ATOM     23  C   UNL     1       0.553  14.874  19.836  0.00  0.00    +0.000 C 
ATOM     24  C   UNL     1       1.343  16.108  20.276  0.00  0.00    +0.000 C 
ENDBRANCH  10  14
ENDBRANCH   5   7
BRANCH   1  26
ATOM     25  C   UNL     1      10.982  11.122  19.533  0.00  0.00    +0.000 C 
ATOM     26  C   UNL     1      11.591  12.433  20.017  0.00  0.00    +0.000 C 
ENDBRANCH   1  26
BRANCH   6  27
ATOM     27  C   UNL     1       8.936  13.524  20.612  0.00  0.00    +0.000 C 
ATOM     28  C   UNL     1       8.324  13.158  21.584  0.00  0.00    +0.000 C 
BRANCH  28  29
ATOM     29  C   UNL     1       7.577  12.755  22.733  0.00  0.00    +0.000 A 
ATOM     30  C   UNL     1       8.124  11.905  23.691  0.00  0.00    +0.000 A 
ATOM     31  C   UNL     1       7.347  11.520  24.785  0.00  0.00    +0.000 A 
ATOM     32  C   UNL     1       6.044  11.986  24.886  0.00  0.00    +0.000 A 
ATOM     33  N   UNL     1       5.240  11.621  25.964  0.00  0.00    +0.000 N 
ATOM     34  N   UNL     1       5.502  12.828  23.989  0.00  0.00    +0.000 NA
ATOM     35  C   UNL     1       6.277  13.195  22.938  0.00  0.00    +0.000 A 
ATOM     36  H   UNL     1       5.193  10.614  26.073  0.00  0.00    +0.000 HD
ATOM     37  H   UNL     1       4.322  12.028  25.801  0.00  0.00    +0.000 HD
ENDBRANCH  28  29
ENDBRANCH   6  27
TORSDOF 5
ENDMDL
MODEL 4
REMARK VINA RESULT:      -7.2      2.953     10.931
REMARK  Name = 
REMARK  6 active torsions:
REMARK  status: ('A' for Active; 'I' for Inactive)
REMARK    1  A    between atoms: C_1  and  C_2
REMARK    2  A    between atoms: C_2  and  C_3
REMARK    3  A    between atoms: C_7  and  C_8
REMARK    4  A    between atoms: C_11  and  C_12
REMARK    5  A    between atoms: C_26  and  C_27
REMARK    6  A    between atoms: C_28  and  C_29
REMARK                            x       y       z     vdW  Elec       q    Type
REMARK                         _______ _______ _______ _____ _____    ______ ____
ROOT
ATOM      1  C   UNL     1       3.195   2.278  20.015  0.00  0.00    +0.000 A 
ATOM      2  N   UNL     1       2.337   1.782  20.942  0.00  0.00    +0.000 NA
ATOM      3  C   UNL     1       1.464   2.634  21.498  0.00  0.00    +0.000 A 
ATOM      4  C   UNL     1       1.435   3.987  21.213  0.00  0.00    +0.000 A 
ATOM      5  C   UNL     1       2.292   4.522  20.232  0.00  0.00    +0.000 A 
ATOM      6  C   UNL     1       3.176   3.617  19.589  0.00  0.00    +0.000 A 
ENDROOT
BRANCH   5   7
ATOM      7  C   UNL     1       2.205   5.974  19.904  0.00  0.00    +0.000 A 
ATOM      8  C   UNL     1       1.601   6.884  20.792  0.00  0.00    +0.000 A 
ATOM      9  C   UNL     1       1.419   8.228  20.449  0.00  0.00    +0.000 A 
ATOM     10  C   UNL     1       1.791   8.699  19.184  0.00  0.00    +0.000 A 
ATOM     11  C   UNL     1       2.376   7.809  18.297  0.00  0.00    +0.000 A 
ATOM     12  F   UNL     1       2.644   8.150  17.029  0.00  0.00    +0.000 F 
ATOM     13  C   UNL     1       2.662   6.501  18.684  0.00  0.00    +0.000 A 
BRANCH  10  14
ATOM     14  C   UNL     1       1.432  10.094  18.856  0.00  0.00    +0.000 C 
ATOM     15  O   UNL     1       1.371  10.358  17.651  0.00  0.00    +0.000 OA
ATOM     16  N   UNL     1       1.107  11.030  19.830  0.00  0.00    +0.000 N 
ATOM     17  C   UNL     1       1.019  10.833  21.291  0.00  0.00    +0.000 C 
ATOM     18  C   UNL     1      -0.385  11.146  21.866  0.00  0.00    +0.000 C 
ATOM     19  N   UNL     1      -0.912  12.407  21.350  0.00  0.00    +0.000 NA
ATOM     20  C   UNL     1      -2.293  12.690  21.711  0.00  0.00    +0.000 C 
ATOM     21  C   UNL     1      -2.722  13.719  20.661  0.00  0.00    +0.000 C 
ATOM     22  C   UNL     1      -1.624  13.709  19.592  0.00  0.00    +0.000 C 
ATOM     23  C   UNL     1      -0.883  12.420  19.876  0.00  0.00    +0.000 C 
ATOM     24  C   UNL     1       0.560  12.322  19.378  0.00  0.00    +0.000 C 
ENDBRANCH  10  14
ENDBRANCH   5   7
BRANCH   1  26
ATOM     25  C   UNL     1       5.227   1.080  20.773  0.00  0.00    +0.000 C 
ATOM     26  C   UNL     1       4.284   1.319  19.598  0.00  0.00    +0.000 C 
ENDBRANCH   1  26
BRANCH   6  27
ATOM     27  C   UNL     1       4.020   4.019  18.490  0.00  0.00    +0.000 C 
ATOM     28  C   UNL     1       4.736   4.329  17.570  0.00  0.00    +0.000 C 
BRANCH  28  29
ATOM     29  C   UNL     1       5.594   4.661  16.477  0.00  0.00    +0.000 A 
ATOM     30  C   UNL     1       5.419   4.088  15.219  0.00  0.00    +0.000 A 
ATOM     31  C   UNL     1       6.297   4.426  14.187  0.00  0.00    +0.000 A 
ATOM     32  C   UNL     1       7.329   5.318  14.444  0.00  0.00    +0.000 A 
ATOM     33  N   UNL     1       8.223   5.678  13.438  0.00  0.00    +0.000 N 
ATOM     34  N   UNL     1       7.502   5.905  15.640  0.00  0.00    +0.000 NA
ATOM     35  C   UNL     1       6.633   5.568  16.626  0.00  0.00    +0.000 A 
ATOM     36  H   UNL     1       8.649   4.865  13.007  0.00  0.00    +0.000 HD
ATOM     37  H   UNL     1       8.918   6.289  13.863  0.00  0.00    +0.000 HD
ENDBRANCH  28  29
ENDBRANCH   6  27
TORSDOF 5
ENDMDL
MODEL 5
REMARK VINA RESULT:      -7.1      3.434      4.712
REMARK  Name = 
REMARK  6 active torsions:
REMARK  status: ('A' for Active; 'I' for Inactive)
REMARK    1  A    between atoms: C_1  and  C_2
REMARK    2  A    between atoms: C_2  and  C_3
REMARK    3  A    between atoms: C_7  and  C_8
REMARK    4  A    between atoms: C_11  and  C_12
REMARK    5  A    between atoms: C_26  and  C_27
REMARK    6  A    between atoms: C_28  and  C_29
REMARK                            x       y       z     vdW  Elec       q    Type
REMARK                         _______ _______ _______ _____ _____    ______ ____
ROOT
ATOM      1  C   UNL     1      -2.706  12.793  21.056  0.00  0.00    +0.000 A 
ATOM      2  N   UNL     1      -2.394  13.356  22.251  0.00  0.00    +0.000 NA
ATOM      3  C   UNL     1      -1.255  12.967  22.842  0.00  0.00    +0.000 A 
ATOM      4  C   UNL     1      -0.423  11.993  22.322  0.00  0.00    +0.000 A 
ATOM      5  C   UNL     1      -0.706  11.416  21.069  0.00  0.00    +0.000 A 
ATOM      6  C   UNL     1      -1.874  11.868  20.403  0.00  0.00    +0.000 A 
ENDROOT
BRANCH   5   7
ATOM      7  C   UNL     1       0.236  10.407  20.505  0.00  0.00    +0.000 A 
ATOM      8  C   UNL     1       0.572  10.411  19.138  0.00  0.00    +0.000 A 
ATOM      9  C   UNL     1       1.371   9.409  18.578  0.00  0.00    +0.000 A 
ATOM     10  C   UNL     1       1.820   8.335  19.358  0.00  0.00    +0.000 A 
ATOM     11  C   UNL     1       1.486   8.314  20.703  0.00  0.00    +0.000 A 
ATOM     12  F   UNL     1       1.772   7.263  21.484  0.00  0.00    +0.000 F 
ATOM     13  C   UNL     1       0.791   9.375  21.281  0.00  0.00    +0.000 A 
BRANCH  10  14
ATOM     14  C   UNL     1       2.535   7.250  18.655  0.00  0.00    +0.000 C 
ATOM     15  O   UNL     1       3.513   7.602  17.988  0.00  0.00    +0.000 OA
ATOM     16  N   UNL     1       2.183   5.913  18.792  0.00  0.00    +0.000 N 
ATOM     17  C   UNL     1       1.123   5.331  19.640  0.00  0.00    +0.000 C 
ATOM     18  C   UNL     1       1.661   4.318  20.681  0.00  0.00    +0.000 C 
ATOM     19  N   UNL     1       2.601   3.374  20.082  0.00  0.00    +0.000 NA
ATOM     20  C   UNL     1       3.278   2.496  21.025  0.00  0.00    +0.000 C 
ATOM     21  C   UNL     1       4.511   2.033  20.245  0.00  0.00    +0.000 C 
ATOM     22  C   UNL     1       4.589   2.937  19.010  0.00  0.00    +0.000 C 
ATOM     23  C   UNL     1       3.677   4.090  19.373  0.00  0.00    +0.000 C 
ATOM     24  C   UNL     1       3.094   4.906  18.219  0.00  0.00    +0.000 C 
ENDBRANCH  10  14
ENDBRANCH   5   7
BRANCH   1  26
ATOM     25  C   UNL     1      -5.115  12.732  21.631  0.00  0.00    +0.000 C 
ATOM     26  C   UNL     1      -4.096  13.112  20.561  0.00  0.00    +0.000 C 
ENDBRANCH   1  26
BRANCH   6  27
ATOM     27  C   UNL     1      -2.210  11.439  19.066  0.00  0.00    +0.000 C 
ATOM     28  C   UNL     1      -2.500  11.106  17.944  0.00  0.00    +0.000 C 
BRANCH  28  29
ATOM     29  C   UNL     1      -2.855  10.747  16.608  0.00  0.00    +0.000 A 
ATOM     30  C   UNL     1      -2.223   9.696  15.948  0.00  0.00    +0.000 A 
ATOM     31  C   UNL     1      -2.588   9.396  14.634  0.00  0.00    +0.000 A 
ATOM     32  C   UNL     1      -3.566  10.160  14.014  0.00  0.00    +0.000 A 
ATOM     33  N   UNL     1      -3.955   9.890  12.704  0.00  0.00    +0.000 N 
ATOM     34  N   UNL     1      -4.210  11.162  14.638  0.00  0.00    +0.000 NA
ATOM     35  C   UNL     1      -3.845  11.430  15.916  0.00  0.00    +0.000 A 
ATOM     36  H   UNL     1      -3.161   9.875  12.073  0.00  0.00    +0.000 HD
ATOM     37  H   UNL     1      -4.633  10.602  12.443  0.00  0.00    +0.000 HD
ENDBRANCH  28  29
ENDBRANCH   6  27
TORSDOF 5
ENDMDL
MODEL 6
REMARK VINA RESULT:      -7.1      1.162      1.277
REMARK  Name = 
REMARK  6 active torsions:
REMARK  status: ('A' for Active; 'I' for Inactive)
REMARK    1  A    between atoms: C_1  and  C_2
REMARK    2  A    between atoms: C_2  and  C_3
REMARK    3  A    between atoms: C_7  and  C_8
REMARK    4  A    between atoms: C_11  and  C_12
REMARK    5  A    between atoms: C_26  and  C_27
REMARK    6  A    between atoms: C_28  and  C_29
REMARK                            x       y       z     vdW  Elec       q    Type
REMARK                         _______ _______ _______ _____ _____    ______ ____
ROOT
ATOM      1  C   UNL     1       1.169  15.811  19.018  0.00  0.00    +0.000 A 
ATOM      2  N   UNL     1       2.211  16.011  18.172  0.00  0.00    +0.000 NA
ATOM      3  C   UNL     1       2.902  14.933  17.773  0.00  0.00    +0.000 A 
ATOM      4  C   UNL     1       2.637  13.651  18.220  0.00  0.00    +0.000 A 
ATOM      5  C   UNL     1       1.542  13.411  19.071  0.00  0.00    +0.000 A 
ATOM      6  C   UNL     1       0.762  14.536  19.448  0.00  0.00    +0.000 A 
ENDROOT
BRANCH   5   7
ATOM      7  C   UNL     1       1.243  12.013  19.495  0.00  0.00    +0.000 A 
ATOM      8  C   UNL     1       1.257  11.647  20.853  0.00  0.00    +0.000 A 
ATOM      9  C   UNL     1       1.082  10.319  21.255  0.00  0.00    +0.000 A 
ATOM     10  C   UNL     1       0.939   9.299  20.306  0.00  0.00    +0.000 A 
ATOM     11  C   UNL     1       0.935   9.645  18.964  0.00  0.00    +0.000 A 
ATOM     12  F   UNL     1       0.927   8.719  17.996  0.00  0.00    +0.000 F 
ATOM     13  C   UNL     1       0.991  10.982  18.573  0.00  0.00    +0.000 A 
BRANCH  10  14
ATOM     14  C   UNL     1       0.905   7.912  20.812  0.00  0.00    +0.000 C 
ATOM     15  O   UNL     1      -0.043   7.640  21.556  0.00  0.00    +0.000 OA
ATOM     16  N   UNL     1       1.829   6.951  20.422  0.00  0.00    +0.000 N 
ATOM     17  C   UNL     1       2.939   7.091  19.456  0.00  0.00    +0.000 C 
ATOM     18  C   UNL     1       2.833   6.114  18.260  0.00  0.00    +0.000 C 
ATOM     19  N   UNL     1       2.524   4.755  18.696  0.00  0.00    +0.000 NA
ATOM     20  C   UNL     1       2.243   3.812  17.623  0.00  0.00    +0.000 C 
ATOM     21  C   UNL     1       1.470   2.698  18.333  0.00  0.00    +0.000 C 
ATOM     22  C   UNL     1       1.110   3.254  19.715  0.00  0.00    +0.000 C 
ATOM     23  C   UNL     1       1.322   4.743  19.550  0.00  0.00    +0.000 C 
ATOM     24  C   UNL     1       1.572   5.556  20.821  0.00  0.00    +0.000 C 
ENDBRANCH  10  14
ENDBRANCH   5   7
BRANCH   1  26
ATOM     25  C   UNL     1      -0.293  17.753  18.544  0.00  0.00    +0.000 C 
ATOM     26  C   UNL     1       0.582  17.076  19.594  0.00  0.00    +0.000 C 
ENDBRANCH   1  26
BRANCH   6  27
ATOM     27  C   UNL     1      -0.449  14.406  20.221  0.00  0.00    +0.000 C 
ATOM     28  C   UNL     1      -1.447  14.295  20.890  0.00  0.00    +0.000 C 
BRANCH  28  29
ATOM     29  C   UNL     1      -2.607  14.163  21.713  0.00  0.00    +0.000 A 
ATOM     30  C   UNL     1      -3.089  12.912  22.090  0.00  0.00    +0.000 A 
ATOM     31  C   UNL     1      -4.240  12.833  22.876  0.00  0.00    +0.000 A 
ATOM     32  C   UNL     1      -4.882  14.004  23.254  0.00  0.00    +0.000 A 
ATOM     33  N   UNL     1      -6.033  13.962  24.038  0.00  0.00    +0.000 N 
ATOM     34  N   UNL     1      -4.421  15.223  22.926  0.00  0.00    +0.000 NA
ATOM     35  C   UNL     1      -3.298  15.277  22.168  0.00  0.00    +0.000 A 
ATOM     36  H   UNL     1      -6.744  13.366  23.629  0.00  0.00    +0.000 HD
ATOM     37  H   UNL     1      -6.356  14.922  24.142  0.00  0.00    +0.000 HD
ENDBRANCH  28  29
ENDBRANCH   6  27
TORSDOF 5
ENDMDL
MODEL 7
REMARK VINA RESULT:      -7.1      2.596      5.661
REMARK  Name = 
REMARK  6 active torsions:
REMARK  status: ('A' for Active; 'I' for Inactive)
REMARK    1  A    between atoms: C_1  and  C_2
REMARK    2  A    between atoms: C_2  and  C_3
REMARK    3  A    between atoms: C_7  and  C_8
REMARK    4  A    between atoms: C_11  and  C_12
REMARK    5  A    between atoms: C_26  and  C_27
REMARK    6  A    between atoms: C_28  and  C_29
REMARK                            x       y       z     vdW  Elec       q    Type
REMARK                         _______ _______ _______ _____ _____    ______ ____
ROOT
ATOM      1  C   UNL     1      -0.739  13.731  22.602  0.00  0.00    +0.000 A 
ATOM      2  N   UNL     1      -1.765  13.386  23.421  0.00  0.00    +0.000 NA
ATOM      3  C   UNL     1      -2.135  12.097  23.443  0.00  0.00    +0.000 A 
ATOM      4  C   UNL     1      -1.560  11.127  22.642  0.00  0.00    +0.000 A 
ATOM      5  C   UNL     1      -0.474  11.451  21.808  0.00  0.00    +0.000 A 
ATOM      6  C   UNL     1      -0.030  12.799  21.825  0.00  0.00    +0.000 A 
ENDROOT
BRANCH   5   7
ATOM      7  C   UNL     1       0.163  10.376  20.994  0.00  0.00    +0.000 A 
ATOM      8  C   UNL     1       0.851   9.312  21.607  0.00  0.00    +0.000 A 
ATOM      9  C   UNL     1       1.540   8.356  20.853  0.00  0.00    +0.000 A 
ATOM     10  C   UNL     1       1.608   8.460  19.458  0.00  0.00    +0.000 A 
ATOM     11  C   UNL     1       0.944   9.510  18.844  0.00  0.00    +0.000 A 
ATOM     12  F   UNL     1       1.064   9.749  17.531  0.00  0.00    +0.000 F 
ATOM     13  C   UNL     1       0.162  10.392  19.588  0.00  0.00    +0.000 A 
BRANCH  10  14
ATOM     14  C   UNL     1       2.475   7.492  18.755  0.00  0.00    +0.000 C 
ATOM     15  O   UNL     1       3.496   7.965  18.246  0.00  0.00    +0.000 OA
ATOM     16  N   UNL     1       2.207   6.130  18.731  0.00  0.00    +0.000 N 
ATOM     17  C   UNL     1       1.099   5.406  19.388  0.00  0.00    +0.000 C 
ATOM     18  C   UNL     1       1.583   4.333  20.394  0.00  0.00    +0.000 C 
ATOM     19  N   UNL     1       2.652   3.508  19.834  0.00  0.00    +0.000 NA
ATOM     20  C   UNL     1       3.275   2.587  20.773  0.00  0.00    +0.000 C 
ATOM     21  C   UNL     1       4.621   2.276  20.111  0.00  0.00    +0.000 C 
ATOM     22  C   UNL     1       4.777   3.298  18.980  0.00  0.00    +0.000 C 
ATOM     23  C   UNL     1       3.749   4.353  19.328  0.00  0.00    +0.000 C 
ATOM     24  C   UNL     1       3.247   5.239  18.187  0.00  0.00    +0.000 C 
ENDBRANCH  10  14
ENDBRANCH   5   7
BRANCH   1  26
ATOM     25  C   UNL     1      -1.537  15.787  21.475  0.00  0.00    +0.000 C 
ATOM     26  C   UNL     1      -0.525  15.218  22.464  0.00  0.00    +0.000 C 
ENDBRANCH   1  26
BRANCH   6  27
ATOM     27  C   UNL     1       1.143  13.230  21.104  0.00  0.00    +0.000 C 
ATOM     28  C   UNL     1       2.124  13.613  20.516  0.00  0.00    +0.000 C 
BRANCH  28  29
ATOM     29  C   UNL     1       3.286  14.098  19.841  0.00  0.00    +0.000 A 
ATOM     30  C   UNL     1       3.379  14.075  18.451  0.00  0.00    +0.000 A 
ATOM     31  C   UNL     1       4.545  14.539  17.838  0.00  0.00    +0.000 A 
ATOM     32  C   UNL     1       5.586  15.003  18.629  0.00  0.00    +0.000 A 
ATOM     33  N   UNL     1       6.763  15.472  18.050  0.00  0.00    +0.000 N 
ATOM     34  N   UNL     1       5.510  15.061  19.969  0.00  0.00    +0.000 NA
ATOM     35  C   UNL     1       4.366  14.612  20.544  0.00  0.00    +0.000 A 
ATOM     36  H   UNL     1       7.167  14.791  17.416  0.00  0.00    +0.000 HD
ATOM     37  H   UNL     1       7.397  15.703  18.812  0.00  0.00    +0.000 HD
ENDBRANCH  28  29
ENDBRANCH   6  27
TORSDOF 5
ENDMDL
MODEL 8
REMARK VINA RESULT:      -7.1      1.015      1.478
REMARK  Name = 
REMARK  6 active torsions:
REMARK  status: ('A' for Active; 'I' for Inactive)
REMARK    1  A    between atoms: C_1  and  C_2
REMARK    2  A    between atoms: C_2  and  C_3
REMARK    3  A    between atoms: C_7  and  C_8
REMARK    4  A    between atoms: C_11  and  C_12
REMARK    5  A    between atoms: C_26  and  C_27
REMARK    6  A    between atoms: C_28  and  C_29
REMARK                            x       y       z     vdW  Elec       q    Type
REMARK                         _______ _______ _______ _____ _____    ______ ____
ROOT
ATOM      1  C   UNL     1       1.013  15.504  19.444  0.00  0.00    +0.000 A 
ATOM      2  N   UNL     1       1.986  15.805  18.547  0.00  0.00    +0.000 NA
ATOM      3  C   UNL     1       2.676  14.786  18.014  0.00  0.00    +0.000 A 
ATOM      4  C   UNL     1       2.478  13.465  18.371  0.00  0.00    +0.000 A 
ATOM      5  C   UNL     1       1.454  13.122  19.274  0.00  0.00    +0.000 A 
ATOM      6  C   UNL     1       0.673  14.186  19.795  0.00  0.00    +0.000 A 
ENDROOT
BRANCH   5   7
ATOM      7  C   UNL     1       1.225  11.685  19.601  0.00  0.00    +0.000 A 
ATOM      8  C   UNL     1       1.207  11.238  20.935  0.00  0.00    +0.000 A 
ATOM      9  C   UNL     1       1.098   9.879  21.250  0.00  0.00    +0.000 A 
ATOM     10  C   UNL     1       1.055   8.913  20.237  0.00  0.00    +0.000 A 
ATOM     11  C   UNL     1       1.085   9.340  18.919  0.00  0.00    +0.000 A 
ATOM     12  F   UNL     1       1.173   8.476  17.899  0.00  0.00    +0.000 F 
ATOM     13  C   UNL     1       1.074  10.700  18.610  0.00  0.00    +0.000 A 
BRANCH  10  14
ATOM     14  C   UNL     1       1.086   7.498  20.660  0.00  0.00    +0.000 C 
ATOM     15  O   UNL     1       0.116   7.120  21.324  0.00  0.00    +0.000 OA
ATOM     16  N   UNL     1       2.096   6.625  20.275  0.00  0.00    +0.000 N 
ATOM     17  C   UNL     1       3.249   6.896  19.392  0.00  0.00    +0.000 C 
ATOM     18  C   UNL     1       3.283   5.991  18.136  0.00  0.00    +0.000 C 
ATOM     19  N   UNL     1       3.042   4.589  18.472  0.00  0.00    +0.000 NA
ATOM     20  C   UNL     1       2.891   3.699  17.330  0.00  0.00    +0.000 C 
ATOM     21  C   UNL     1       2.155   2.495  17.924  0.00  0.00    +0.000 C 
ATOM     22  C   UNL     1       1.675   2.940  19.310  0.00  0.00    +0.000 C 
ATOM     23  C   UNL     1       1.794   4.447  19.245  0.00  0.00    +0.000 C 
ATOM     24  C   UNL     1       1.912   5.194  20.575  0.00  0.00    +0.000 C 
ENDBRANCH  10  14
ENDBRANCH   5   7
BRANCH   1  26
ATOM     25  C   UNL     1       1.491  17.298  21.083  0.00  0.00    +0.000 C 
ATOM     26  C   UNL     1       0.434  16.700  20.160  0.00  0.00    +0.000 C 
ENDBRANCH   1  26
BRANCH   6  27
ATOM     27  C   UNL     1      -0.476  13.955  20.636  0.00  0.00    +0.000 C 
ATOM     28  C   UNL     1      -1.420  13.762  21.361  0.00  0.00    +0.000 C 
BRANCH  28  29
ATOM     29  C   UNL     1      -2.516  13.538  22.250  0.00  0.00    +0.000 A 
ATOM     30  C   UNL     1      -2.573  14.152  23.499  0.00  0.00    +0.000 A 
ATOM     31  C   UNL     1      -3.653  13.884  24.343  0.00  0.00    +0.000 A 
ATOM     32  C   UNL     1      -4.639  13.004  23.919  0.00  0.00    +0.000 A 
ATOM     33  N   UNL     1      -5.730  12.713  24.735  0.00  0.00    +0.000 N 
ATOM     34  N   UNL     1      -4.621  12.420  22.708  0.00  0.00    +0.000 NA
ATOM     35  C   UNL     1      -3.566  12.700  21.902  0.00  0.00    +0.000 A 
ATOM     36  H   UNL     1      -5.438  12.395  25.653  0.00  0.00    +0.000 HD
ATOM     37  H   UNL     1      -6.285  12.012  24.250  0.00  0.00    +0.000 HD
ENDBRANCH  28  29
ENDBRANCH   6  27
TORSDOF 5
ENDMDL
MODEL 9
REMARK VINA RESULT:      -7.1      5.529      9.090
REMARK  Name = 
REMARK  6 active torsions:
REMARK  status: ('A' for Active; 'I' for Inactive)
REMARK    1  A    between atoms: C_1  and  C_2
REMARK    2  A    between atoms: C_2  and  C_3
REMARK    3  A    between atoms: C_7  and  C_8
REMARK    4  A    between atoms: C_11  and  C_12
REMARK    5  A    between atoms: C_26  and  C_27
REMARK    6  A    between atoms: C_28  and  C_29
REMARK                            x       y       z     vdW  Elec       q    Type
REMARK                         _______ _______ _______ _____ _____    ______ ____
ROOT
ATOM      1  C   UNL     1       9.775  14.498  19.519  0.00  0.00    +0.000 A 
ATOM      2  N   UNL     1      10.270  15.234  18.492  0.00  0.00    +0.000 NA
ATOM      3  C   UNL     1       9.397  15.937  17.755  0.00  0.00    +0.000 A 
ATOM      4  C   UNL     1       8.030  15.904  17.959  0.00  0.00    +0.000 A 
ATOM      5  C   UNL     1       7.493  15.175  19.036  0.00  0.00    +0.000 A 
ATOM      6  C   UNL     1       8.412  14.480  19.864  0.00  0.00    +0.000 A 
ENDROOT
BRANCH   5   7
ATOM      7  C   UNL     1       6.019  15.200  19.268  0.00  0.00    +0.000 A 
ATOM      8  C   UNL     1       5.489  15.494  20.537  0.00  0.00    +0.000 A 
ATOM      9  C   UNL     1       4.115  15.417  20.791  0.00  0.00    +0.000 A 
ATOM     10  C   UNL     1       3.227  14.994  19.794  0.00  0.00    +0.000 A 
ATOM     11  C   UNL     1       3.740  14.690  18.543  0.00  0.00    +0.000 A 
ATOM     12  F   UNL     1       2.977  14.161  17.576  0.00  0.00    +0.000 F 
ATOM     13  C   UNL     1       5.092  14.881  18.261  0.00  0.00    +0.000 A 
BRANCH  10  14
ATOM     14  C   UNL     1       1.817  14.804  20.189  0.00  0.00    +0.000 C 
ATOM     15  O   UNL     1       1.140  15.835  20.256  0.00  0.00    +0.000 OA
ATOM     16  N   UNL     1       1.262  13.548  20.398  0.00  0.00    +0.000 N 
ATOM     17  C   UNL     1       1.907  12.227  20.241  0.00  0.00    +0.000 C 
ATOM     18  C   UNL     1       1.203  11.325  19.199  0.00  0.00    +0.000 C 
ATOM     19  N   UNL     1      -0.247  11.318  19.379  0.00  0.00    +0.000 NA
ATOM     20  C   UNL     1      -0.994  10.628  18.338  0.00  0.00    +0.000 C 
ATOM     21  C   UNL     1      -2.403  11.210  18.478  0.00  0.00    +0.000 C 
ATOM     22  C   UNL     1      -2.265  12.422  19.405  0.00  0.00    +0.000 C 
ATOM     23  C   UNL     1      -0.776  12.694  19.391  0.00  0.00    +0.000 C 
ATOM     24  C   UNL     1      -0.199  13.468  20.578  0.00  0.00    +0.000 C 
ENDBRANCH  10  14
ENDBRANCH   5   7
BRANCH   1  26
ATOM     25  C   UNL     1      10.950  12.330  19.287  0.00  0.00    +0.000 C 
ATOM     26  C   UNL     1      10.777  13.568  20.159  0.00  0.00    +0.000 C 
ENDBRANCH   1  26
BRANCH   6  27
ATOM     27  C   UNL     1       7.998  13.792  21.063  0.00  0.00    +0.000 C 
ATOM     28  C   UNL     1       7.663  13.238  22.081  0.00  0.00    +0.000 C 
BRANCH  28  29
ATOM     29  C   UNL     1       7.281  12.610  23.306  0.00  0.00    +0.000 A 
ATOM     30  C   UNL     1       8.147  12.558  24.394  0.00  0.00    +0.000 A 
ATOM     31  C   UNL     1       7.737  11.913  25.563  0.00  0.00    +0.000 A 
ATOM     32  C   UNL     1       6.478  11.332  25.607  0.00  0.00    +0.000 A 
ATOM     33  N   UNL     1       6.037  10.680  26.757  0.00  0.00    +0.000 N 
ATOM     34  N   UNL     1       5.613  11.392  24.580  0.00  0.00    +0.000 NA
ATOM     35  C   UNL     1       6.030  12.030  23.458  0.00  0.00    +0.000 A 
ATOM     36  H   UNL     1       6.691   9.967  27.059  0.00  0.00    +0.000 HD
ATOM     37  H   UNL     1       5.122  10.288  26.543  0.00  0.00    +0.000 HD
ENDBRANCH  28  29
ENDBRANCH   6  27
TORSDOF 5
ENDMDL
