MODEL 1
REMARK VINA RESULT:      -8.8      0.000      0.000
REMARK  Name = 
REMARK  7 active torsions:
REMARK  status: ('A' for Active; 'I' for Inactive)
REMARK    1  A    between atoms: C_1  and  C_2
REMARK    2  A    between atoms: N_4  and  C_5
REMARK    3  A    between atoms: C_8  and  S_9
REMARK    4  A    between atoms: S_9  and  N_12
REMARK    5  A    between atoms: N_12  and  C_13
REMARK    6  A    between atoms: C_18  and  C_19
REMARK    7  A    between atoms: C_19  and  C_21
REMARK                            x       y       z     vdW  Elec       q    Type
REMARK                         _______ _______ _______ _____ _____    ______ ____
ROOT
ATOM      1  N   UNL     1       5.145   3.461  17.961  0.00  0.00    +0.000 N 
ATOM      2  H   UNL     1       5.709   3.796  18.743  0.00  0.00    +0.000 HD
ENDROOT
BRANCH   1   3
ATOM      3  C   UNL     1       3.752   3.314  18.293  0.00  0.00    +0.000 A 
ATOM      4  C   UNL     1       3.113   2.141  17.856  0.00  0.00    +0.000 A 
ATOM      5  C   UNL     1       1.739   1.957  18.035  0.00  0.00    +0.000 A 
ATOM      6  C   UNL     1       0.982   2.942  18.654  0.00  0.00    +0.000 A 
ATOM      7  C   UNL     1       1.607   4.100  19.112  0.00  0.00    +0.000 A 
ATOM      8  C   UNL     1       3.000   4.285  18.982  0.00  0.00    +0.000 A 
BRANCH   8   9
ATOM      9  C   UNL     1       3.576   5.572  19.468  0.00  0.00    +0.000 C 
ATOM     10  O   UNL     1       4.697   5.599  19.968  0.00  0.00    +0.000 OA
BRANCH   9  11
ATOM     11  C   UNL     1       2.862   6.866  19.255  0.00  0.00    +0.000 A 
ATOM     12  C   UNL     1       2.972   7.480  18.000  0.00  0.00    +0.000 A 
ATOM     13  C   UNL     1       2.231   8.631  17.700  0.00  0.00    +0.000 A 
ATOM     14  C   UNL     1       1.368   9.165  18.654  0.00  0.00    +0.000 A 
ATOM     15  C   UNL     1       1.290   8.575  19.911  0.00  0.00    +0.000 A 
ATOM     16  F   UNL     1       0.437   9.071  20.817  0.00  0.00    +0.000 F 
ATOM     17  C   UNL     1       2.047   7.452  20.231  0.00  0.00    +0.000 A 
ENDBRANCH   9  11
ENDBRANCH   8   9
ENDBRANCH   1   3
BRANCH   1  18
ATOM     18  S   UNL     1       5.577   4.371  16.602  0.00  0.00    +0.000 S 
ATOM     19  O   UNL     1       4.348   4.970  16.131  0.00  0.00    +0.000 OA
ATOM     20  O   UNL     1       6.416   3.584  15.724  0.00  0.00    +0.000 OA
BRANCH  18  24
ATOM     21  C   UNL     1       8.148   7.684  18.473  0.00  0.00    +0.000 A 
ATOM     22  C   UNL     1       8.228   6.361  18.916  0.00  0.00    +0.000 A 
ATOM     23  C   UNL     1       7.454   5.357  18.334  0.00  0.00    +0.000 A 
ATOM     24  C   UNL     1       6.562   5.672  17.312  0.00  0.00    +0.000 A 
ATOM     25  C   UNL     1       6.482   6.986  16.835  0.00  0.00    +0.000 A 
ATOM     26  C   UNL     1       7.257   7.995  17.435  0.00  0.00    +0.000 A 
BRANCH  21  30
ATOM     27  C   UNL     1       9.898  10.911  19.373  0.00  0.00    +0.000 C 
ATOM     28  C   UNL     1       8.925  10.042  18.621  0.00  0.00    +0.000 C 
ATOM     29  O   UNL     1       8.218  10.532  17.745  0.00  0.00    +0.000 OA
ATOM     30  N   UNL     1       8.927   8.720  19.040  0.00  0.00    +0.000 N 
ATOM     31  H   UNL     1       9.448   8.496  19.878  0.00  0.00    +0.000 HD
ENDBRANCH  21  30
ENDBRANCH  18  24
ENDBRANCH   1  18
TORSDOF 6
ENDMDL
MODEL 2
REMARK VINA RESULT:      -8.3      3.829      6.446
REMARK  Name = 
REMARK  7 active torsions:
REMARK  status: ('A' for Active; 'I' for Inactive)
REMARK    1  A    between atoms: C_1  and  C_2
REMARK    2  A    between atoms: N_4  and  C_5
REMARK    3  A    between atoms: C_8  and  S_9
REMARK    4  A    between atoms: S_9  and  N_12
REMARK    5  A    between atoms: N_12  and  C_13
REMARK    6  A    between atoms: C_18  and  C_19
REMARK    7  A    between atoms: C_19  and  C_21
REMARK                            x       y       z     vdW  Elec       q    Type
REMARK                         _______ _______ _______ _____ _____    ______ ____
ROOT
ATOM      1  N   UNL     1       2.950   5.876  19.615  0.00  0.00    +0.000 N 
ATOM      2  H   UNL     1       2.409   6.137  20.441  0.00  0.00    +0.000 HD
ENDROOT
BRANCH   1   3
ATOM      3  C   UNL     1       2.799   4.490  19.258  0.00  0.00    +0.000 A 
ATOM      4  C   UNL     1       1.539   3.908  19.483  0.00  0.00    +0.000 A 
ATOM      5  C   UNL     1       1.326   2.543  19.271  0.00  0.00    +0.000 A 
ATOM      6  C   UNL     1       2.367   1.739  18.829  0.00  0.00    +0.000 A 
ATOM      7  C   UNL     1       3.614   2.307  18.580  0.00  0.00    +0.000 A 
ATOM      8  C   UNL     1       3.838   3.691  18.745  0.00  0.00    +0.000 A 
BRANCH   8   9
ATOM      9  C   UNL     1       5.216   4.204  18.491  0.00  0.00    +0.000 C 
ATOM     10  O   UNL     1       6.007   4.339  19.420  0.00  0.00    +0.000 OA
BRANCH   9  11
ATOM     11  C   UNL     1       5.702   4.454  17.101  0.00  0.00    +0.000 A 
ATOM     12  C   UNL     1       7.042   4.828  16.930  0.00  0.00    +0.000 A 
ATOM     13  C   UNL     1       7.588   4.959  15.647  0.00  0.00    +0.000 A 
ATOM     14  C   UNL     1       6.796   4.707  14.529  0.00  0.00    +0.000 A 
ATOM     15  C   UNL     1       5.457   4.373  14.703  0.00  0.00    +0.000 A 
ATOM     16  F   UNL     1       4.704   4.101  13.629  0.00  0.00    +0.000 F 
ATOM     17  C   UNL     1       4.895   4.273  15.972  0.00  0.00    +0.000 A 
ENDBRANCH   9  11
ENDBRANCH   8   9
ENDBRANCH   1   3
BRANCH   1  18
ATOM     18  S   UNL     1       2.681   7.064  18.441  0.00  0.00    +0.000 S 
ATOM     19  O   UNL     1       1.810   6.451  17.463  0.00  0.00    +0.000 OA
ATOM     20  O   UNL     1       3.935   7.672  18.054  0.00  0.00    +0.000 OA
BRANCH  18  24
ATOM     21  C   UNL     1       0.187  10.204  20.679  0.00  0.00    +0.000 A 
ATOM     22  C   UNL     1       0.454  10.323  19.313  0.00  0.00    +0.000 A 
ATOM     23  C   UNL     1       1.201   9.358  18.636  0.00  0.00    +0.000 A 
ATOM     24  C   UNL     1       1.718   8.268  19.329  0.00  0.00    +0.000 A 
ATOM     25  C   UNL     1       1.444   8.114  20.694  0.00  0.00    +0.000 A 
ATOM     26  C   UNL     1       0.700   9.097  21.372  0.00  0.00    +0.000 A 
BRANCH  21  30
ATOM     27  C   UNL     1      -1.123  13.187  22.594  0.00  0.00    +0.000 C 
ATOM     28  C   UNL     1      -0.106  12.399  21.812  0.00  0.00    +0.000 C 
ATOM     29  O   UNL     1       1.004  12.875  21.595  0.00  0.00    +0.000 OA
ATOM     30  N   UNL     1      -0.574  11.163  21.388  0.00  0.00    +0.000 N 
ATOM     31  H   UNL     1      -1.560  10.972  21.504  0.00  0.00    +0.000 HD
ENDBRANCH  21  30
ENDBRANCH  18  24
ENDBRANCH   1  18
TORSDOF 6
ENDMDL
MODEL 3
REMARK VINA RESULT:      -8.3      3.963      6.388
REMARK  Name = 
REMARK  7 active torsions:
REMARK  status: ('A' for Active; 'I' for Inactive)
REMARK    1  A    between atoms: C_1  and  C_2
REMARK    2  A    between atoms: N_4  and  C_5
REMARK    3  A    between atoms: C_8  and  S_9
REMARK    4  A    between atoms: S_9  and  N_12
REMARK    5  A    between atoms: N_12  and  C_13
REMARK    6  A    between atoms: C_18  and  C_19
REMARK    7  A    between atoms: C_19  and  C_21
REMARK                            x       y       z     vdW  Elec       q    Type
REMARK                         _______ _______ _______ _____ _____    ______ ____
ROOT
ATOM      1  N   UNL     1       3.412   6.305  19.799  0.00  0.00    +0.000 N 
ATOM      2  H   UNL     1       2.941   6.781  20.569  0.00  0.00    +0.000 HD
ENDROOT
BRANCH   1   3
ATOM      3  C   UNL     1       3.430   4.873  19.948  0.00  0.00    +0.000 A 
ATOM      4  C   UNL     1       2.352   4.291  20.637  0.00  0.00    +0.000 A 
ATOM      5  C   UNL     1       2.334   2.924  20.926  0.00  0.00    +0.000 A 
ATOM      6  C   UNL     1       3.392   2.117  20.531  0.00  0.00    +0.000 A 
ATOM      7  C   UNL     1       4.455   2.678  19.828  0.00  0.00    +0.000 A 
ATOM      8  C   UNL     1       4.472   4.047  19.486  0.00  0.00    +0.000 A 
BRANCH   8   9
ATOM      9  C   UNL     1       5.670   4.566  18.765  0.00  0.00    +0.000 C 
ATOM     10  O   UNL     1       6.628   5.007  19.394  0.00  0.00    +0.000 OA
BRANCH   9  11
ATOM     11  C   UNL     1       5.784   4.457  17.280  0.00  0.00    +0.000 A 
ATOM     12  C   UNL     1       4.651   4.057  16.560  0.00  0.00    +0.000 A 
ATOM     13  C   UNL     1       4.660   4.051  15.160  0.00  0.00    +0.000 A 
ATOM     14  C   UNL     1       5.802   4.456  14.473  0.00  0.00    +0.000 A 
ATOM     15  C   UNL     1       6.937   4.816  15.192  0.00  0.00    +0.000 A 
ATOM     16  F   UNL     1       8.026   5.234  14.532  0.00  0.00    +0.000 F 
ATOM     17  C   UNL     1       6.951   4.793  16.583  0.00  0.00    +0.000 A 
ENDBRANCH   9  11
ENDBRANCH   8   9
ENDBRANCH   1   3
BRANCH   1  18
ATOM     18  S   UNL     1       2.828   6.976  18.360  0.00  0.00    +0.000 S 
ATOM     19  O   UNL     1       1.929   5.988  17.809  0.00  0.00    +0.000 OA
ATOM     20  O   UNL     1       3.923   7.515  17.583  0.00  0.00    +0.000 OA
BRANCH  18  24
ATOM     21  C   UNL     1       0.258  10.442  19.936  0.00  0.00    +0.000 A 
ATOM     22  C   UNL     1       0.664   9.397  20.770  0.00  0.00    +0.000 A 
ATOM     23  C   UNL     1       1.456   8.354  20.288  0.00  0.00    +0.000 A 
ATOM     24  C   UNL     1       1.832   8.329  18.948  0.00  0.00    +0.000 A 
ATOM     25  C   UNL     1       1.457   9.377  18.098  0.00  0.00    +0.000 A 
ATOM     26  C   UNL     1       0.648  10.419  18.588  0.00  0.00    +0.000 A 
BRANCH  21  30
ATOM     27  C   UNL     1      -1.162  13.548  21.553  0.00  0.00    +0.000 C 
ATOM     28  C   UNL     1      -0.076  12.585  21.152  0.00  0.00    +0.000 C 
ATOM     29  O   UNL     1       1.086  12.802  21.481  0.00  0.00    +0.000 OA
ATOM     30  N   UNL     1      -0.538  11.515  20.400  0.00  0.00    +0.000 N 
ATOM     31  H   UNL     1      -1.495  11.551  20.073  0.00  0.00    +0.000 HD
ENDBRANCH  21  30
ENDBRANCH  18  24
ENDBRANCH   1  18
TORSDOF 6
ENDMDL
MODEL 4
REMARK VINA RESULT:      -8.3      3.862      6.514
REMARK  Name = 
REMARK  7 active torsions:
REMARK  status: ('A' for Active; 'I' for Inactive)
REMARK    1  A    between atoms: C_1  and  C_2
REMARK    2  A    between atoms: N_4  and  C_5
REMARK    3  A    between atoms: C_8  and  S_9
REMARK    4  A    between atoms: S_9  and  N_12
REMARK    5  A    between atoms: N_12  and  C_13
REMARK    6  A    between atoms: C_18  and  C_19
REMARK    7  A    between atoms: C_19  and  C_21
REMARK                            x       y       z     vdW  Elec       q    Type
REMARK                         _______ _______ _______ _____ _____    ______ ____
ROOT
ATOM      1  N   UNL     1       3.210   6.506  19.682  0.00  0.00    +0.000 N 
ATOM      2  H   UNL     1       3.164   7.004  20.571  0.00  0.00    +0.000 HD
ENDROOT
BRANCH   1   3
ATOM      3  C   UNL     1       2.856   5.116  19.795  0.00  0.00    +0.000 A 
ATOM      4  C   UNL     1       2.004   4.760  20.854  0.00  0.00    +0.000 A 
ATOM      5  C   UNL     1       1.692   3.422  21.112  0.00  0.00    +0.000 A 
ATOM      6  C   UNL     1       2.225   2.419  20.314  0.00  0.00    +0.000 A 
ATOM      7  C   UNL     1       3.052   2.760  19.247  0.00  0.00    +0.000 A 
ATOM      8  C   UNL     1       3.344   4.107  18.943  0.00  0.00    +0.000 A 
BRANCH   8   9
ATOM      9  C   UNL     1       4.270   4.375  17.804  0.00  0.00    +0.000 C 
ATOM     10  O   UNL     1       3.937   4.097  16.656  0.00  0.00    +0.000 OA
BRANCH   9  11
ATOM     11  C   UNL     1       5.565   5.089  18.015  0.00  0.00    +0.000 A 
ATOM     12  C   UNL     1       5.940   6.062  17.079  0.00  0.00    +0.000 A 
ATOM     13  C   UNL     1       7.081   6.848  17.285  0.00  0.00    +0.000 A 
ATOM     14  C   UNL     1       7.846   6.670  18.435  0.00  0.00    +0.000 A 
ATOM     15  C   UNL     1       7.492   5.677  19.342  0.00  0.00    +0.000 A 
ATOM     16  F   UNL     1       8.210   5.526  20.463  0.00  0.00    +0.000 F 
ATOM     17  C   UNL     1       6.379   4.867  19.131  0.00  0.00    +0.000 A 
ENDBRANCH   9  11
ENDBRANCH   8   9
ENDBRANCH   1   3
BRANCH   1  18
ATOM     18  S   UNL     1       2.427   7.464  18.528  0.00  0.00    +0.000 S 
ATOM     19  O   UNL     1       1.521   6.575  17.836  0.00  0.00    +0.000 OA
ATOM     20  O   UNL     1       3.394   8.263  17.807  0.00  0.00    +0.000 OA
BRANCH  18  24
ATOM     21  C   UNL     1      -0.138  10.292  21.081  0.00  0.00    +0.000 A 
ATOM     22  C   UNL     1       0.005  10.480  19.704  0.00  0.00    +0.000 A 
ATOM     23  C   UNL     1       0.774   9.609  18.932  0.00  0.00    +0.000 A 
ATOM     24  C   UNL     1       1.439   8.547  19.538  0.00  0.00    +0.000 A 
ATOM     25  C   UNL     1       1.293   8.324  20.912  0.00  0.00    +0.000 A 
ATOM     26  C   UNL     1       0.525   9.213  21.686  0.00  0.00    +0.000 A 
BRANCH  21  30
ATOM     27  C   UNL     1      -1.562  13.106  23.163  0.00  0.00    +0.000 C 
ATOM     28  C   UNL     1      -0.561  12.444  22.254  0.00  0.00    +0.000 C 
ATOM     29  O   UNL     1       0.443  13.055  21.900  0.00  0.00    +0.000 OA
ATOM     30  N   UNL     1      -0.918  11.155  21.886  0.00  0.00    +0.000 N 
ATOM     31  H   UNL     1      -1.849  10.841  22.126  0.00  0.00    +0.000 HD
ENDBRANCH  21  30
ENDBRANCH  18  24
ENDBRANCH   1  18
TORSDOF 6
ENDMDL
MODEL 5
REMARK VINA RESULT:      -8.3      3.721      6.142
REMARK  Name = 
REMARK  7 active torsions:
REMARK  status: ('A' for Active; 'I' for Inactive)
REMARK    1  A    between atoms: C_1  and  C_2
REMARK    2  A    between atoms: N_4  and  C_5
REMARK    3  A    between atoms: C_8  and  S_9
REMARK    4  A    between atoms: S_9  and  N_12
REMARK    5  A    between atoms: N_12  and  C_13
REMARK    6  A    between atoms: C_18  and  C_19
REMARK    7  A    between atoms: C_19  and  C_21
REMARK                            x       y       z     vdW  Elec       q    Type
REMARK                         _______ _______ _______ _____ _____    ______ ____
ROOT
ATOM      1  N   UNL     1       3.143   6.050  19.778  0.00  0.00    +0.000 N 
ATOM      2  H   UNL     1       2.969   6.576  20.635  0.00  0.00    +0.000 HD
ENDROOT
BRANCH   1   3
ATOM      3  C   UNL     1       2.576   4.727  19.803  0.00  0.00    +0.000 A 
ATOM      4  C   UNL     1       1.215   4.625  20.141  0.00  0.00    +0.000 A 
ATOM      5  C   UNL     1       0.602   3.378  20.297  0.00  0.00    +0.000 A 
ATOM      6  C   UNL     1       1.338   2.216  20.117  0.00  0.00    +0.000 A 
ATOM      7  C   UNL     1       2.681   2.304  19.760  0.00  0.00    +0.000 A 
ATOM      8  C   UNL     1       3.308   3.551  19.553  0.00  0.00    +0.000 A 
BRANCH   8   9
ATOM      9  C   UNL     1       4.760   3.549  19.210  0.00  0.00    +0.000 C 
ATOM     10  O   UNL     1       5.558   2.920  19.899  0.00  0.00    +0.000 OA
BRANCH   9  11
ATOM     11  C   UNL     1       5.259   4.206  17.965  0.00  0.00    +0.000 A 
ATOM     12  C   UNL     1       4.562   3.972  16.772  0.00  0.00    +0.000 A 
ATOM     13  C   UNL     1       4.908   4.653  15.598  0.00  0.00    +0.000 A 
ATOM     14  C   UNL     1       5.948   5.579  15.616  0.00  0.00    +0.000 A 
ATOM     15  C   UNL     1       6.662   5.780  16.793  0.00  0.00    +0.000 A 
ATOM     16  F   UNL     1       7.643   6.692  16.818  0.00  0.00    +0.000 F 
ATOM     17  C   UNL     1       6.349   5.084  17.957  0.00  0.00    +0.000 A 
ENDBRANCH   9  11
ENDBRANCH   8   9
ENDBRANCH   1   3
BRANCH   1  18
ATOM     18  S   UNL     1       2.789   7.074  18.479  0.00  0.00    +0.000 S 
ATOM     19  O   UNL     1       1.926   6.310  17.608  0.00  0.00    +0.000 OA
ATOM     20  O   UNL     1       4.003   7.688  17.986  0.00  0.00    +0.000 OA
BRANCH  18  24
ATOM     21  C   UNL     1       0.217  10.289  20.516  0.00  0.00    +0.000 A 
ATOM     22  C   UNL     1       0.733   9.205  21.232  0.00  0.00    +0.000 A 
ATOM     23  C   UNL     1       1.525   8.239  20.610  0.00  0.00    +0.000 A 
ATOM     24  C   UNL     1       1.790   8.331  19.246  0.00  0.00    +0.000 A 
ATOM     25  C   UNL     1       1.304   9.420  18.512  0.00  0.00    +0.000 A 
ATOM     26  C   UNL     1       0.496  10.383  19.143  0.00  0.00    +0.000 A 
BRANCH  21  30
ATOM     27  C   UNL     1      -1.185  13.336  22.255  0.00  0.00    +0.000 C 
ATOM     28  C   UNL     1      -0.114  12.497  21.610  0.00  0.00    +0.000 C 
ATOM     29  O   UNL     1       1.036  12.919  21.542  0.00  0.00    +0.000 OA
ATOM     30  N   UNL     1      -0.582  11.285  21.123  0.00  0.00    +0.000 N 
ATOM     31  H   UNL     1      -1.583  11.142  21.109  0.00  0.00    +0.000 HD
ENDBRANCH  21  30
ENDBRANCH  18  24
ENDBRANCH   1  18
TORSDOF 6
ENDMDL
MODEL 6
REMARK VINA RESULT:      -8.3      4.019      6.616
REMARK  Name = 
REMARK  7 active torsions:
REMARK  status: ('A' for Active; 'I' for Inactive)
REMARK    1  A    between atoms: C_1  and  C_2
REMARK    2  A    between atoms: N_4  and  C_5
REMARK    3  A    between atoms: C_8  and  S_9
REMARK    4  A    between atoms: S_9  and  N_12
REMARK    5  A    between atoms: N_12  and  C_13
REMARK    6  A    between atoms: C_18  and  C_19
REMARK    7  A    between atoms: C_19  and  C_21
REMARK                            x       y       z     vdW  Elec       q    Type
REMARK                         _______ _______ _______ _____ _____    ______ ____
ROOT
ATOM      1  N   UNL     1       3.356   6.312  19.818  0.00  0.00    +0.000 N 
ATOM      2  H   UNL     1       2.847   6.785  20.565  0.00  0.00    +0.000 HD
ENDROOT
BRANCH   1   3
ATOM      3  C   UNL     1       3.375   4.881  19.967  0.00  0.00    +0.000 A 
ATOM      4  C   UNL     1       2.293   4.297  20.649  0.00  0.00    +0.000 A 
ATOM      5  C   UNL     1       2.275   2.930  20.937  0.00  0.00    +0.000 A 
ATOM      6  C   UNL     1       3.336   2.124  20.549  0.00  0.00    +0.000 A 
ATOM      7  C   UNL     1       4.403   2.686  19.852  0.00  0.00    +0.000 A 
ATOM      8  C   UNL     1       4.420   4.055  19.511  0.00  0.00    +0.000 A 
BRANCH   8   9
ATOM      9  C   UNL     1       5.623   4.576  18.798  0.00  0.00    +0.000 C 
ATOM     10  O   UNL     1       6.569   5.034  19.433  0.00  0.00    +0.000 OA
BRANCH   9  11
ATOM     11  C   UNL     1       5.757   4.448  17.316  0.00  0.00    +0.000 A 
ATOM     12  C   UNL     1       4.636   4.027  16.588  0.00  0.00    +0.000 A 
ATOM     13  C   UNL     1       4.662   4.002  15.188  0.00  0.00    +0.000 A 
ATOM     14  C   UNL     1       5.809   4.409  14.510  0.00  0.00    +0.000 A 
ATOM     15  C   UNL     1       6.932   4.789  15.238  0.00  0.00    +0.000 A 
ATOM     16  F   UNL     1       8.025   5.208  14.586  0.00  0.00    +0.000 F 
ATOM     17  C   UNL     1       6.929   4.785  16.630  0.00  0.00    +0.000 A 
ENDBRANCH   9  11
ENDBRANCH   8   9
ENDBRANCH   1   3
BRANCH   1  18
ATOM     18  S   UNL     1       2.838   6.982  18.354  0.00  0.00    +0.000 S 
ATOM     19  O   UNL     1       1.936   6.008  17.781  0.00  0.00    +0.000 OA
ATOM     20  O   UNL     1       3.972   7.487  17.610  0.00  0.00    +0.000 OA
BRANCH  18  24
ATOM     21  C   UNL     1       0.296  10.521  19.805  0.00  0.00    +0.000 A 
ATOM     22  C   UNL     1       0.627   9.463  20.656  0.00  0.00    +0.000 A 
ATOM     23  C   UNL     1       1.412   8.398  20.212  0.00  0.00    +0.000 A 
ATOM     24  C   UNL     1       1.854   8.363  18.893  0.00  0.00    +0.000 A 
ATOM     25  C   UNL     1       1.555   9.423  18.028  0.00  0.00    +0.000 A 
ATOM     26  C   UNL     1       0.754  10.488  18.479  0.00  0.00    +0.000 A 
BRANCH  21  30
ATOM     27  C   UNL     1      -2.321  13.195  20.335  0.00  0.00    +0.000 C 
ATOM     28  C   UNL     1      -1.744  11.941  19.733  0.00  0.00    +0.000 C 
ATOM     29  O   UNL     1      -2.387  11.311  18.900  0.00  0.00    +0.000 OA
ATOM     30  N   UNL     1      -0.491  11.617  20.231  0.00  0.00    +0.000 N 
ATOM     31  H   UNL     1      -0.154  12.141  21.028  0.00  0.00    +0.000 HD
ENDBRANCH  21  30
ENDBRANCH  18  24
ENDBRANCH   1  18
TORSDOF 6
ENDMDL
MODEL 7
REMARK VINA RESULT:      -8.2      1.210      1.556
REMARK  Name = 
REMARK  7 active torsions:
REMARK  status: ('A' for Active; 'I' for Inactive)
REMARK    1  A    between atoms: C_1  and  C_2
REMARK    2  A    between atoms: N_4  and  C_5
REMARK    3  A    between atoms: C_8  and  S_9
REMARK    4  A    between atoms: S_9  and  N_12
REMARK    5  A    between atoms: N_12  and  C_13
REMARK    6  A    between atoms: C_18  and  C_19
REMARK    7  A    between atoms: C_19  and  C_21
REMARK                            x       y       z     vdW  Elec       q    Type
REMARK                         _______ _______ _______ _____ _____    ______ ____
ROOT
ATOM      1  N   UNL     1       3.416   4.671  16.962  0.00  0.00    +0.000 N 
ATOM      2  H   UNL     1       2.932   4.738  16.066  0.00  0.00    +0.000 HD
ENDROOT
BRANCH   1   3
ATOM      3  C   UNL     1       2.597   4.110  18.005  0.00  0.00    +0.000 A 
ATOM      4  C   UNL     1       1.948   2.895  17.721  0.00  0.00    +0.000 A 
ATOM      5  C   UNL     1       1.048   2.329  18.627  0.00  0.00    +0.000 A 
ATOM      6  C   UNL     1       0.782   2.965  19.831  0.00  0.00    +0.000 A 
ATOM      7  C   UNL     1       1.436   4.157  20.135  0.00  0.00    +0.000 A 
ATOM      8  C   UNL     1       2.382   4.722  19.254  0.00  0.00    +0.000 A 
BRANCH   8   9
ATOM      9  C   UNL     1       3.004   6.021  19.645  0.00  0.00    +0.000 C 
ATOM     10  O   UNL     1       4.202   6.078  19.910  0.00  0.00    +0.000 OA
BRANCH   9  11
ATOM     11  C   UNL     1       2.222   7.292  19.612  0.00  0.00    +0.000 A 
ATOM     12  C   UNL     1       1.580   7.701  20.789  0.00  0.00    +0.000 A 
ATOM     13  C   UNL     1       0.932   8.941  20.855  0.00  0.00    +0.000 A 
ATOM     14  C   UNL     1       0.933   9.782  19.745  0.00  0.00    +0.000 A 
ATOM     15  C   UNL     1       1.538   9.356  18.567  0.00  0.00    +0.000 A 
ATOM     16  F   UNL     1       1.564  10.177  17.509  0.00  0.00    +0.000 F 
ATOM     17  C   UNL     1       2.155   8.111  18.480  0.00  0.00    +0.000 A 
ENDBRANCH   9  11
ENDBRANCH   8   9
ENDBRANCH   1   3
BRANCH   1  18
ATOM     18  S   UNL     1       4.940   4.001  16.662  0.00  0.00    +0.000 S 
ATOM     19  O   UNL     1       5.082   3.992  15.223  0.00  0.00    +0.000 OA
ATOM     20  O   UNL     1       5.115   2.795  17.442  0.00  0.00    +0.000 OA
BRANCH  18  24
ATOM     21  C   UNL     1       7.802   7.180  18.334  0.00  0.00    +0.000 A 
ATOM     22  C   UNL     1       7.853   5.853  18.767  0.00  0.00    +0.000 A 
ATOM     23  C   UNL     1       6.990   4.889  18.244  0.00  0.00    +0.000 A 
ATOM     24  C   UNL     1       6.038   5.250  17.295  0.00  0.00    +0.000 A 
ATOM     25  C   UNL     1       5.982   6.569  16.829  0.00  0.00    +0.000 A 
ATOM     26  C   UNL     1       6.847   7.538  17.369  0.00  0.00    +0.000 A 
BRANCH  21  30
ATOM     27  C   UNL     1       9.718  10.334  19.148  0.00  0.00    +0.000 C 
ATOM     28  C   UNL     1       8.636   9.518  18.492  0.00  0.00    +0.000 C 
ATOM     29  O   UNL     1       7.827  10.061  17.747  0.00  0.00    +0.000 OA
ATOM     30  N   UNL     1       8.670   8.176  18.841  0.00  0.00    +0.000 N 
ATOM     31  H   UNL     1       9.295   7.902  19.588  0.00  0.00    +0.000 HD
ENDBRANCH  21  30
ENDBRANCH  18  24
ENDBRANCH   1  18
TORSDOF 6
ENDMDL
MODEL 8
REMARK VINA RESULT:      -8.2      3.891      6.448
REMARK  Name = 
REMARK  7 active torsions:
REMARK  status: ('A' for Active; 'I' for Inactive)
REMARK    1  A    between atoms: C_1  and  C_2
REMARK    2  A    between atoms: N_4  and  C_5
REMARK    3  A    between atoms: C_8  and  S_9
REMARK    4  A    between atoms: S_9  and  N_12
REMARK    5  A    between atoms: N_12  and  C_13
REMARK    6  A    between atoms: C_18  and  C_19
REMARK    7  A    between atoms: C_19  and  C_21
REMARK                            x       y       z     vdW  Elec       q    Type
REMARK                         _______ _______ _______ _____ _____    ______ ____
ROOT
ATOM      1  N   UNL     1       3.038   6.290  19.803  0.00  0.00    +0.000 N 
ATOM      2  H   UNL     1       2.806   6.673  20.720  0.00  0.00    +0.000 HD
ENDROOT
BRANCH   1   3
ATOM      3  C   UNL     1       2.702   4.896  19.673  0.00  0.00    +0.000 A 
ATOM      4  C   UNL     1       1.418   4.508  20.093  0.00  0.00    +0.000 A 
ATOM      5  C   UNL     1       1.039   3.163  20.107  0.00  0.00    +0.000 A 
ATOM      6  C   UNL     1       1.935   2.185  19.701  0.00  0.00    +0.000 A 
ATOM      7  C   UNL     1       3.203   2.558  19.261  0.00  0.00    +0.000 A 
ATOM      8  C   UNL     1       3.590   3.913  19.196  0.00  0.00    +0.000 A 
BRANCH   8   9
ATOM      9  C   UNL     1       4.981   4.216  18.748  0.00  0.00    +0.000 C 
ATOM     10  O   UNL     1       5.921   4.107  19.531  0.00  0.00    +0.000 OA
BRANCH   9  11
ATOM     11  C   UNL     1       5.278   4.541  17.321  0.00  0.00    +0.000 A 
ATOM     12  C   UNL     1       5.739   3.508  16.493  0.00  0.00    +0.000 A 
ATOM     13  C   UNL     1       5.921   3.721  15.121  0.00  0.00    +0.000 A 
ATOM     14  C   UNL     1       5.632   4.967  14.570  0.00  0.00    +0.000 A 
ATOM     15  C   UNL     1       5.211   5.999  15.401  0.00  0.00    +0.000 A 
ATOM     16  F   UNL     1       4.904   7.189  14.867  0.00  0.00    +0.000 F 
ATOM     17  C   UNL     1       5.059   5.809  16.772  0.00  0.00    +0.000 A 
ENDBRANCH   9  11
ENDBRANCH   8   9
ENDBRANCH   1   3
BRANCH   1  18
ATOM     18  S   UNL     1       2.473   7.385  18.644  0.00  0.00    +0.000 S 
ATOM     19  O   UNL     1       1.591   6.623  17.789  0.00  0.00    +0.000 OA
ATOM     20  O   UNL     1       3.578   8.144  18.099  0.00  0.00    +0.000 OA
BRANCH  18  24
ATOM     21  C   UNL     1      -0.131  10.173  21.201  0.00  0.00    +0.000 A 
ATOM     22  C   UNL     1       0.536   9.080  21.761  0.00  0.00    +0.000 A 
ATOM     23  C   UNL     1       1.337   8.245  20.981  0.00  0.00    +0.000 A 
ATOM     24  C   UNL     1       1.458   8.478  19.614  0.00  0.00    +0.000 A 
ATOM     25  C   UNL     1       0.818   9.580  19.033  0.00  0.00    +0.000 A 
ATOM     26  C   UNL     1       0.003  10.410  19.824  0.00  0.00    +0.000 A 
BRANCH  21  30
ATOM     27  C   UNL     1      -1.649  13.007  23.186  0.00  0.00    +0.000 C 
ATOM     28  C   UNL     1      -0.618  12.344  22.311  0.00  0.00    +0.000 C 
ATOM     29  O   UNL     1       0.379  12.966  21.961  0.00  0.00    +0.000 OA
ATOM     30  N   UNL     1      -0.943  11.039  21.970  0.00  0.00    +0.000 N 
ATOM     31  H   UNL     1      -1.872  10.712  22.202  0.00  0.00    +0.000 HD
ENDBRANCH  21  30
ENDBRANCH  18  24
ENDBRANCH   1  18
TORSDOF 6
ENDMDL
MODEL 9
REMARK VINA RESULT:      -8.2      1.193      1.381
REMARK  Name = 
REMARK  7 active torsions:
REMARK  status: ('A' for Active; 'I' for Inactive)
REMARK    1  A    between atoms: C_1  and  C_2
REMARK    2  A    between atoms: N_4  and  C_5
REMARK    3  A    between atoms: C_8  and  S_9
REMARK    4  A    between atoms: S_9  and  N_12
REMARK    5  A    between atoms: N_12  and  C_13
REMARK    6  A    between atoms: C_18  and  C_19
REMARK    7  A    between atoms: C_19  and  C_21
REMARK                            x       y       z     vdW  Elec       q    Type
REMARK                         _______ _______ _______ _____ _____    ______ ____
ROOT
ATOM      1  N   UNL     1       3.507   4.370  17.273  0.00  0.00    +0.000 N 
ATOM      2  H   UNL     1       3.209   4.068  16.345  0.00  0.00    +0.000 HD
ENDROOT
BRANCH   1   3
ATOM      3  C   UNL     1       2.568   4.025  18.307  0.00  0.00    +0.000 A 
ATOM      4  C   UNL     1       1.855   2.824  18.145  0.00  0.00    +0.000 A 
ATOM      5  C   UNL     1       0.845   2.458  19.038  0.00  0.00    +0.000 A 
ATOM      6  C   UNL     1       0.531   3.284  20.108  0.00  0.00    +0.000 A 
ATOM      7  C   UNL     1       1.245   4.466  20.293  0.00  0.00    +0.000 A 
ATOM      8  C   UNL     1       2.299   4.832  19.429  0.00  0.00    +0.000 A 
BRANCH   8   9
ATOM      9  C   UNL     1       2.982   6.134  19.682  0.00  0.00    +0.000 C 
ATOM     10  O   UNL     1       4.173   6.160  19.980  0.00  0.00    +0.000 OA
BRANCH   9  11
ATOM     11  C   UNL     1       2.274   7.431  19.468  0.00  0.00    +0.000 A 
ATOM     12  C   UNL     1       2.288   7.984  18.181  0.00  0.00    +0.000 A 
ATOM     13  C   UNL     1       1.544   9.134  17.890  0.00  0.00    +0.000 A 
ATOM     14  C   UNL     1       0.774   9.731  18.885  0.00  0.00    +0.000 A 
ATOM     15  C   UNL     1       0.793   9.201  20.171  0.00  0.00    +0.000 A 
ATOM     16  F   UNL     1       0.029   9.756  21.122  0.00  0.00    +0.000 F 
ATOM     17  C   UNL     1       1.556   8.078  20.480  0.00  0.00    +0.000 A 
ENDBRANCH   9  11
ENDBRANCH   8   9
ENDBRANCH   1   3
BRANCH   1  18
ATOM     18  S   UNL     1       5.129   3.923  17.451  0.00  0.00    +0.000 S 
ATOM     19  O   UNL     1       5.478   3.237  16.227  0.00  0.00    +0.000 OA
ATOM     20  O   UNL     1       5.335   3.307  18.744  0.00  0.00    +0.000 OA
BRANCH  18  24
ATOM     21  C   UNL     1       7.329   7.955  17.439  0.00  0.00    +0.000 A 
ATOM     22  C   UNL     1       7.873   6.829  18.064  0.00  0.00    +0.000 A 
ATOM     23  C   UNL     1       7.205   5.603  18.051  0.00  0.00    +0.000 A 
ATOM     24  C   UNL     1       5.963   5.496  17.433  0.00  0.00    +0.000 A 
ATOM     25  C   UNL     1       5.408   6.603  16.781  0.00  0.00    +0.000 A 
ATOM     26  C   UNL     1       6.081   7.838  16.808  0.00  0.00    +0.000 A 
BRANCH  21  30
ATOM     27  C   UNL     1       9.277  11.101  18.204  0.00  0.00    +0.000 C 
ATOM     28  C   UNL     1       8.742   9.720  18.475  0.00  0.00    +0.000 C 
ATOM     29  O   UNL     1       9.003   9.159  19.534  0.00  0.00    +0.000 OA
ATOM     30  N   UNL     1       7.988   9.207  17.429  0.00  0.00    +0.000 N 
ATOM     31  H   UNL     1       7.990   9.718  16.557  0.00  0.00    +0.000 HD
ENDBRANCH  21  30
ENDBRANCH  18  24
ENDBRANCH   1  18
TORSDOF 6
ENDMDL
