MODEL 1
REMARK VINA RESULT:      -8.3      0.000      0.000
REMARK  Name = 
REMARK  4 active torsions:
REMARK  status: ('A' for Active; 'I' for Inactive)
REMARK    1  A    between atoms: C_6  and  S_7
REMARK    2  A    between atoms: S_7  and  C_8
REMARK    3  A    between atoms: C_8  and  C_9
REMARK    4  A    between atoms: N_19  and  C_20
REMARK                            x       y       z     vdW  Elec       q    Type
REMARK                         _______ _______ _______ _____ _____    ______ ____
ROOT
ATOM      1  O   UNL     1       2.539   6.121  20.395  0.00  0.00    +0.000 OA
ATOM      2  C   UNL     1       2.289   7.099  19.689  0.00  0.00    +0.000 A 
ATOM      3  C   UNL     1       1.500   8.230  20.153  0.00  0.00    +0.000 A 
ATOM      4  N   UNL     1       0.947   8.406  21.334  0.00  0.00    +0.000 NA
ATOM      5  N   UNL     1       0.324   9.639  21.322  0.00  0.00    +0.000 NA
ATOM      6  C   UNL     1       0.512  10.176  20.137  0.00  0.00    +0.000 A 
ATOM      7  N   UNL     1       1.247   9.317  19.350  0.00  0.00    +0.000 N 
ATOM      8  C   UNL     1       1.724   9.375  18.052  0.00  0.00    +0.000 A 
ATOM      9  C   UNL     1       2.487   8.377  17.582  0.00  0.00    +0.000 A 
ATOM     10  N   UNL     1       2.793   7.248  18.354  0.00  0.00    +0.000 N 
ENDROOT
BRANCH  10  11
ATOM     11  C   UNL     1       3.626   6.218  17.804  0.00  0.00    +0.000 A 
ATOM     12  C   UNL     1       3.130   4.918  17.611  0.00  0.00    +0.000 A 
ATOM     13  C   UNL     1       3.918   3.945  16.983  0.00  0.00    +0.000 A 
ATOM     14  C   UNL     1       5.215   4.255  16.590  0.00  0.00    +0.000 A 
ATOM     15  F   UNL     1       5.964   3.323  15.992  0.00  0.00    +0.000 F 
ATOM     16  C   UNL     1       5.723   5.529  16.810  0.00  0.00    +0.000 A 
ATOM     17  F   UNL     1       6.981   5.822  16.453  0.00  0.00    +0.000 F 
ATOM     18  C   UNL     1       4.935   6.517  17.394  0.00  0.00    +0.000 A 
ENDBRANCH  10  11
BRANCH   6  19
ATOM     19  S   UNL     1      -0.012  11.747  19.615  0.00  0.00    +0.000 S 
BRANCH  19  20
ATOM     20  C   UNL     1      -1.819  11.599  19.805  0.00  0.00    +0.000 C 
BRANCH  20  21
ATOM     21  C   UNL     1      -2.520  11.263  18.503  0.00  0.00    +0.000 A 
ATOM     22  C   UNL     1      -1.806  10.573  17.504  0.00  0.00    +0.000 A 
ATOM     23  C   UNL     1      -2.391  10.278  16.267  0.00  0.00    +0.000 A 
ATOM     24  C   UNL     1      -3.699  10.663  16.004  0.00  0.00    +0.000 A 
ATOM     25  C   UNL     1      -4.429  11.333  16.985  0.00  0.00    +0.000 A 
ATOM     26  C   UNL     1      -3.849  11.627  18.227  0.00  0.00    +0.000 A 
ATOM     27 CL   UNL     1      -4.831  12.452  19.384  0.00  0.00    +0.000 Cl
ENDBRANCH  20  21
ENDBRANCH  19  20
ENDBRANCH   6  19
TORSDOF 4
ENDMDL
MODEL 2
REMARK VINA RESULT:      -8.0      1.054      1.611
REMARK  Name = 
REMARK  4 active torsions:
REMARK  status: ('A' for Active; 'I' for Inactive)
REMARK    1  A    between atoms: C_6  and  S_7
REMARK    2  A    between atoms: S_7  and  C_8
REMARK    3  A    between atoms: C_8  and  C_9
REMARK    4  A    between atoms: N_19  and  C_20
REMARK                            x       y       z     vdW  Elec       q    Type
REMARK                         _______ _______ _______ _____ _____    ______ ____
ROOT
ATOM      1  O   UNL     1       2.111   6.633  20.724  0.00  0.00    +0.000 OA
ATOM      2  C   UNL     1       1.849   7.574  19.974  0.00  0.00    +0.000 A 
ATOM      3  C   UNL     1       1.195   8.792  20.428  0.00  0.00    +0.000 A 
ATOM      4  N   UNL     1       0.792   9.093  21.644  0.00  0.00    +0.000 NA
ATOM      5  N   UNL     1       0.255  10.366  21.601  0.00  0.00    +0.000 NA
ATOM      6  C   UNL     1       0.346  10.801  20.364  0.00  0.00    +0.000 A 
ATOM      7  N   UNL     1       0.928   9.835  19.573  0.00  0.00    +0.000 N 
ATOM      8  C   UNL     1       1.259   9.764  18.231  0.00  0.00    +0.000 A 
ATOM      9  C   UNL     1       1.895   8.680  17.763  0.00  0.00    +0.000 A 
ATOM     10  N   UNL     1       2.209   7.589  18.585  0.00  0.00    +0.000 N 
ENDROOT
BRANCH  10  11
ATOM     11  C   UNL     1       2.903   6.462  18.032  0.00  0.00    +0.000 A 
ATOM     12  C   UNL     1       4.255   6.558  17.664  0.00  0.00    +0.000 A 
ATOM     13  C   UNL     1       4.951   5.428  17.217  0.00  0.00    +0.000 A 
ATOM     14  C   UNL     1       4.286   4.213  17.094  0.00  0.00    +0.000 A 
ATOM     15  F   UNL     1       4.953   3.136  16.667  0.00  0.00    +0.000 F 
ATOM     16  C   UNL     1       2.939   4.119  17.423  0.00  0.00    +0.000 A 
ATOM     17  F   UNL     1       2.292   2.954  17.283  0.00  0.00    +0.000 F 
ATOM     18  C   UNL     1       2.249   5.226  17.909  0.00  0.00    +0.000 A 
ENDBRANCH  10  11
BRANCH   6  19
ATOM     19  S   UNL     1      -0.127  12.366  19.779  0.00  0.00    +0.000 S 
BRANCH  19  20
ATOM     20  C   UNL     1      -1.932  12.306  20.025  0.00  0.00    +0.000 C 
BRANCH  20  21
ATOM     21  C   UNL     1      -2.677  11.836  18.791  0.00  0.00    +0.000 A 
ATOM     22  C   UNL     1      -1.938  11.415  17.668  0.00  0.00    +0.000 A 
ATOM     23  C   UNL     1      -2.575  11.014  16.488  0.00  0.00    +0.000 A 
ATOM     24  C   UNL     1      -3.961  11.023  16.407  0.00  0.00    +0.000 A 
ATOM     25  C   UNL     1      -4.713  11.421  17.511  0.00  0.00    +0.000 A 
ATOM     26  C   UNL     1      -4.079  11.819  18.697  0.00  0.00    +0.000 A 
ATOM     27 CL   UNL     1      -5.091  12.287  20.017  0.00  0.00    +0.000 Cl
ENDBRANCH  20  21
ENDBRANCH  19  20
ENDBRANCH   6  19
TORSDOF 4
ENDMDL
MODEL 3
REMARK VINA RESULT:      -8.0      0.679      1.315
REMARK  Name = 
REMARK  4 active torsions:
REMARK  status: ('A' for Active; 'I' for Inactive)
REMARK    1  A    between atoms: C_6  and  S_7
REMARK    2  A    between atoms: S_7  and  C_8
REMARK    3  A    between atoms: C_8  and  C_9
REMARK    4  A    between atoms: N_19  and  C_20
REMARK                            x       y       z     vdW  Elec       q    Type
REMARK                         _______ _______ _______ _____ _____    ______ ____
ROOT
ATOM      1  O   UNL     1       2.738   5.858  20.127  0.00  0.00    +0.000 OA
ATOM      2  C   UNL     1       2.473   6.889  19.507  0.00  0.00    +0.000 A 
ATOM      3  C   UNL     1       1.735   7.999  20.091  0.00  0.00    +0.000 A 
ATOM      4  N   UNL     1       1.249   8.099  21.310  0.00  0.00    +0.000 NA
ATOM      5  N   UNL     1       0.653   9.341  21.419  0.00  0.00    +0.000 NA
ATOM      6  C   UNL     1       0.792   9.958  20.266  0.00  0.00    +0.000 A 
ATOM      7  N   UNL     1       1.465   9.145  19.382  0.00  0.00    +0.000 N 
ATOM      8  C   UNL     1       1.874   9.287  18.067  0.00  0.00    +0.000 A 
ATOM      9  C   UNL     1       2.589   8.311  17.487  0.00  0.00    +0.000 A 
ATOM     10  N   UNL     1       2.910   7.125  18.160  0.00  0.00    +0.000 N 
ENDROOT
BRANCH  10  11
ATOM     11  C   UNL     1       3.689   6.121  17.494  0.00  0.00    +0.000 A 
ATOM     12  C   UNL     1       4.751   6.478  16.647  0.00  0.00    +0.000 A 
ATOM     13  C   UNL     1       5.567   5.491  16.079  0.00  0.00    +0.000 A 
ATOM     14  C   UNL     1       5.296   4.149  16.319  0.00  0.00    +0.000 A 
ATOM     15  F   UNL     1       6.077   3.210  15.775  0.00  0.00    +0.000 F 
ATOM     16  C   UNL     1       4.225   3.789  17.128  0.00  0.00    +0.000 A 
ATOM     17  F   UNL     1       3.948   2.495  17.340  0.00  0.00    +0.000 F 
ATOM     18  C   UNL     1       3.433   4.762  17.732  0.00  0.00    +0.000 A 
ENDBRANCH  10  11
BRANCH   6  19
ATOM     19  S   UNL     1       0.276  11.573  19.886  0.00  0.00    +0.000 S 
BRANCH  19  20
ATOM     20  C   UNL     1      -1.528  11.428  20.098  0.00  0.00    +0.000 C 
BRANCH  20  21
ATOM     21  C   UNL     1      -2.254  11.181  18.789  0.00  0.00    +0.000 A 
ATOM     22  C   UNL     1      -1.601  10.452  17.775  0.00  0.00    +0.000 A 
ATOM     23  C   UNL     1      -2.208  10.235  16.533  0.00  0.00    +0.000 A 
ATOM     24  C   UNL     1      -3.478  10.737  16.279  0.00  0.00    +0.000 A 
ATOM     25  C   UNL     1      -4.148  11.448  17.273  0.00  0.00    +0.000 A 
ATOM     26  C   UNL     1      -3.546  11.664  18.522  0.00  0.00    +0.000 A 
ATOM     27 CL   UNL     1      -4.454  12.547  19.696  0.00  0.00    +0.000 Cl
ENDBRANCH  20  21
ENDBRANCH  19  20
ENDBRANCH   6  19
TORSDOF 4
ENDMDL
MODEL 4
REMARK VINA RESULT:      -7.9      1.165      1.590
REMARK  Name = 
REMARK  4 active torsions:
REMARK  status: ('A' for Active; 'I' for Inactive)
REMARK    1  A    between atoms: C_6  and  S_7
REMARK    2  A    between atoms: S_7  and  C_8
REMARK    3  A    between atoms: C_8  and  C_9
REMARK    4  A    between atoms: N_19  and  C_20
REMARK                            x       y       z     vdW  Elec       q    Type
REMARK                         _______ _______ _______ _____ _____    ______ ____
ROOT
ATOM      1  O   UNL     1       2.931   5.810  20.190  0.00  0.00    +0.000 OA
ATOM      2  C   UNL     1       2.595   6.802  19.542  0.00  0.00    +0.000 A 
ATOM      3  C   UNL     1       1.692   7.819  20.058  0.00  0.00    +0.000 A 
ATOM      4  N   UNL     1       1.108   7.863  21.237  0.00  0.00    +0.000 NA
ATOM      5  N   UNL     1       0.366   9.028  21.289  0.00  0.00    +0.000 NA
ATOM      6  C   UNL     1       0.517   9.656  20.144  0.00  0.00    +0.000 A 
ATOM      7  N   UNL     1       1.344   8.925  19.320  0.00  0.00    +0.000 N 
ATOM      8  C   UNL     1       1.831   9.112  18.038  0.00  0.00    +0.000 A 
ATOM      9  C   UNL     1       2.695   8.225  17.522  0.00  0.00    +0.000 A 
ATOM     10  N   UNL     1       3.101   7.085  18.228  0.00  0.00    +0.000 N 
ENDROOT
BRANCH  10  11
ATOM     11  C   UNL     1       4.038   6.178  17.632  0.00  0.00    +0.000 A 
ATOM     12  C   UNL     1       3.652   4.877  17.271  0.00  0.00    +0.000 A 
ATOM     13  C   UNL     1       4.547   4.032  16.602  0.00  0.00    +0.000 A 
ATOM     14  C   UNL     1       5.839   4.468  16.332  0.00  0.00    +0.000 A 
ATOM     15  F   UNL     1       6.689   3.659  15.692  0.00  0.00    +0.000 F 
ATOM     16  C   UNL     1       6.238   5.743  16.718  0.00  0.00    +0.000 A 
ATOM     17  F   UNL     1       7.490   6.156  16.480  0.00  0.00    +0.000 F 
ATOM     18  C   UNL     1       5.345   6.606  17.346  0.00  0.00    +0.000 A 
ENDBRANCH  10  11
BRANCH   6  19
ATOM     19  S   UNL     1      -0.153  11.198  19.710  0.00  0.00    +0.000 S 
BRANCH  19  20
ATOM     20  C   UNL     1      -1.048  10.778  18.179  0.00  0.00    +0.000 C 
BRANCH  20  21
ATOM     21  C   UNL     1      -2.490  11.249  18.195  0.00  0.00    +0.000 A 
ATOM     22  C   UNL     1      -2.969  11.937  19.328  0.00  0.00    +0.000 A 
ATOM     23  C   UNL     1      -4.302  12.354  19.413  0.00  0.00    +0.000 A 
ATOM     24  C   UNL     1      -5.182  12.094  18.370  0.00  0.00    +0.000 A 
ATOM     25  C   UNL     1      -4.726  11.428  17.234  0.00  0.00    +0.000 A 
ATOM     26  C   UNL     1      -3.389  11.014  17.142  0.00  0.00    +0.000 A 
ATOM     27 CL   UNL     1      -2.910  10.204  15.693  0.00  0.00    +0.000 Cl
ENDBRANCH  20  21
ENDBRANCH  19  20
ENDBRANCH   6  19
TORSDOF 4
ENDMDL
MODEL 5
REMARK VINA RESULT:      -7.9      2.637      3.840
REMARK  Name = 
REMARK  4 active torsions:
REMARK  status: ('A' for Active; 'I' for Inactive)
REMARK    1  A    between atoms: C_6  and  S_7
REMARK    2  A    between atoms: S_7  and  C_8
REMARK    3  A    between atoms: C_8  and  C_9
REMARK    4  A    between atoms: N_19  and  C_20
REMARK                            x       y       z     vdW  Elec       q    Type
REMARK                         _______ _______ _______ _____ _____    ______ ____
ROOT
ATOM      1  O   UNL     1       2.169   8.912  17.266  0.00  0.00    +0.000 OA
ATOM      2  C   UNL     1       1.866   8.708  18.442  0.00  0.00    +0.000 A 
ATOM      3  C   UNL     1       1.118   9.663  19.247  0.00  0.00    +0.000 A 
ATOM      4  N   UNL     1       0.656  10.841  18.887  0.00  0.00    +0.000 NA
ATOM      5  N   UNL     1      -0.014  11.374  19.972  0.00  0.00    +0.000 NA
ATOM      6  C   UNL     1       0.061  10.507  20.958  0.00  0.00    +0.000 A 
ATOM      7  N   UNL     1       0.779   9.404  20.553  0.00  0.00    +0.000 N 
ATOM      8  C   UNL     1       1.151   8.221  21.169  0.00  0.00    +0.000 A 
ATOM      9  C   UNL     1       1.811   7.289  20.467  0.00  0.00    +0.000 A 
ATOM     10  N   UNL     1       2.174   7.485  19.127  0.00  0.00    +0.000 N 
ENDROOT
BRANCH  10  11
ATOM     11  C   UNL     1       2.868   6.447  18.422  0.00  0.00    +0.000 A 
ATOM     12  C   UNL     1       4.233   6.571  18.117  0.00  0.00    +0.000 A 
ATOM     13  C   UNL     1       4.925   5.513  17.515  0.00  0.00    +0.000 A 
ATOM     14  C   UNL     1       4.245   4.348  17.176  0.00  0.00    +0.000 A 
ATOM     15  F   UNL     1       4.909   3.339  16.602  0.00  0.00    +0.000 F 
ATOM     16  C   UNL     1       2.886   4.232  17.444  0.00  0.00    +0.000 A 
ATOM     17  F   UNL     1       2.226   3.119  17.096  0.00  0.00    +0.000 F 
ATOM     18  C   UNL     1       2.198   5.261  18.080  0.00  0.00    +0.000 A 
ENDBRANCH  10  11
BRANCH   6  19
ATOM     19  S   UNL     1      -0.667  10.658  22.528  0.00  0.00    +0.000 S 
BRANCH  19  20
ATOM     20  C   UNL     1      -1.171  12.409  22.518  0.00  0.00    +0.000 C 
BRANCH  20  21
ATOM     21  C   UNL     1      -2.657  12.593  22.758  0.00  0.00    +0.000 A 
ATOM     22  C   UNL     1      -3.139  12.585  24.082  0.00  0.00    +0.000 A 
ATOM     23  C   UNL     1      -4.507  12.706  24.357  0.00  0.00    +0.000 A 
ATOM     24  C   UNL     1      -5.418  12.839  23.317  0.00  0.00    +0.000 A 
ATOM     25  C   UNL     1      -4.961  12.864  22.000  0.00  0.00    +0.000 A 
ATOM     26  C   UNL     1      -3.592  12.749  21.721  0.00  0.00    +0.000 A 
ATOM     27 CL   UNL     1      -3.116  12.800  20.060  0.00  0.00    +0.000 Cl
ENDBRANCH  20  21
ENDBRANCH  19  20
ENDBRANCH   6  19
TORSDOF 4
ENDMDL
MODEL 6
REMARK VINA RESULT:      -7.9      1.089      1.138
REMARK  Name = 
REMARK  4 active torsions:
REMARK  status: ('A' for Active; 'I' for Inactive)
REMARK    1  A    between atoms: C_6  and  S_7
REMARK    2  A    between atoms: S_7  and  C_8
REMARK    3  A    between atoms: C_8  and  C_9
REMARK    4  A    between atoms: N_19  and  C_20
REMARK                            x       y       z     vdW  Elec       q    Type
REMARK                         _______ _______ _______ _____ _____    ______ ____
ROOT
ATOM      1  O   UNL     1       1.874   6.501  21.002  0.00  0.00    +0.000 OA
ATOM      2  C   UNL     1       1.781   7.378  20.143  0.00  0.00    +0.000 A 
ATOM      3  C   UNL     1       1.272   8.712  20.422  0.00  0.00    +0.000 A 
ATOM      4  N   UNL     1       0.847   9.196  21.570  0.00  0.00    +0.000 NA
ATOM      5  N   UNL     1       0.489  10.513  21.360  0.00  0.00    +0.000 NA
ATOM      6  C   UNL     1       0.702  10.792  20.092  0.00  0.00    +0.000 A 
ATOM      7  N   UNL     1       1.192   9.678  19.448  0.00  0.00    +0.000 N 
ATOM      8  C   UNL     1       1.581   9.416  18.146  0.00  0.00    +0.000 A 
ATOM      9  C   UNL     1       2.092   8.215  17.837  0.00  0.00    +0.000 A 
ATOM     10  N   UNL     1       2.213   7.192  18.787  0.00  0.00    +0.000 N 
ENDROOT
BRANCH  10  11
ATOM     11  C   UNL     1       2.779   5.931  18.403  0.00  0.00    +0.000 A 
ATOM     12  C   UNL     1       1.965   4.893  17.919  0.00  0.00    +0.000 A 
ATOM     13  C   UNL     1       2.536   3.702  17.455  0.00  0.00    +0.000 A 
ATOM     14  C   UNL     1       3.914   3.528  17.515  0.00  0.00    +0.000 A 
ATOM     15  F   UNL     1       4.456   2.389  17.071  0.00  0.00    +0.000 F 
ATOM     16  C   UNL     1       4.722   4.537  18.025  0.00  0.00    +0.000 A 
ATOM     17  F   UNL     1       6.048   4.361  18.105  0.00  0.00    +0.000 F 
ATOM     18  C   UNL     1       4.169   5.742  18.450  0.00  0.00    +0.000 A 
ENDBRANCH  10  11
BRANCH   6  19
ATOM     19  S   UNL     1       0.475  12.329  19.317  0.00  0.00    +0.000 S 
BRANCH  19  20
ATOM     20  C   UNL     1      -1.285  12.648  19.671  0.00  0.00    +0.000 C 
BRANCH  20  21
ATOM     21  C   UNL     1      -2.215  11.923  18.719  0.00  0.00    +0.000 A 
ATOM     22  C   UNL     1      -1.668  11.269  17.598  0.00  0.00    +0.000 A 
ATOM     23  C   UNL     1      -2.485  10.622  16.663  0.00  0.00    +0.000 A 
ATOM     24  C   UNL     1      -3.864  10.613  16.831  0.00  0.00    +0.000 A 
ATOM     25  C   UNL     1      -4.426  11.240  17.942  0.00  0.00    +0.000 A 
ATOM     26  C   UNL     1      -3.610  11.885  18.883  0.00  0.00    +0.000 A 
ATOM     27 CL   UNL     1      -4.393  12.628  20.233  0.00  0.00    +0.000 Cl
ENDBRANCH  20  21
ENDBRANCH  19  20
ENDBRANCH   6  19
TORSDOF 4
ENDMDL
MODEL 7
REMARK VINA RESULT:      -7.8      4.697      8.163
REMARK  Name = 
REMARK  4 active torsions:
REMARK  status: ('A' for Active; 'I' for Inactive)
REMARK    1  A    between atoms: C_6  and  S_7
REMARK    2  A    between atoms: S_7  and  C_8
REMARK    3  A    between atoms: C_8  and  C_9
REMARK    4  A    between atoms: N_19  and  C_20
REMARK                            x       y       z     vdW  Elec       q    Type
REMARK                         _______ _______ _______ _____ _____    ______ ____
ROOT
ATOM      1  O   UNL     1       1.956   9.600  17.394  0.00  0.00    +0.000 OA
ATOM      2  C   UNL     1       2.277   8.639  18.093  0.00  0.00    +0.000 A 
ATOM      3  C   UNL     1       3.241   7.635  17.667  0.00  0.00    +0.000 A 
ATOM      4  N   UNL     1       3.904   7.576  16.532  0.00  0.00    +0.000 NA
ATOM      5  N   UNL     1       4.724   6.465  16.587  0.00  0.00    +0.000 NA
ATOM      6  C   UNL     1       4.535   5.880  17.749  0.00  0.00    +0.000 A 
ATOM      7  N   UNL     1       3.594   6.579  18.473  0.00  0.00    +0.000 N 
ATOM      8  C   UNL     1       3.032   6.416  19.727  0.00  0.00    +0.000 A 
ATOM      9  C   UNL     1       2.164   7.329  20.187  0.00  0.00    +0.000 A 
ATOM     10  N   UNL     1       1.773   8.436  19.422  0.00  0.00    +0.000 N 
ENDROOT
BRANCH  10  11
ATOM     11  C   UNL     1       0.852   9.388  19.970  0.00  0.00    +0.000 A 
ATOM     12  C   UNL     1       0.301  10.402  19.169  0.00  0.00    +0.000 A 
ATOM     13  C   UNL     1      -0.671  11.266  19.689  0.00  0.00    +0.000 A 
ATOM     14  C   UNL     1      -1.061  11.148  21.018  0.00  0.00    +0.000 A 
ATOM     15  F   UNL     1      -1.989  11.975  21.510  0.00  0.00    +0.000 F 
ATOM     16  C   UNL     1      -0.493  10.169  21.826  0.00  0.00    +0.000 A 
ATOM     17  F   UNL     1      -0.851  10.071  23.113  0.00  0.00    +0.000 F 
ATOM     18  C   UNL     1       0.443   9.278  21.309  0.00  0.00    +0.000 A 
ENDBRANCH  10  11
BRANCH   6  19
ATOM     19  S   UNL     1       5.363   4.478  18.351  0.00  0.00    +0.000 S 
BRANCH  19  20
ATOM     20  C   UNL     1       4.114   3.180  18.068  0.00  0.00    +0.000 C 
BRANCH  20  21
ATOM     21  C   UNL     1       3.093   3.096  19.186  0.00  0.00    +0.000 A 
ATOM     22  C   UNL     1       3.498   2.602  20.442  0.00  0.00    +0.000 A 
ATOM     23  C   UNL     1       2.586   2.461  21.495  0.00  0.00    +0.000 A 
ATOM     24  C   UNL     1       1.254   2.812  21.316  0.00  0.00    +0.000 A 
ATOM     25  C   UNL     1       0.835   3.317  20.086  0.00  0.00    +0.000 A 
ATOM     26  C   UNL     1       1.746   3.465  19.030  0.00  0.00    +0.000 A 
ATOM     27 CL   UNL     1       1.140   4.108  17.545  0.00  0.00    +0.000 Cl
ENDBRANCH  20  21
ENDBRANCH  19  20
ENDBRANCH   6  19
TORSDOF 4
ENDMDL
MODEL 8
REMARK VINA RESULT:      -7.8      3.087      4.392
REMARK  Name = 
REMARK  4 active torsions:
REMARK  status: ('A' for Active; 'I' for Inactive)
REMARK    1  A    between atoms: C_6  and  S_7
REMARK    2  A    between atoms: S_7  and  C_8
REMARK    3  A    between atoms: C_8  and  C_9
REMARK    4  A    between atoms: N_19  and  C_20
REMARK                            x       y       z     vdW  Elec       q    Type
REMARK                         _______ _______ _______ _____ _____    ______ ____
ROOT
ATOM      1  O   UNL     1       2.302   8.793  17.051  0.00  0.00    +0.000 OA
ATOM      2  C   UNL     1       2.001   8.624  18.233  0.00  0.00    +0.000 A 
ATOM      3  C   UNL     1       1.271   9.611  19.015  0.00  0.00    +0.000 A 
ATOM      4  N   UNL     1       0.827  10.787  18.627  0.00  0.00    +0.000 NA
ATOM      5  N   UNL     1       0.170  11.358  19.700  0.00  0.00    +0.000 NA
ATOM      6  C   UNL     1       0.235  10.516  20.708  0.00  0.00    +0.000 A 
ATOM      7  N   UNL     1       0.933   9.391  20.329  0.00  0.00    +0.000 N 
ATOM      8  C   UNL     1       1.289   8.219  20.974  0.00  0.00    +0.000 A 
ATOM      9  C   UNL     1       1.932   7.258  20.293  0.00  0.00    +0.000 A 
ATOM     10  N   UNL     1       2.292   7.414  18.948  0.00  0.00    +0.000 N 
ENDROOT
BRANCH  10  11
ATOM     11  C   UNL     1       2.966   6.347  18.267  0.00  0.00    +0.000 A 
ATOM     12  C   UNL     1       4.319   6.464  17.906  0.00  0.00    +0.000 A 
ATOM     13  C   UNL     1       4.995   5.381  17.329  0.00  0.00    +0.000 A 
ATOM     14  C   UNL     1       4.311   4.199  17.071  0.00  0.00    +0.000 A 
ATOM     15  F   UNL     1       4.960   3.167  16.521  0.00  0.00    +0.000 F 
ATOM     16  C   UNL     1       2.964   4.089  17.394  0.00  0.00    +0.000 A 
ATOM     17  F   UNL     1       2.298   2.958  17.124  0.00  0.00    +0.000 F 
ATOM     18  C   UNL     1       2.292   5.144  18.006  0.00  0.00    +0.000 A 
ENDBRANCH  10  11
BRANCH   6  19
ATOM     19  S   UNL     1      -0.484  10.718  22.276  0.00  0.00    +0.000 S 
BRANCH  19  20
ATOM     20  C   UNL     1      -0.647  12.532  22.360  0.00  0.00    +0.000 C 
BRANCH  20  21
ATOM     21  C   UNL     1      -1.810  12.976  23.227  0.00  0.00    +0.000 A 
ATOM     22  C   UNL     1      -2.879  12.085  23.441  0.00  0.00    +0.000 A 
ATOM     23  C   UNL     1      -3.997  12.460  24.196  0.00  0.00    +0.000 A 
ATOM     24  C   UNL     1      -4.067  13.730  24.753  0.00  0.00    +0.000 A 
ATOM     25  C   UNL     1      -3.013  14.623  24.567  0.00  0.00    +0.000 A 
ATOM     26  C   UNL     1      -1.889  14.249  23.816  0.00  0.00    +0.000 A 
ATOM     27 CL   UNL     1      -0.627  15.417  23.646  0.00  0.00    +0.000 Cl
ENDBRANCH  20  21
ENDBRANCH  19  20
ENDBRANCH   6  19
TORSDOF 4
ENDMDL
MODEL 9
REMARK VINA RESULT:      -7.7      5.028      8.337
REMARK  Name = 
REMARK  4 active torsions:
REMARK  status: ('A' for Active; 'I' for Inactive)
REMARK    1  A    between atoms: C_6  and  S_7
REMARK    2  A    between atoms: S_7  and  C_8
REMARK    3  A    between atoms: C_8  and  C_9
REMARK    4  A    between atoms: N_19  and  C_20
REMARK                            x       y       z     vdW  Elec       q    Type
REMARK                         _______ _______ _______ _____ _____    ______ ____
ROOT
ATOM      1  O   UNL     1       2.163   9.564  17.391  0.00  0.00    +0.000 OA
ATOM      2  C   UNL     1       2.415   8.544  18.033  0.00  0.00    +0.000 A 
ATOM      3  C   UNL     1       3.335   7.519  17.563  0.00  0.00    +0.000 A 
ATOM      4  N   UNL     1       4.023   7.497  16.441  0.00  0.00    +0.000 NA
ATOM      5  N   UNL     1       4.782   6.342  16.441  0.00  0.00    +0.000 NA
ATOM      6  C   UNL     1       4.533   5.695  17.558  0.00  0.00    +0.000 A 
ATOM      7  N   UNL     1       3.612   6.396  18.305  0.00  0.00    +0.000 N 
ATOM      8  C   UNL     1       3.011   6.183  19.534  0.00  0.00    +0.000 A 
ATOM      9  C   UNL     1       2.181   7.110  20.034  0.00  0.00    +0.000 A 
ATOM     10  N   UNL     1       1.868   8.283  19.334  0.00  0.00    +0.000 N 
ENDROOT
BRANCH  10  11
ATOM     11  C   UNL     1       0.985   9.246  19.924  0.00  0.00    +0.000 A 
ATOM     12  C   UNL     1       0.169  10.062  19.122  0.00  0.00    +0.000 A 
ATOM     13  C   UNL     1      -0.760  10.930  19.708  0.00  0.00    +0.000 A 
ATOM     14  C   UNL     1      -0.845  11.018  21.093  0.00  0.00    +0.000 A 
ATOM     15  F   UNL     1      -1.734  11.847  21.649  0.00  0.00    +0.000 F 
ATOM     16  C   UNL     1      -0.017  10.239  21.892  0.00  0.00    +0.000 A 
ATOM     17  F   UNL     1      -0.082  10.340  23.227  0.00  0.00    +0.000 F 
ATOM     18  C   UNL     1       0.881   9.342  21.321  0.00  0.00    +0.000 A 
ENDBRANCH  10  11
BRANCH   6  19
ATOM     19  S   UNL     1       5.271   4.214  18.085  0.00  0.00    +0.000 S 
BRANCH  19  20
ATOM     20  C   UNL     1       3.931   3.019  17.770  0.00  0.00    +0.000 C 
BRANCH  20  21
ATOM     21  C   UNL     1       2.946   2.927  18.920  0.00  0.00    +0.000 A 
ATOM     22  C   UNL     1       1.608   3.310  18.702  0.00  0.00    +0.000 A 
ATOM     23  C   UNL     1       0.668   3.287  19.739  0.00  0.00    +0.000 A 
ATOM     24  C   UNL     1       1.045   2.879  21.012  0.00  0.00    +0.000 A 
ATOM     25  C   UNL     1       2.360   2.481  21.246  0.00  0.00    +0.000 A 
ATOM     26  C   UNL     1       3.303   2.498  20.209  0.00  0.00    +0.000 A 
ATOM     27 CL   UNL     1       4.907   1.979  20.588  0.00  0.00    +0.000 Cl
ENDBRANCH  20  21
ENDBRANCH  19  20
ENDBRANCH   6  19
TORSDOF 4
ENDMDL
