MODEL 1
REMARK VINA RESULT:      -7.4      0.000      0.000
REMARK  Name = 
REMARK  6 active torsions:
REMARK  status: ('A' for Active; 'I' for Inactive)
REMARK    1  A    between atoms: C_1  and  N_2
REMARK    2  A    between atoms: C_3  and  C_5
REMARK    3  A    between atoms: C_10  and  C_12
REMARK    4  A    between atoms: N_19  and  C_20
REMARK    5  A    between atoms: C_20  and  C_21
REMARK    6  A    between atoms: C_20  and  C_22
REMARK                            x       y       z     vdW  Elec       q    Type
REMARK                         _______ _______ _______ _____ _____    ______ ____
ROOT
ATOM      1  C   UNL     1       2.331   3.706  18.468  0.00  0.00    +0.000 C 
ATOM      2  C   UNL     1       2.950   2.605  17.612  0.00  0.00    +0.000 C 
ATOM      3  C   UNL     1       4.405   2.981  17.507  0.00  0.00    +0.000 C 
ATOM      4  C   UNL     1       4.734   4.015  16.419  0.00  0.00    +0.000 C 
ATOM      5  N   UNL     1       5.702   4.908  17.036  0.00  0.00    +0.000 N 
ATOM      6  C   UNL     1       5.984   6.157  16.495  0.00  0.00    +0.000 C 
ATOM      7  O   UNL     1       5.429   6.528  15.460  0.00  0.00    +0.000 OA
ATOM      8  C   UNL     1       5.972   4.487  18.396  0.00  0.00    +0.000 C 
ATOM      9  C   UNL     1       4.713   3.715  18.815  0.00  0.00    +0.000 C 
ATOM     10  N   UNL     1       3.441   4.373  19.227  0.00  0.00    +0.000 NA
ENDROOT
BRANCH   1  13
ATOM     11  C   UNL     1       1.065   2.480  21.845  0.00  0.00    +0.000 C 
ATOM     12  N   UNL     1       1.837   2.980  20.744  0.00  0.00    +0.000 N 
ATOM     13  C   UNL     1       1.326   3.091  19.466  0.00  0.00    +0.000 C 
ATOM     14  O   UNL     1       0.219   2.679  19.129  0.00  0.00    +0.000 OA
ATOM     15  H   UNL     1       2.617   3.610  20.921  0.00  0.00    +0.000 HD
ENDBRANCH   1  13
BRANCH   6  16
ATOM     16  C   UNL     1       6.899   7.024  17.221  0.00  0.00    +0.000 A 
ATOM     17  C   UNL     1       7.790   6.734  18.241  0.00  0.00    +0.000 A 
ATOM     18  C   UNL     1       8.429   7.949  18.587  0.00  0.00    +0.000 A 
ATOM     19  C   UNL     1       7.874   8.914  17.781  0.00  0.00    +0.000 A 
ATOM     20  O   UNL     1       6.945   8.368  16.956  0.00  0.00    +0.000 OA
ENDBRANCH   6  16
BRANCH  10  21
ATOM     21  C   UNL     1       3.355   5.852  19.229  0.00  0.00    +0.000 C 
ATOM     22  C   UNL     1       2.672   6.446  17.974  0.00  0.00    +0.000 C 
ATOM     23  C   UNL     1       2.524   6.390  20.405  0.00  0.00    +0.000 C 
ENDBRANCH  10  21
TORSDOF 3
ENDMDL
MODEL 2
REMARK VINA RESULT:      -6.6      2.207      3.840
REMARK  Name = 
REMARK  6 active torsions:
REMARK  status: ('A' for Active; 'I' for Inactive)
REMARK    1  A    between atoms: C_1  and  N_2
REMARK    2  A    between atoms: C_3  and  C_5
REMARK    3  A    between atoms: C_10  and  C_12
REMARK    4  A    between atoms: N_19  and  C_20
REMARK    5  A    between atoms: C_20  and  C_21
REMARK    6  A    between atoms: C_20  and  C_22
REMARK                            x       y       z     vdW  Elec       q    Type
REMARK                         _______ _______ _______ _____ _____    ______ ____
ROOT
ATOM      1  C   UNL     1       3.720   4.659  19.449  0.00  0.00    +0.000 C 
ATOM      2  C   UNL     1       4.291   6.047  19.724  0.00  0.00    +0.000 C 
ATOM      3  C   UNL     1       4.793   6.521  18.385  0.00  0.00    +0.000 C 
ATOM      4  C   UNL     1       6.193   6.020  17.999  0.00  0.00    +0.000 C 
ATOM      5  N   UNL     1       6.091   5.684  16.588  0.00  0.00    +0.000 N 
ATOM      6  C   UNL     1       7.041   4.885  15.962  0.00  0.00    +0.000 C 
ATOM      7  O   UNL     1       8.010   4.459  16.593  0.00  0.00    +0.000 OA
ATOM      8  C   UNL     1       4.748   5.945  16.109  0.00  0.00    +0.000 C 
ATOM      9  C   UNL     1       3.869   5.851  17.364  0.00  0.00    +0.000 C 
ATOM     10  N   UNL     1       3.443   4.561  17.977  0.00  0.00    +0.000 NA
ENDROOT
BRANCH   1  13
ATOM     11  C   UNL     1       1.165   2.828  21.602  0.00  0.00    +0.000 C 
ATOM     12  N   UNL     1       2.285   3.213  20.791  0.00  0.00    +0.000 N 
ATOM     13  C   UNL     1       2.402   4.471  20.232  0.00  0.00    +0.000 C 
ATOM     14  O   UNL     1       1.526   5.331  20.282  0.00  0.00    +0.000 OA
ATOM     15  H   UNL     1       3.179   2.742  20.912  0.00  0.00    +0.000 HD
ENDBRANCH   1  13
BRANCH   6  16
ATOM     16  C   UNL     1       6.820   4.525  14.570  0.00  0.00    +0.000 A 
ATOM     17  C   UNL     1       6.019   3.542  14.016  0.00  0.00    +0.000 A 
ATOM     18  C   UNL     1       6.180   3.624  12.611  0.00  0.00    +0.000 A 
ATOM     19  C   UNL     1       7.089   4.630  12.391  0.00  0.00    +0.000 A 
ATOM     20  O   UNL     1       7.487   5.178  13.566  0.00  0.00    +0.000 OA
ENDBRANCH   6  16
BRANCH  10  21
ATOM     21  C   UNL     1       3.889   3.286  17.372  0.00  0.00    +0.000 C 
ATOM     22  C   UNL     1       4.916   2.505  18.227  0.00  0.00    +0.000 C 
ATOM     23  C   UNL     1       2.732   2.295  17.170  0.00  0.00    +0.000 C 
ENDBRANCH  10  21
TORSDOF 3
ENDMDL
MODEL 3
REMARK VINA RESULT:      -6.6      1.565      1.954
REMARK  Name = 
REMARK  6 active torsions:
REMARK  status: ('A' for Active; 'I' for Inactive)
REMARK    1  A    between atoms: C_1  and  N_2
REMARK    2  A    between atoms: C_3  and  C_5
REMARK    3  A    between atoms: C_10  and  C_12
REMARK    4  A    between atoms: N_19  and  C_20
REMARK    5  A    between atoms: C_20  and  C_21
REMARK    6  A    between atoms: C_20  and  C_22
REMARK                            x       y       z     vdW  Elec       q    Type
REMARK                         _______ _______ _______ _____ _____    ______ ____
ROOT
ATOM      1  C   UNL     1       3.329   4.461  17.797  0.00  0.00    +0.000 C 
ATOM      2  C   UNL     1       4.254   3.265  18.001  0.00  0.00    +0.000 C 
ATOM      3  C   UNL     1       5.535   3.862  18.521  0.00  0.00    +0.000 C 
ATOM      4  C   UNL     1       6.482   4.412  17.443  0.00  0.00    +0.000 C 
ATOM      5  N   UNL     1       6.987   5.659  17.993  0.00  0.00    +0.000 N 
ATOM      6  C   UNL     1       7.600   6.613  17.188  0.00  0.00    +0.000 C 
ATOM      7  O   UNL     1       7.747   6.408  15.982  0.00  0.00    +0.000 OA
ATOM      8  C   UNL     1       6.418   5.892  19.306  0.00  0.00    +0.000 C 
ATOM      9  C   UNL     1       5.097   5.109  19.295  0.00  0.00    +0.000 C 
ATOM     10  N   UNL     1       3.857   5.595  18.627  0.00  0.00    +0.000 NA
ENDROOT
BRANCH   1  13
ATOM     11  C   UNL     1       0.610   3.464  20.272  0.00  0.00    +0.000 C 
ATOM     12  N   UNL     1       1.841   3.783  19.607  0.00  0.00    +0.000 N 
ATOM     13  C   UNL     1       1.901   4.105  18.266  0.00  0.00    +0.000 C 
ATOM     14  O   UNL     1       0.942   4.047  17.500  0.00  0.00    +0.000 OA
ATOM     15  H   UNL     1       2.622   4.152  20.145  0.00  0.00    +0.000 HD
ENDBRANCH   1  13
BRANCH   6  16
ATOM     16  C   UNL     1       7.999   7.870  17.801  0.00  0.00    +0.000 A 
ATOM     17  C   UNL     1       7.731   9.175  17.427  0.00  0.00    +0.000 A 
ATOM     18  C   UNL     1       8.366  10.014  18.374  0.00  0.00    +0.000 A 
ATOM     19  C   UNL     1       9.006   9.176  19.255  0.00  0.00    +0.000 A 
ATOM     20  O   UNL     1       8.797   7.879  18.916  0.00  0.00    +0.000 OA
ENDBRANCH   6  16
BRANCH  10  21
ATOM     21  C   UNL     1       3.875   6.893  17.915  0.00  0.00    +0.000 C 
ATOM     22  C   UNL     1       4.161   6.779  16.399  0.00  0.00    +0.000 C 
ATOM     23  C   UNL     1       2.525   7.625  17.993  0.00  0.00    +0.000 C 
ENDBRANCH  10  21
TORSDOF 3
ENDMDL
MODEL 4
REMARK VINA RESULT:      -6.5      2.421      4.231
REMARK  Name = 
REMARK  6 active torsions:
REMARK  status: ('A' for Active; 'I' for Inactive)
REMARK    1  A    between atoms: C_1  and  N_2
REMARK    2  A    between atoms: C_3  and  C_5
REMARK    3  A    between atoms: C_10  and  C_12
REMARK    4  A    between atoms: N_19  and  C_20
REMARK    5  A    between atoms: C_20  and  C_21
REMARK    6  A    between atoms: C_20  and  C_22
REMARK                            x       y       z     vdW  Elec       q    Type
REMARK                         _______ _______ _______ _____ _____    ______ ____
ROOT
ATOM      1  C   UNL     1       3.777   5.466  19.091  0.00  0.00    +0.000 C 
ATOM      2  C   UNL     1       4.647   6.703  19.292  0.00  0.00    +0.000 C 
ATOM      3  C   UNL     1       5.246   6.969  17.936  0.00  0.00    +0.000 C 
ATOM      4  C   UNL     1       6.496   6.142  17.602  0.00  0.00    +0.000 C 
ATOM      5  N   UNL     1       6.324   5.753  16.212  0.00  0.00    +0.000 N 
ATOM      6  C   UNL     1       7.070   4.723  15.648  0.00  0.00    +0.000 C 
ATOM      7  O   UNL     1       7.916   4.129  16.318  0.00  0.00    +0.000 OA
ATOM      8  C   UNL     1       5.076   6.281  15.697  0.00  0.00    +0.000 C 
ATOM      9  C   UNL     1       4.196   6.464  16.941  0.00  0.00    +0.000 C 
ATOM     10  N   UNL     1       3.488   5.344  17.623  0.00  0.00    +0.000 NA
ENDROOT
BRANCH   1  13
ATOM     11  C   UNL     1       1.074   7.303  21.047  0.00  0.00    +0.000 C 
ATOM     12  N   UNL     1       2.259   6.909  20.341  0.00  0.00    +0.000 N 
ATOM     13  C   UNL     1       2.450   5.628  19.862  0.00  0.00    +0.000 C 
ATOM     14  O   UNL     1       1.687   4.689  20.084  0.00  0.00    +0.000 OA
ATOM     15  H   UNL     1       2.804   7.610  19.842  0.00  0.00    +0.000 HD
ENDBRANCH   1  13
BRANCH   6  16
ATOM     16  C   UNL     1       6.775   4.338  14.277  0.00  0.00    +0.000 A 
ATOM     17  C   UNL     1       5.826   3.465  13.775  0.00  0.00    +0.000 A 
ATOM     18  C   UNL     1       5.976   3.458  12.368  0.00  0.00    +0.000 A 
ATOM     19  C   UNL     1       7.023   4.303  12.093  0.00  0.00    +0.000 A 
ATOM     20  O   UNL     1       7.519   4.836  13.238  0.00  0.00    +0.000 OA
ENDBRANCH   6  16
BRANCH  10  21
ATOM     21  C   UNL     1       3.635   3.966  17.100  0.00  0.00    +0.000 C 
ATOM     22  C   UNL     1       4.554   3.061  17.955  0.00  0.00    +0.000 C 
ATOM     23  C   UNL     1       2.297   3.210  17.052  0.00  0.00    +0.000 C 
ENDBRANCH  10  21
TORSDOF 3
ENDMDL
MODEL 5
REMARK VINA RESULT:      -6.2      1.820      3.456
REMARK  Name = 
REMARK  6 active torsions:
REMARK  status: ('A' for Active; 'I' for Inactive)
REMARK    1  A    between atoms: C_1  and  N_2
REMARK    2  A    between atoms: C_3  and  C_5
REMARK    3  A    between atoms: C_10  and  C_12
REMARK    4  A    between atoms: N_19  and  C_20
REMARK    5  A    between atoms: C_20  and  C_21
REMARK    6  A    between atoms: C_20  and  C_22
REMARK                            x       y       z     vdW  Elec       q    Type
REMARK                         _______ _______ _______ _____ _____    ______ ____
ROOT
ATOM      1  C   UNL     1       2.985   4.504  20.033  0.00  0.00    +0.000 C 
ATOM      2  C   UNL     1       2.941   6.027  20.126  0.00  0.00    +0.000 C 
ATOM      3  C   UNL     1       3.422   6.501  18.780  0.00  0.00    +0.000 C 
ATOM      4  C   UNL     1       4.949   6.554  18.615  0.00  0.00    +0.000 C 
ATOM      5  N   UNL     1       5.196   6.044  17.277  0.00  0.00    +0.000 N 
ATOM      6  C   UNL     1       6.461   5.619  16.884  0.00  0.00    +0.000 C 
ATOM      7  O   UNL     1       7.411   5.689  17.664  0.00  0.00    +0.000 OA
ATOM      8  C   UNL     1       3.944   5.694  16.637  0.00  0.00    +0.000 C 
ATOM      9  C   UNL     1       2.986   5.406  17.802  0.00  0.00    +0.000 C 
ATOM     10  N   UNL     1       2.991   4.134  18.579  0.00  0.00    +0.000 NA
ENDROOT
BRANCH   1  13
ATOM     11  C   UNL     1       1.043   2.299  22.459  0.00  0.00    +0.000 C 
ATOM     12  N   UNL     1       2.045   2.958  21.669  0.00  0.00    +0.000 N 
ATOM     13  C   UNL     1       1.735   3.902  20.710  0.00  0.00    +0.000 C 
ATOM     14  O   UNL     1       0.589   4.187  20.369  0.00  0.00    +0.000 OA
ATOM     15  H   UNL     1       2.992   3.047  22.030  0.00  0.00    +0.000 HD
ENDBRANCH   1  13
BRANCH   6  16
ATOM     16  C   UNL     1       6.605   5.041  15.557  0.00  0.00    +0.000 A 
ATOM     17  C   UNL     1       6.005   3.928  14.994  0.00  0.00    +0.000 A 
ATOM     18  C   UNL     1       6.506   3.814  13.675  0.00  0.00    +0.000 A 
ATOM     19  C   UNL     1       7.401   4.844  13.517  0.00  0.00    +0.000 A 
ATOM     20  O   UNL     1       7.474   5.588  14.649  0.00  0.00    +0.000 OA
ENDBRANCH   6  16
BRANCH  10  21
ATOM     21  C   UNL     1       3.973   3.079  18.238  0.00  0.00    +0.000 C 
ATOM     22  C   UNL     1       5.043   2.835  19.329  0.00  0.00    +0.000 C 
ATOM     23  C   UNL     1       3.312   1.705  18.041  0.00  0.00    +0.000 C 
ENDBRANCH  10  21
TORSDOF 3
ENDMDL
MODEL 6
REMARK VINA RESULT:      -5.6     11.948     14.582
REMARK  Name = 
REMARK  6 active torsions:
REMARK  status: ('A' for Active; 'I' for Inactive)
REMARK    1  A    between atoms: C_1  and  N_2
REMARK    2  A    between atoms: C_3  and  C_5
REMARK    3  A    between atoms: C_10  and  C_12
REMARK    4  A    between atoms: N_19  and  C_20
REMARK    5  A    between atoms: C_20  and  C_21
REMARK    6  A    between atoms: C_20  and  C_22
REMARK                            x       y       z     vdW  Elec       q    Type
REMARK                         _______ _______ _______ _____ _____    ______ ____
ROOT
ATOM      1  C   UNL     1      -4.108  14.907  23.565  0.00  0.00    +0.000 C 
ATOM      2  C   UNL     1      -5.395  15.646  23.919  0.00  0.00    +0.000 C 
ATOM      3  C   UNL     1      -6.491  14.649  23.647  0.00  0.00    +0.000 C 
ATOM      4  C   UNL     1      -6.943  14.560  22.182  0.00  0.00    +0.000 C 
ATOM      5  N   UNL     1      -7.119  13.139  21.932  0.00  0.00    +0.000 N 
ATOM      6  C   UNL     1      -7.192  12.632  20.639  0.00  0.00    +0.000 C 
ATOM      7  O   UNL     1      -7.129  13.389  19.670  0.00  0.00    +0.000 OA
ATOM      8  C   UNL     1      -6.809  12.380  23.128  0.00  0.00    +0.000 C 
ATOM      9  C   UNL     1      -5.850  13.284  23.916  0.00  0.00    +0.000 C 
ATOM     10  N   UNL     1      -4.404  13.436  23.589  0.00  0.00    +0.000 NA
ENDROOT
BRANCH   1  13
ATOM     11  C   UNL     1      -0.981  16.585  24.950  0.00  0.00    +0.000 C 
ATOM     12  N   UNL     1      -2.064  16.109  24.138  0.00  0.00    +0.000 N 
ATOM     13  C   UNL     1      -3.016  15.226  24.609  0.00  0.00    +0.000 C 
ATOM     14  O   UNL     1      -2.970  14.688  25.713  0.00  0.00    +0.000 OA
ATOM     15  H   UNL     1      -2.389  16.670  23.354  0.00  0.00    +0.000 HD
ENDBRANCH   1  13
BRANCH   6  16
ATOM     16  C   UNL     1      -7.281  11.189  20.476  0.00  0.00    +0.000 A 
ATOM     17  C   UNL     1      -6.839  10.374  19.449  0.00  0.00    +0.000 A 
ATOM     18  C   UNL     1      -7.189   9.047  19.796  0.00  0.00    +0.000 A 
ATOM     19  C   UNL     1      -7.848   9.130  20.999  0.00  0.00    +0.000 A 
ATOM     20  O   UNL     1      -7.916  10.420  21.417  0.00  0.00    +0.000 OA
ENDBRANCH   6  16
BRANCH  10  21
ATOM     21  C   UNL     1      -3.838  12.697  22.436  0.00  0.00    +0.000 C 
ATOM     22  C   UNL     1      -3.594  13.571  21.183  0.00  0.00    +0.000 C 
ATOM     23  C   UNL     1      -2.462  12.088  22.748  0.00  0.00    +0.000 C 
ENDBRANCH  10  21
TORSDOF 3
ENDMDL
MODEL 7
REMARK VINA RESULT:      -5.6      2.304      5.627
REMARK  Name = 
REMARK  6 active torsions:
REMARK  status: ('A' for Active; 'I' for Inactive)
REMARK    1  A    between atoms: C_1  and  N_2
REMARK    2  A    between atoms: C_3  and  C_5
REMARK    3  A    between atoms: C_10  and  C_12
REMARK    4  A    between atoms: N_19  and  C_20
REMARK    5  A    between atoms: C_20  and  C_21
REMARK    6  A    between atoms: C_20  and  C_22
REMARK                            x       y       z     vdW  Elec       q    Type
REMARK                         _______ _______ _______ _____ _____    ______ ____
ROOT
ATOM      1  C   UNL     1       5.477   4.085  16.983  0.00  0.00    +0.000 C 
ATOM      2  C   UNL     1       4.461   2.959  16.812  0.00  0.00    +0.000 C 
ATOM      3  C   UNL     1       3.153   3.560  17.254  0.00  0.00    +0.000 C 
ATOM      4  C   UNL     1       2.910   3.551  18.771  0.00  0.00    +0.000 C 
ATOM      5  N   UNL     1       2.321   4.848  19.061  0.00  0.00    +0.000 N 
ATOM      6  C   UNL     1       2.273   5.351  20.357  0.00  0.00    +0.000 C 
ATOM      7  O   UNL     1       2.715   4.690  21.298  0.00  0.00    +0.000 OA
ATOM      8  C   UNL     1       2.195   5.622  17.842  0.00  0.00    +0.000 C 
ATOM      9  C   UNL     1       3.272   5.048  16.911  0.00  0.00    +0.000 C 
ATOM     10  N   UNL     1       4.720   5.382  17.021  0.00  0.00    +0.000 NA
ENDROOT
BRANCH   1  13
ATOM     11  C   UNL     1       6.533   3.817  13.333  0.00  0.00    +0.000 C 
ATOM     12  N   UNL     1       5.831   3.815  14.585  0.00  0.00    +0.000 N 
ATOM     13  C   UNL     1       6.452   4.097  15.786  0.00  0.00    +0.000 C 
ATOM     14  O   UNL     1       7.662   4.267  15.913  0.00  0.00    +0.000 OA
ATOM     15  H   UNL     1       4.829   3.988  14.600  0.00  0.00    +0.000 HD
ENDBRANCH   1  13
BRANCH   6  16
ATOM     16  C   UNL     1       1.746   6.693  20.549  0.00  0.00    +0.000 A 
ATOM     17  C   UNL     1       0.774   7.158  21.417  0.00  0.00    +0.000 A 
ATOM     18  C   UNL     1       0.646   8.549  21.185  0.00  0.00    +0.000 A 
ATOM     19  C   UNL     1       1.524   8.847  20.171  0.00  0.00    +0.000 A 
ATOM     20  O   UNL     1       2.190   7.734  19.775  0.00  0.00    +0.000 OA
ENDBRANCH   6  16
BRANCH  10  21
ATOM     21  C   UNL     1       5.175   6.304  18.087  0.00  0.00    +0.000 C 
ATOM     22  C   UNL     1       5.876   5.601  19.274  0.00  0.00    +0.000 C 
ATOM     23  C   UNL     1       6.212   7.320  17.581  0.00  0.00    +0.000 C 
ENDBRANCH  10  21
TORSDOF 3
ENDMDL
MODEL 8
REMARK VINA RESULT:      -5.6      7.634      9.559
REMARK  Name = 
REMARK  6 active torsions:
REMARK  status: ('A' for Active; 'I' for Inactive)
REMARK    1  A    between atoms: C_1  and  N_2
REMARK    2  A    between atoms: C_3  and  C_5
REMARK    3  A    between atoms: C_10  and  C_12
REMARK    4  A    between atoms: N_19  and  C_20
REMARK    5  A    between atoms: C_20  and  C_21
REMARK    6  A    between atoms: C_20  and  C_22
REMARK                            x       y       z     vdW  Elec       q    Type
REMARK                         _______ _______ _______ _____ _____    ______ ____
ROOT
ATOM      1  C   UNL     1      -3.934  11.848  18.927  0.00  0.00    +0.000 C 
ATOM      2  C   UNL     1      -3.440  12.814  20.000  0.00  0.00    +0.000 C 
ATOM      3  C   UNL     1      -1.943  12.649  19.997  0.00  0.00    +0.000 C 
ATOM      4  C   UNL     1      -1.417  11.463  20.820  0.00  0.00    +0.000 C 
ATOM      5  N   UNL     1      -0.361  10.885  20.004  0.00  0.00    +0.000 N 
ATOM      6  C   UNL     1       0.124   9.604  20.245  0.00  0.00    +0.000 C 
ATOM      7  O   UNL     1      -0.322   8.935  21.178  0.00  0.00    +0.000 OA
ATOM      8  C   UNL     1      -0.220  11.630  18.769  0.00  0.00    +0.000 C 
ATOM      9  C   UNL     1      -1.595  12.276  18.553  0.00  0.00    +0.000 C 
ATOM     10  N   UNL     1      -2.777  11.541  18.021  0.00  0.00    +0.000 NA
ENDROOT
BRANCH   1  13
ATOM     11  C   UNL     1      -6.768  14.295  18.222  0.00  0.00    +0.000 C 
ATOM     12  N   UNL     1      -5.715  13.511  18.801  0.00  0.00    +0.000 N 
ATOM     13  C   UNL     1      -5.064  12.509  18.108  0.00  0.00    +0.000 C 
ATOM     14  O   UNL     1      -5.388  12.126  16.986  0.00  0.00    +0.000 OA
ATOM     15  H   UNL     1      -5.163  13.896  19.565  0.00  0.00    +0.000 HD
ENDBRANCH   1  13
BRANCH   6  16
ATOM     16  C   UNL     1       1.119   9.067  19.330  0.00  0.00    +0.000 A 
ATOM     17  C   UNL     1       1.451   9.450  18.042  0.00  0.00    +0.000 A 
ATOM     18  C   UNL     1       2.486   8.587  17.610  0.00  0.00    +0.000 A 
ATOM     19  C   UNL     1       2.707   7.710  18.645  0.00  0.00    +0.000 A 
ATOM     20  O   UNL     1       1.883   7.986  19.687  0.00  0.00    +0.000 OA
ENDBRANCH   6  16
BRANCH  10  21
ATOM     21  C   UNL     1      -2.649  10.103  17.688  0.00  0.00    +0.000 C 
ATOM     22  C   UNL     1      -3.834   9.234  18.174  0.00  0.00    +0.000 C 
ATOM     23  C   UNL     1      -2.593   9.855  16.172  0.00  0.00    +0.000 C 
ENDBRANCH  10  21
TORSDOF 3
ENDMDL
MODEL 9
REMARK VINA RESULT:      -5.5      9.720     11.304
REMARK  Name = 
REMARK  6 active torsions:
REMARK  status: ('A' for Active; 'I' for Inactive)
REMARK    1  A    between atoms: C_1  and  N_2
REMARK    2  A    between atoms: C_3  and  C_5
REMARK    3  A    between atoms: C_10  and  C_12
REMARK    4  A    between atoms: N_19  and  C_20
REMARK    5  A    between atoms: C_20  and  C_21
REMARK    6  A    between atoms: C_20  and  C_22
REMARK                            x       y       z     vdW  Elec       q    Type
REMARK                         _______ _______ _______ _____ _____    ______ ____
ROOT
ATOM      1  C   UNL     1      -3.263  12.477  22.735  0.00  0.00    +0.000 C 
ATOM      2  C   UNL     1      -2.118  11.595  23.223  0.00  0.00    +0.000 C 
ATOM      3  C   UNL     1      -0.871  12.317  22.783  0.00  0.00    +0.000 C 
ATOM      4  C   UNL     1      -0.450  12.063  21.328  0.00  0.00    +0.000 C 
ATOM      5  N   UNL     1      -0.032  13.363  20.829  0.00  0.00    +0.000 N 
ATOM      6  C   UNL     1       0.095  13.612  19.467  0.00  0.00    +0.000 C 
ATOM      7  O   UNL     1      -0.126  12.719  18.648  0.00  0.00    +0.000 OA
ATOM      8  C   UNL     1      -0.171  14.364  21.869  0.00  0.00    +0.000 C 
ATOM      9  C   UNL     1      -1.254  13.800  22.800  0.00  0.00    +0.000 C 
ATOM     10  N   UNL     1      -2.712  13.853  22.497  0.00  0.00    +0.000 NA
ENDROOT
BRANCH   1  13
ATOM     11  C   UNL     1      -6.820  12.632  24.093  0.00  0.00    +0.000 C 
ATOM     12  N   UNL     1      -5.638  12.608  23.279  0.00  0.00    +0.000 N 
ATOM     13  C   UNL     1      -4.366  12.548  23.814  0.00  0.00    +0.000 C 
ATOM     14  O   UNL     1      -4.121  12.617  25.016  0.00  0.00    +0.000 OA
ATOM     15  H   UNL     1      -5.691  12.254  22.326  0.00  0.00    +0.000 HD
ENDBRANCH   1  13
BRANCH   6  16
ATOM     16  C   UNL     1       0.433  14.964  19.049  0.00  0.00    +0.000 A 
ATOM     17  C   UNL     1      -0.380  16.003  18.632  0.00  0.00    +0.000 A 
ATOM     18  C   UNL     1       0.468  17.097  18.339  0.00  0.00    +0.000 A 
ATOM     19  C   UNL     1       1.750  16.657  18.567  0.00  0.00    +0.000 A 
ATOM     20  O   UNL     1       1.742  15.368  18.990  0.00  0.00    +0.000 OA
ENDBRANCH   6  16
BRANCH  10  21
ATOM     21  C   UNL     1      -3.169  14.465  21.228  0.00  0.00    +0.000 C 
ATOM     22  C   UNL     1      -3.798  13.461  20.233  0.00  0.00    +0.000 C 
ATOM     23  C   UNL     1      -4.265  15.520  21.447  0.00  0.00    +0.000 C 
ENDBRANCH  10  21
TORSDOF 3
ENDMDL
