MODEL 1
REMARK VINA RESULT:      -8.3      0.000      0.000
REMARK  Name = 
REMARK  4 active torsions:
REMARK  status: ('A' for Active; 'I' for Inactive)
REMARK    1  A    between atoms: C_1  and  C_2
REMARK    2  A    between atoms: C_2  and  C_3
REMARK    3  A    between atoms: C_14  and  C_15
REMARK    4  A    between atoms: C_14  and  O_16
REMARK                            x       y       z     vdW  Elec       q    Type
REMARK                         _______ _______ _______ _____ _____    ______ ____
ROOT
ATOM      1  C   UNL     1       5.338   2.767  12.097  0.00  0.00    +0.000 C 
ATOM      2  C   UNL     1       6.349   3.758  12.606  0.00  0.00    +0.000 C 
ATOM      3  C   UNL     1       7.225   4.425  11.581  0.00  0.00    +0.000 C 
ATOM      4  C   UNL     1       6.410   4.075  13.913  0.00  0.00    +0.000 C 
ATOM      5  O   UNL     1       5.541   3.562  14.879  0.00  0.00    +0.000 OA
ATOM      6  C   UNL     1       5.766   4.296  16.022  0.00  0.00    +0.000 A 
ATOM      7  C   UNL     1       6.805   5.212  15.880  0.00  0.00    +0.000 A 
ATOM      8  C   UNL     1       7.155   6.107  16.868  0.00  0.00    +0.000 A 
ATOM      9  C   UNL     1       6.386   6.097  18.030  0.00  0.00    +0.000 A 
ATOM     10  C   UNL     1       5.308   5.195  18.177  0.00  0.00    +0.000 A 
ATOM     11  C   UNL     1       5.019   4.236  17.184  0.00  0.00    +0.000 A 
ATOM     12  C   UNL     1       3.897   3.250  17.348  0.00  0.00    +0.000 C 
ATOM     13  O   UNL     1       3.319   3.231  18.658  0.00  0.00    +0.000 OA
ATOM     14  C   UNL     1       3.105   4.521  19.219  0.00  0.00    +0.000 C 
ATOM     15  C   UNL     1       2.093   5.343  18.414  0.00  0.00    +0.000 C 
ATOM     16  C   UNL     1       4.453   5.236  19.419  0.00  0.00    +0.000 C 
ATOM     17  C   UNL     1       7.325   5.082  14.528  0.00  0.00    +0.000 C 
ATOM     18  O   UNL     1       8.261   5.683  14.049  0.00  0.00    +0.000 OA
ENDROOT
BRANCH  14  19
ATOM     19  O   UNL     1       2.549   4.314  20.516  0.00  0.00    +0.000 OA
ATOM     20  H   UNL     1       1.657   4.695  20.470  0.00  0.00    +0.000 HD
ENDBRANCH  14  19
TORSDOF 1
ENDMDL
MODEL 2
REMARK VINA RESULT:      -8.0      1.255      1.609
REMARK  Name = 
REMARK  4 active torsions:
REMARK  status: ('A' for Active; 'I' for Inactive)
REMARK    1  A    between atoms: C_1  and  C_2
REMARK    2  A    between atoms: C_2  and  C_3
REMARK    3  A    between atoms: C_14  and  C_15
REMARK    4  A    between atoms: C_14  and  O_16
REMARK                            x       y       z     vdW  Elec       q    Type
REMARK                         _______ _______ _______ _____ _____    ______ ____
ROOT
ATOM      1  C   UNL     1       6.057   3.324  12.803  0.00  0.00    +0.000 C 
ATOM      2  C   UNL     1       6.685   4.343  13.713  0.00  0.00    +0.000 C 
ATOM      3  C   UNL     1       7.561   5.382  13.069  0.00  0.00    +0.000 C 
ATOM      4  C   UNL     1       6.413   4.356  15.031  0.00  0.00    +0.000 C 
ATOM      5  O   UNL     1       5.519   3.479  15.649  0.00  0.00    +0.000 OA
ATOM      6  C   UNL     1       5.336   3.959  16.927  0.00  0.00    +0.000 A 
ATOM      7  C   UNL     1       6.135   5.063  17.208  0.00  0.00    +0.000 A 
ATOM      8  C   UNL     1       6.064   5.756  18.399  0.00  0.00    +0.000 A 
ATOM      9  C   UNL     1       5.107   5.333  19.319  0.00  0.00    +0.000 A 
ATOM     10  C   UNL     1       4.265   4.233  19.034  0.00  0.00    +0.000 A 
ATOM     11  C   UNL     1       4.412   3.492  17.843  0.00  0.00    +0.000 A 
ATOM     12  C   UNL     1       3.545   2.300  17.550  0.00  0.00    +0.000 C 
ATOM     13  O   UNL     1       2.743   1.870  18.655  0.00  0.00    +0.000 OA
ATOM     14  C   UNL     1       2.125   2.931  19.374  0.00  0.00    +0.000 C 
ATOM     15  C   UNL     1       1.124   3.710  18.512  0.00  0.00    +0.000 C 
ATOM     16  C   UNL     1       3.200   3.823  20.019  0.00  0.00    +0.000 C 
ATOM     17  C   UNL     1       6.925   5.350  16.022  0.00  0.00    +0.000 C 
ATOM     18  O   UNL     1       7.767   6.211  15.901  0.00  0.00    +0.000 OA
ENDROOT
BRANCH  14  19
ATOM     19  O   UNL     1       1.391   2.330  20.438  0.00  0.00    +0.000 OA
ATOM     20  H   UNL     1       0.659   1.860  20.005  0.00  0.00    +0.000 HD
ENDBRANCH  14  19
TORSDOF 1
ENDMDL
MODEL 3
REMARK VINA RESULT:      -6.9      4.762      7.041
REMARK  Name = 
REMARK  4 active torsions:
REMARK  status: ('A' for Active; 'I' for Inactive)
REMARK    1  A    between atoms: C_1  and  C_2
REMARK    2  A    between atoms: C_2  and  C_3
REMARK    3  A    between atoms: C_14  and  C_15
REMARK    4  A    between atoms: C_14  and  O_16
REMARK                            x       y       z     vdW  Elec       q    Type
REMARK                         _______ _______ _______ _____ _____    ______ ____
ROOT
ATOM      1  C   UNL     1       1.422   3.024  21.515  0.00  0.00    +0.000 C 
ATOM      2  C   UNL     1       1.857   3.398  20.125  0.00  0.00    +0.000 C 
ATOM      3  C   UNL     1       1.950   2.285  19.118  0.00  0.00    +0.000 C 
ATOM      4  C   UNL     1       2.083   4.683  19.792  0.00  0.00    +0.000 C 
ATOM      5  O   UNL     1       1.900   5.756  20.667  0.00  0.00    +0.000 OA
ATOM      6  C   UNL     1       1.998   6.895  19.899  0.00  0.00    +0.000 A 
ATOM      7  C   UNL     1       2.324   6.625  18.572  0.00  0.00    +0.000 A 
ATOM      8  C   UNL     1       2.399   7.604  17.605  0.00  0.00    +0.000 A 
ATOM      9  C   UNL     1       2.085   8.904  17.997  0.00  0.00    +0.000 A 
ATOM     10  C   UNL     1       1.721   9.190  19.332  0.00  0.00    +0.000 A 
ATOM     11  C   UNL     1       1.728   8.183  20.321  0.00  0.00    +0.000 A 
ATOM     12  C   UNL     1       1.377   8.486  21.750  0.00  0.00    +0.000 C 
ATOM     13  O   UNL     1       1.261   9.883  22.044  0.00  0.00    +0.000 OA
ATOM     14  C   UNL     1       0.560  10.629  21.056  0.00  0.00    +0.000 C 
ATOM     15  C   UNL     1      -0.902  10.188  20.925  0.00  0.00    +0.000 C 
ATOM     16  C   UNL     1       1.332  10.592  19.725  0.00  0.00    +0.000 C 
ATOM     17  C   UNL     1       2.460   5.183  18.436  0.00  0.00    +0.000 C 
ATOM     18  O   UNL     1       2.779   4.575  17.440  0.00  0.00    +0.000 OA
ENDROOT
BRANCH  14  19
ATOM     19  O   UNL     1       0.557  11.986  21.497  0.00  0.00    +0.000 OA
ATOM     20  H   UNL     1       0.858  11.951  22.420  0.00  0.00    +0.000 HD
ENDBRANCH  14  19
TORSDOF 1
ENDMDL
MODEL 4
REMARK VINA RESULT:      -6.6      3.866      6.401
REMARK  Name = 
REMARK  4 active torsions:
REMARK  status: ('A' for Active; 'I' for Inactive)
REMARK    1  A    between atoms: C_1  and  C_2
REMARK    2  A    between atoms: C_2  and  C_3
REMARK    3  A    between atoms: C_14  and  C_15
REMARK    4  A    between atoms: C_14  and  O_16
REMARK                            x       y       z     vdW  Elec       q    Type
REMARK                         _______ _______ _______ _____ _____    ______ ____
ROOT
ATOM      1  C   UNL     1       1.211   2.964  21.210  0.00  0.00    +0.000 C 
ATOM      2  C   UNL     1       2.222   3.094  20.104  0.00  0.00    +0.000 C 
ATOM      3  C   UNL     1       2.724   1.817  19.488  0.00  0.00    +0.000 C 
ATOM      4  C   UNL     1       2.601   4.303  19.651  0.00  0.00    +0.000 C 
ATOM      5  O   UNL     1       2.075   5.509  20.121  0.00  0.00    +0.000 OA
ATOM      6  C   UNL     1       2.527   6.483  19.259  0.00  0.00    +0.000 A 
ATOM      7  C   UNL     1       3.398   5.987  18.293  0.00  0.00    +0.000 A 
ATOM      8  C   UNL     1       3.914   6.766  17.278  0.00  0.00    +0.000 A 
ATOM      9  C   UNL     1       3.488   8.092  17.221  0.00  0.00    +0.000 A 
ATOM     10  C   UNL     1       2.579   8.602  18.176  0.00  0.00    +0.000 A 
ATOM     11  C   UNL     1       2.128   7.807  19.250  0.00  0.00    +0.000 A 
ATOM     12  C   UNL     1       1.190   8.353  20.289  0.00  0.00    +0.000 C 
ATOM     13  O   UNL     1       0.987   9.768  20.213  0.00  0.00    +0.000 OA
ATOM     14  C   UNL     1       0.811  10.261  18.890  0.00  0.00    +0.000 C 
ATOM     15  C   UNL     1      -0.454   9.703  18.227  0.00  0.00    +0.000 C 
ATOM     16  C   UNL     1       2.089  10.023  18.067  0.00  0.00    +0.000 C 
ATOM     17  C   UNL     1       3.547   4.560  18.524  0.00  0.00    +0.000 C 
ATOM     18  O   UNL     1       4.259   3.795  17.913  0.00  0.00    +0.000 OA
ENDROOT
BRANCH  14  19
ATOM     19  O   UNL     1       0.644  11.673  19.000  0.00  0.00    +0.000 OA
ATOM     20  H   UNL     1       0.007  11.906  18.305  0.00  0.00    +0.000 HD
ENDBRANCH  14  19
TORSDOF 1
ENDMDL
MODEL 5
REMARK VINA RESULT:      -6.5      3.998      7.793
REMARK  Name = 
REMARK  4 active torsions:
REMARK  status: ('A' for Active; 'I' for Inactive)
REMARK    1  A    between atoms: C_1  and  C_2
REMARK    2  A    between atoms: C_2  and  C_3
REMARK    3  A    between atoms: C_14  and  C_15
REMARK    4  A    between atoms: C_14  and  O_16
REMARK                            x       y       z     vdW  Elec       q    Type
REMARK                         _______ _______ _______ _____ _____    ______ ____
ROOT
ATOM      1  C   UNL     1       0.314   9.248  23.317  0.00  0.00    +0.000 C 
ATOM      2  C   UNL     1       0.369   9.943  21.985  0.00  0.00    +0.000 C 
ATOM      3  C   UNL     1      -0.000  11.401  21.963  0.00  0.00    +0.000 C 
ATOM      4  C   UNL     1       0.795   9.297  20.883  0.00  0.00    +0.000 C 
ATOM      5  O   UNL     1       1.251   7.977  20.884  0.00  0.00    +0.000 OA
ATOM      6  C   UNL     1       1.811   7.768  19.644  0.00  0.00    +0.000 A 
ATOM      7  C   UNL     1       1.668   8.861  18.794  0.00  0.00    +0.000 A 
ATOM      8  C   UNL     1       2.219   8.906  17.531  0.00  0.00    +0.000 A 
ATOM      9  C   UNL     1       2.984   7.810  17.137  0.00  0.00    +0.000 A 
ATOM     10  C   UNL     1       3.166   6.706  18.000  0.00  0.00    +0.000 A 
ATOM     11  C   UNL     1       2.527   6.650  19.256  0.00  0.00    +0.000 A 
ATOM     12  C   UNL     1       2.686   5.463  20.164  0.00  0.00    +0.000 C 
ATOM     13  O   UNL     1       3.338   4.342  19.558  0.00  0.00    +0.000 OA
ATOM     14  C   UNL     1       4.473   4.684  18.771  0.00  0.00    +0.000 C 
ATOM     15  C   UNL     1       5.592   5.314  19.610  0.00  0.00    +0.000 C 
ATOM     16  C   UNL     1       4.041   5.553  17.577  0.00  0.00    +0.000 C 
ATOM     17  C   UNL     1       0.948   9.894  19.523  0.00  0.00    +0.000 C 
ATOM     18  O   UNL     1       0.599  10.972  19.098  0.00  0.00    +0.000 OA
ENDROOT
BRANCH  14  19
ATOM     19  O   UNL     1       4.980   3.464  18.234  0.00  0.00    +0.000 OA
ATOM     20  H   UNL     1       4.396   2.773  18.588  0.00  0.00    +0.000 HD
ENDBRANCH  14  19
TORSDOF 1
ENDMDL
MODEL 6
REMARK VINA RESULT:      -6.5      2.053      3.064
REMARK  Name = 
REMARK  4 active torsions:
REMARK  status: ('A' for Active; 'I' for Inactive)
REMARK    1  A    between atoms: C_1  and  C_2
REMARK    2  A    between atoms: C_2  and  C_3
REMARK    3  A    between atoms: C_14  and  C_15
REMARK    4  A    between atoms: C_14  and  O_16
REMARK                            x       y       z     vdW  Elec       q    Type
REMARK                         _______ _______ _______ _____ _____    ______ ____
ROOT
ATOM      1  C   UNL     1       6.331   3.178  14.751  0.00  0.00    +0.000 C 
ATOM      2  C   UNL     1       5.902   4.602  14.977  0.00  0.00    +0.000 C 
ATOM      3  C   UNL     1       6.067   5.553  13.824  0.00  0.00    +0.000 C 
ATOM      4  C   UNL     1       5.335   4.978  16.139  0.00  0.00    +0.000 C 
ATOM      5  O   UNL     1       5.063   4.101  17.191  0.00  0.00    +0.000 OA
ATOM      6  C   UNL     1       4.280   4.804  18.079  0.00  0.00    +0.000 A 
ATOM      7  C   UNL     1       4.095   6.132  17.704  0.00  0.00    +0.000 A 
ATOM      8  C   UNL     1       3.283   7.002  18.400  0.00  0.00    +0.000 A 
ATOM      9  C   UNL     1       2.598   6.484  19.498  0.00  0.00    +0.000 A 
ATOM     10  C   UNL     1       2.750   5.130  19.874  0.00  0.00    +0.000 A 
ATOM     11  C   UNL     1       3.647   4.281  19.192  0.00  0.00    +0.000 A 
ATOM     12  C   UNL     1       3.841   2.850  19.608  0.00  0.00    +0.000 C 
ATOM     13  O   UNL     1       3.223   2.511  20.854  0.00  0.00    +0.000 OA
ATOM     14  C   UNL     1       1.910   3.037  21.015  0.00  0.00    +0.000 C 
ATOM     15  C   UNL     1       0.928   2.470  19.984  0.00  0.00    +0.000 C 
ATOM     16  C   UNL     1       1.960   4.575  21.031  0.00  0.00    +0.000 C 
ATOM     17  C   UNL     1       4.816   6.342  16.459  0.00  0.00    +0.000 C 
ATOM     18  O   UNL     1       4.925   7.382  15.849  0.00  0.00    +0.000 OA
ENDROOT
BRANCH  14  19
ATOM     19  O   UNL     1       1.461   2.622  22.303  0.00  0.00    +0.000 OA
ATOM     20  H   UNL     1       2.145   2.932  22.920  0.00  0.00    +0.000 HD
ENDBRANCH  14  19
TORSDOF 1
ENDMDL
MODEL 7
REMARK VINA RESULT:      -6.4      3.664      6.413
REMARK  Name = 
REMARK  4 active torsions:
REMARK  status: ('A' for Active; 'I' for Inactive)
REMARK    1  A    between atoms: C_1  and  C_2
REMARK    2  A    between atoms: C_2  and  C_3
REMARK    3  A    between atoms: C_14  and  C_15
REMARK    4  A    between atoms: C_14  and  O_16
REMARK                            x       y       z     vdW  Elec       q    Type
REMARK                         _______ _______ _______ _____ _____    ______ ____
ROOT
ATOM      1  C   UNL     1       0.136   8.362  21.623  0.00  0.00    +0.000 C 
ATOM      2  C   UNL     1       0.987   8.869  20.492  0.00  0.00    +0.000 C 
ATOM      3  C   UNL     1       1.243  10.350  20.443  0.00  0.00    +0.000 C 
ATOM      4  C   UNL     1       1.544   8.018  19.609  0.00  0.00    +0.000 C 
ATOM      5  O   UNL     1       1.421   6.629  19.685  0.00  0.00    +0.000 OA
ATOM      6  C   UNL     1       2.313   6.118  18.768  0.00  0.00    +0.000 A 
ATOM      7  C   UNL     1       2.954   7.108  18.028  0.00  0.00    +0.000 A 
ATOM      8  C   UNL     1       3.943   6.833  17.108  0.00  0.00    +0.000 A 
ATOM      9  C   UNL     1       4.324   5.500  16.969  0.00  0.00    +0.000 A 
ATOM     10  C   UNL     1       3.704   4.486  17.735  0.00  0.00    +0.000 A 
ATOM     11  C   UNL     1       2.640   4.784  18.613  0.00  0.00    +0.000 A 
ATOM     12  C   UNL     1       1.953   3.707  19.404  0.00  0.00    +0.000 C 
ATOM     13  O   UNL     1       2.316   2.375  19.025  0.00  0.00    +0.000 OA
ATOM     14  C   UNL     1       3.709   2.193  18.800  0.00  0.00    +0.000 C 
ATOM     15  C   UNL     1       4.536   2.420  20.070  0.00  0.00    +0.000 C 
ATOM     16  C   UNL     1       4.166   3.057  17.610  0.00  0.00    +0.000 C 
ATOM     17  C   UNL     1       2.452   8.394  18.484  0.00  0.00    +0.000 C 
ATOM     18  O   UNL     1       2.743   9.484  18.046  0.00  0.00    +0.000 OA
ENDROOT
BRANCH  14  19
ATOM     19  O   UNL     1       3.886   0.831  18.416  0.00  0.00    +0.000 OA
ATOM     20  H   UNL     1       3.242   0.686  17.703  0.00  0.00    +0.000 HD
ENDBRANCH  14  19
TORSDOF 1
ENDMDL
MODEL 8
REMARK VINA RESULT:      -6.3      2.397      6.399
REMARK  Name = 
REMARK  4 active torsions:
REMARK  status: ('A' for Active; 'I' for Inactive)
REMARK    1  A    between atoms: C_1  and  C_2
REMARK    2  A    between atoms: C_2  and  C_3
REMARK    3  A    between atoms: C_14  and  C_15
REMARK    4  A    between atoms: C_14  and  O_16
REMARK                            x       y       z     vdW  Elec       q    Type
REMARK                         _______ _______ _______ _____ _____    ______ ____
ROOT
ATOM      1  C   UNL     1       1.875  10.032  17.880  0.00  0.00    +0.000 C 
ATOM      2  C   UNL     1       1.740   8.862  18.815  0.00  0.00    +0.000 C 
ATOM      3  C   UNL     1       0.624   8.922  19.822  0.00  0.00    +0.000 C 
ATOM      4  C   UNL     1       2.542   7.788  18.701  0.00  0.00    +0.000 C 
ATOM      5  O   UNL     1       3.515   7.646  17.710  0.00  0.00    +0.000 OA
ATOM      6  C   UNL     1       3.945   6.339  17.782  0.00  0.00    +0.000 A 
ATOM      7  C   UNL     1       3.362   5.636  18.832  0.00  0.00    +0.000 A 
ATOM      8  C   UNL     1       3.583   4.292  19.049  0.00  0.00    +0.000 A 
ATOM      9  C   UNL     1       4.396   3.631  18.131  0.00  0.00    +0.000 A 
ATOM     10  C   UNL     1       4.970   4.323  17.040  0.00  0.00    +0.000 A 
ATOM     11  C   UNL     1       4.792   5.714  16.885  0.00  0.00    +0.000 A 
ATOM     12  C   UNL     1       5.428   6.464  15.749  0.00  0.00    +0.000 C 
ATOM     13  O   UNL     1       6.380   5.700  15.000  0.00  0.00    +0.000 OA
ATOM     14  C   UNL     1       5.964   4.369  14.717  0.00  0.00    +0.000 C 
ATOM     15  C   UNL     1       4.719   4.328  13.823  0.00  0.00    +0.000 C 
ATOM     16  C   UNL     1       5.803   3.579  16.028  0.00  0.00    +0.000 C 
ATOM     17  C   UNL     1       2.466   6.546  19.528  0.00  0.00    +0.000 C 
ATOM     18  O   UNL     1       1.816   6.308  20.521  0.00  0.00    +0.000 OA
ENDROOT
BRANCH  14  19
ATOM     19  O   UNL     1       7.028   3.756  13.991  0.00  0.00    +0.000 OA
ATOM     20  H   UNL     1       7.502   4.492  13.570  0.00  0.00    +0.000 HD
ENDBRANCH  14  19
TORSDOF 1
ENDMDL
MODEL 9
REMARK VINA RESULT:      -6.3      1.908      6.241
REMARK  Name = 
REMARK  4 active torsions:
REMARK  status: ('A' for Active; 'I' for Inactive)
REMARK    1  A    between atoms: C_1  and  C_2
REMARK    2  A    between atoms: C_2  and  C_3
REMARK    3  A    between atoms: C_14  and  C_15
REMARK    4  A    between atoms: C_14  and  O_16
REMARK                            x       y       z     vdW  Elec       q    Type
REMARK                         _______ _______ _______ _____ _____    ______ ____
ROOT
ATOM      1  C   UNL     1       2.119   1.144  20.015  0.00  0.00    +0.000 C 
ATOM      2  C   UNL     1       1.825   2.588  20.314  0.00  0.00    +0.000 C 
ATOM      3  C   UNL     1       1.138   2.887  21.619  0.00  0.00    +0.000 C 
ATOM      4  C   UNL     1       2.224   3.564  19.477  0.00  0.00    +0.000 C 
ATOM      5  O   UNL     1       2.960   3.336  18.313  0.00  0.00    +0.000 OA
ATOM      6  C   UNL     1       3.371   4.576  17.874  0.00  0.00    +0.000 A 
ATOM      7  C   UNL     1       2.866   5.617  18.647  0.00  0.00    +0.000 A 
ATOM      8  C   UNL     1       3.207   6.938  18.440  0.00  0.00    +0.000 A 
ATOM      9  C   UNL     1       4.135   7.199  17.434  0.00  0.00    +0.000 A 
ATOM     10  C   UNL     1       4.682   6.150  16.662  0.00  0.00    +0.000 A 
ATOM     11  C   UNL     1       4.257   4.816  16.840  0.00  0.00    +0.000 A 
ATOM     12  C   UNL     1       4.807   3.699  15.998  0.00  0.00    +0.000 C 
ATOM     13  O   UNL     1       5.602   4.135  14.889  0.00  0.00    +0.000 OA
ATOM     14  C   UNL     1       6.507   5.188  15.200  0.00  0.00    +0.000 C 
ATOM     15  C   UNL     1       7.562   4.762  16.226  0.00  0.00    +0.000 C 
ATOM     16  C   UNL     1       5.724   6.447  15.614  0.00  0.00    +0.000 C 
ATOM     17  C   UNL     1       2.044   5.031  19.693  0.00  0.00    +0.000 C 
ATOM     18  O   UNL     1       1.404   5.625  20.532  0.00  0.00    +0.000 OA
ENDROOT
BRANCH  14  19
ATOM     19  O   UNL     1       7.193   5.505  13.991  0.00  0.00    +0.000 OA
ATOM     20  H   UNL     1       6.492   5.706  13.349  0.00  0.00    +0.000 HD
ENDBRANCH  14  19
TORSDOF 1
ENDMDL
