MODEL 1
REMARK VINA RESULT:      -8.0      0.000      0.000
REMARK  Name = 
REMARK  7 active torsions:
REMARK  status: ('A' for Active; 'I' for Inactive)
REMARK    1  A    between atoms: C_1  and  C_2
REMARK    2  A    between atoms: C_2  and  N_3
REMARK    3  A    between atoms: C_4  and  C_6
REMARK    4  A    between atoms: C_6  and  C_7
REMARK    5  A    between atoms: N_11  and  C_12
REMARK    6  A    between atoms: C_12  and  C_13
REMARK    7  A    between atoms: C_16  and  C_17
REMARK                            x       y       z     vdW  Elec       q    Type
REMARK                         _______ _______ _______ _____ _____    ______ ____
ROOT
ATOM      1  C   UNL     1       2.967   6.250  17.627  0.00  0.00    +0.000 C 
ENDROOT
BRANCH   1   7
ATOM      2  C   UNL     1       4.143   4.041  17.650  0.00  0.00    +0.000 C 
ATOM      3  C   UNL     1       4.446   4.231  16.146  0.00  0.00    +0.000 C 
ATOM      4  C   UNL     1       3.578   2.632  17.887  0.00  0.00    +0.000 C 
ATOM      5  C   UNL     1       2.099   2.800  17.614  0.00  0.00    +0.000 C 
ATOM      6  C   UNL     1       1.790   4.177  18.169  0.00  0.00    +0.000 C 
ATOM      7  N   UNL     1       3.066   4.916  18.236  0.00  0.00    +0.000 NA
BRANCH   2   9
ATOM      8  N   UNL     1       6.519   4.766  17.765  0.00  0.00    +0.000 N 
ATOM      9  C   UNL     1       5.477   4.170  18.444  0.00  0.00    +0.000 C 
ATOM     10  O   UNL     1       5.571   3.849  19.626  0.00  0.00    +0.000 OA
ATOM     11  H   UNL     1       6.364   4.947  16.777  0.00  0.00    +0.000 HD
BRANCH   8  13
ATOM     12  C   UNL     1       8.009   6.397  18.857  0.00  0.00    +0.000 C 
ATOM     13  C   UNL     1       7.817   4.968  18.375  0.00  0.00    +0.000 C 
ENDBRANCH   8  13
ENDBRANCH   2   9
ENDBRANCH   1   7
BRANCH   1  14
ATOM     14  C   UNL     1       2.346   7.320  18.510  0.00  0.00    +0.000 A 
ATOM     15  C   UNL     1       1.850   8.517  17.989  0.00  0.00    +0.000 A 
ATOM     16  C   UNL     1       1.190   9.442  18.821  0.00  0.00    +0.000 A 
ATOM     17  C   UNL     1       0.989   9.199  20.193  0.00  0.00    +0.000 A 
ATOM     18  C   UNL     1       1.529   8.007  20.705  0.00  0.00    +0.000 A 
ATOM     19  C   UNL     1       2.194   7.086  19.883  0.00  0.00    +0.000 A 
BRANCH  17  20
ATOM     20  C   UNL     1       0.198  10.114  21.060  0.00  0.00    +0.000 A 
ATOM     21  C   UNL     1      -0.372   9.671  22.269  0.00  0.00    +0.000 A 
ATOM     22  C   UNL     1      -1.047  10.548  23.128  0.00  0.00    +0.000 A 
ATOM     23  C   UNL     1      -1.164  11.895  22.803  0.00  0.00    +0.000 A 
ATOM     24  C   UNL     1      -0.624  12.361  21.610  0.00  0.00    +0.000 A 
ATOM     25  C   UNL     1       0.037  11.478  20.747  0.00  0.00    +0.000 A 
ENDBRANCH  17  20
ENDBRANCH   1  14
TORSDOF 5
ENDMDL
MODEL 2
REMARK VINA RESULT:      -7.8      3.755      8.635
REMARK  Name = 
REMARK  7 active torsions:
REMARK  status: ('A' for Active; 'I' for Inactive)
REMARK    1  A    between atoms: C_1  and  C_2
REMARK    2  A    between atoms: C_2  and  N_3
REMARK    3  A    between atoms: C_4  and  C_6
REMARK    4  A    between atoms: C_6  and  C_7
REMARK    5  A    between atoms: N_11  and  C_12
REMARK    6  A    between atoms: C_12  and  C_13
REMARK    7  A    between atoms: C_16  and  C_17
REMARK                            x       y       z     vdW  Elec       q    Type
REMARK                         _______ _______ _______ _____ _____    ______ ____
ROOT
ATOM      1  C   UNL     1       0.687  10.993  20.046  0.00  0.00    +0.000 C 
ENDROOT
BRANCH   1   7
ATOM      2  C   UNL     1      -1.456  11.891  19.117  0.00  0.00    +0.000 C 
ATOM      3  C   UNL     1      -0.649  13.043  18.476  0.00  0.00    +0.000 C 
ATOM      4  C   UNL     1      -2.678  12.465  19.851  0.00  0.00    +0.000 C 
ATOM      5  C   UNL     1      -2.126  12.832  21.211  0.00  0.00    +0.000 C 
ATOM      6  C   UNL     1      -1.135  11.722  21.504  0.00  0.00    +0.000 C 
ATOM      7  N   UNL     1      -0.768  11.114  20.210  0.00  0.00    +0.000 NA
BRANCH   2   9
ATOM      8  N   UNL     1      -2.134  11.544  16.750  0.00  0.00    +0.000 N 
ATOM      9  C   UNL     1      -1.965  10.951  17.984  0.00  0.00    +0.000 C 
ATOM     10  O   UNL     1      -2.119   9.744  18.151  0.00  0.00    +0.000 OA
ATOM     11  H   UNL     1      -2.037  12.555  16.722  0.00  0.00    +0.000 HD
BRANCH   8  13
ATOM     12  C   UNL     1      -4.105  10.748  15.504  0.00  0.00    +0.000 C 
ATOM     13  C   UNL     1      -2.588  10.796  15.596  0.00  0.00    +0.000 C 
ENDBRANCH   8  13
ENDBRANCH   2   9
ENDBRANCH   1   7
BRANCH   1  14
ATOM     14  C   UNL     1       1.171   9.645  19.537  0.00  0.00    +0.000 A 
ATOM     15  C   UNL     1       1.512   9.435  18.198  0.00  0.00    +0.000 A 
ATOM     16  C   UNL     1       2.052   8.204  17.781  0.00  0.00    +0.000 A 
ATOM     17  C   UNL     1       2.285   7.148  18.682  0.00  0.00    +0.000 A 
ATOM     18  C   UNL     1       1.901   7.366  20.016  0.00  0.00    +0.000 A 
ATOM     19  C   UNL     1       1.355   8.587  20.436  0.00  0.00    +0.000 A 
BRANCH  17  20
ATOM     20  C   UNL     1       2.958   5.884  18.277  0.00  0.00    +0.000 A 
ATOM     21  C   UNL     1       4.344   5.703  18.442  0.00  0.00    +0.000 A 
ATOM     22  C   UNL     1       4.967   4.485  18.139  0.00  0.00    +0.000 A 
ATOM     23  C   UNL     1       4.217   3.412  17.670  0.00  0.00    +0.000 A 
ATOM     24  C   UNL     1       2.848   3.563  17.485  0.00  0.00    +0.000 A 
ATOM     25  C   UNL     1       2.231   4.786  17.775  0.00  0.00    +0.000 A 
ENDBRANCH  17  20
ENDBRANCH   1  14
TORSDOF 5
ENDMDL
MODEL 3
REMARK VINA RESULT:      -7.7      3.794      8.692
REMARK  Name = 
REMARK  7 active torsions:
REMARK  status: ('A' for Active; 'I' for Inactive)
REMARK    1  A    between atoms: C_1  and  C_2
REMARK    2  A    between atoms: C_2  and  N_3
REMARK    3  A    between atoms: C_4  and  C_6
REMARK    4  A    between atoms: C_6  and  C_7
REMARK    5  A    between atoms: N_11  and  C_12
REMARK    6  A    between atoms: C_12  and  C_13
REMARK    7  A    between atoms: C_16  and  C_17
REMARK                            x       y       z     vdW  Elec       q    Type
REMARK                         _______ _______ _______ _____ _____    ______ ____
ROOT
ATOM      1  C   UNL     1       0.973  10.917  19.105  0.00  0.00    +0.000 C 
ENDROOT
BRANCH   1   7
ATOM      2  C   UNL     1      -1.336  11.881  19.053  0.00  0.00    +0.000 C 
ATOM      3  C   UNL     1      -0.779  13.069  18.235  0.00  0.00    +0.000 C 
ATOM      4  C   UNL     1      -2.203  12.411  20.206  0.00  0.00    +0.000 C 
ATOM      5  C   UNL     1      -1.195  12.689  21.300  0.00  0.00    +0.000 C 
ATOM      6  C   UNL     1      -0.194  11.559  21.155  0.00  0.00    +0.000 C 
ATOM      7  N   UNL     1      -0.326  11.033  19.783  0.00  0.00    +0.000 NA
BRANCH   2   9
ATOM      8  N   UNL     1      -2.922  11.711  17.146  0.00  0.00    +0.000 N 
ATOM      9  C   UNL     1      -2.238  11.018  18.123  0.00  0.00    +0.000 C 
ATOM     10  O   UNL     1      -2.270   9.792  18.191  0.00  0.00    +0.000 OA
ATOM     11  H   UNL     1      -2.878  12.725  17.202  0.00  0.00    +0.000 HD
BRANCH   8  13
ATOM     12  C   UNL     1      -3.042  10.589  14.955  0.00  0.00    +0.000 C 
ATOM     13  C   UNL     1      -3.790  11.045  16.197  0.00  0.00    +0.000 C 
ENDBRANCH   8  13
ENDBRANCH   2   9
ENDBRANCH   1   7
BRANCH   1  14
ATOM     14  C   UNL     1       1.544   9.510  19.038  0.00  0.00    +0.000 A 
ATOM     15  C   UNL     1       1.484   8.631  20.123  0.00  0.00    +0.000 A 
ATOM     16  C   UNL     1       1.932   7.303  19.994  0.00  0.00    +0.000 A 
ATOM     17  C   UNL     1       2.438   6.801  18.781  0.00  0.00    +0.000 A 
ATOM     18  C   UNL     1       2.525   7.710  17.713  0.00  0.00    +0.000 A 
ATOM     19  C   UNL     1       2.089   9.037  17.837  0.00  0.00    +0.000 A 
BRANCH  17  20
ATOM     20  C   UNL     1       2.810   5.371  18.598  0.00  0.00    +0.000 A 
ATOM     21  C   UNL     1       2.034   4.505  17.805  0.00  0.00    +0.000 A 
ATOM     22  C   UNL     1       2.425   3.181  17.565  0.00  0.00    +0.000 A 
ATOM     23  C   UNL     1       3.609   2.691  18.105  0.00  0.00    +0.000 A 
ATOM     24  C   UNL     1       4.391   3.518  18.903  0.00  0.00    +0.000 A 
ATOM     25  C   UNL     1       3.990   4.836  19.153  0.00  0.00    +0.000 A 
ENDBRANCH  17  20
ENDBRANCH   1  14
TORSDOF 5
ENDMDL
MODEL 4
REMARK VINA RESULT:      -7.7      2.183      3.406
REMARK  Name = 
REMARK  7 active torsions:
REMARK  status: ('A' for Active; 'I' for Inactive)
REMARK    1  A    between atoms: C_1  and  C_2
REMARK    2  A    between atoms: C_2  and  N_3
REMARK    3  A    between atoms: C_4  and  C_6
REMARK    4  A    between atoms: C_6  and  C_7
REMARK    5  A    between atoms: N_11  and  C_12
REMARK    6  A    between atoms: C_12  and  C_13
REMARK    7  A    between atoms: C_16  and  C_17
REMARK                            x       y       z     vdW  Elec       q    Type
REMARK                         _______ _______ _______ _____ _____    ______ ____
ROOT
ATOM      1  C   UNL     1       4.160   5.902  16.831  0.00  0.00    +0.000 C 
ENDROOT
BRANCH   1   7
ATOM      2  C   UNL     1       6.288   4.614  16.549  0.00  0.00    +0.000 C 
ATOM      3  C   UNL     1       5.494   3.317  16.823  0.00  0.00    +0.000 C 
ATOM      4  C   UNL     1       7.563   4.628  17.406  0.00  0.00    +0.000 C 
ATOM      5  C   UNL     1       7.090   5.200  18.725  0.00  0.00    +0.000 C 
ATOM      6  C   UNL     1       6.074   6.249  18.312  0.00  0.00    +0.000 C 
ATOM      7  N   UNL     1       5.626   5.908  16.949  0.00  0.00    +0.000 NA
BRANCH   2   9
ATOM      8  N   UNL     1       6.137   3.656  14.259  0.00  0.00    +0.000 N 
ATOM      9  C   UNL     1       6.710   4.631  15.049  0.00  0.00    +0.000 C 
ATOM     10  O   UNL     1       7.431   5.507  14.579  0.00  0.00    +0.000 OA
ATOM     11  H   UNL     1       5.599   2.944  14.746  0.00  0.00    +0.000 HD
BRANCH   8  13
ATOM     12  C   UNL     1       5.168   3.290  12.023  0.00  0.00    +0.000 C 
ATOM     13  C   UNL     1       6.421   3.551  12.843  0.00  0.00    +0.000 C 
ENDBRANCH   8  13
ENDBRANCH   2   9
ENDBRANCH   1   7
BRANCH   1  14
ATOM     14  C   UNL     1       3.427   6.768  17.842  0.00  0.00    +0.000 A 
ATOM     15  C   UNL     1       3.017   8.070  17.547  0.00  0.00    +0.000 A 
ATOM     16  C   UNL     1       2.252   8.808  18.470  0.00  0.00    +0.000 A 
ATOM     17  C   UNL     1       1.857   8.270  19.709  0.00  0.00    +0.000 A 
ATOM     18  C   UNL     1       2.310   6.972  20.003  0.00  0.00    +0.000 A 
ATOM     19  C   UNL     1       3.079   6.236  19.091  0.00  0.00    +0.000 A 
BRANCH  17  20
ATOM     20  C   UNL     1       0.956   8.994  20.646  0.00  0.00    +0.000 A 
ATOM     21  C   UNL     1       0.924   8.688  22.019  0.00  0.00    +0.000 A 
ATOM     22  C   UNL     1       0.138   9.423  22.918  0.00  0.00    +0.000 A 
ATOM     23  C   UNL     1      -0.631  10.489  22.466  0.00  0.00    +0.000 A 
ATOM     24  C   UNL     1      -0.631  10.808  21.113  0.00  0.00    +0.000 A 
ATOM     25  C   UNL     1       0.144  10.063  20.216  0.00  0.00    +0.000 A 
ENDBRANCH  17  20
ENDBRANCH   1  14
TORSDOF 5
ENDMDL
MODEL 5
REMARK VINA RESULT:      -7.7      1.873      2.836
REMARK  Name = 
REMARK  7 active torsions:
REMARK  status: ('A' for Active; 'I' for Inactive)
REMARK    1  A    between atoms: C_1  and  C_2
REMARK    2  A    between atoms: C_2  and  N_3
REMARK    3  A    between atoms: C_4  and  C_6
REMARK    4  A    between atoms: C_6  and  C_7
REMARK    5  A    between atoms: N_11  and  C_12
REMARK    6  A    between atoms: C_12  and  C_13
REMARK    7  A    between atoms: C_16  and  C_17
REMARK                            x       y       z     vdW  Elec       q    Type
REMARK                         _______ _______ _______ _____ _____    ______ ____
ROOT
ATOM      1  C   UNL     1       3.263   6.016  17.602  0.00  0.00    +0.000 C 
ENDROOT
BRANCH   1   7
ATOM      2  C   UNL     1       5.358   4.790  16.991  0.00  0.00    +0.000 C 
ATOM      3  C   UNL     1       4.545   3.475  17.003  0.00  0.00    +0.000 C 
ATOM      4  C   UNL     1       6.653   4.602  17.795  0.00  0.00    +0.000 C 
ATOM      5  C   UNL     1       6.223   4.883  19.219  0.00  0.00    +0.000 C 
ATOM      6  C   UNL     1       5.219   6.010  19.069  0.00  0.00    +0.000 C 
ATOM      7  N   UNL     1       4.731   5.976  17.677  0.00  0.00    +0.000 NA
BRANCH   2   9
ATOM      8  N   UNL     1       6.146   4.049  14.752  0.00  0.00    +0.000 N 
ATOM      9  C   UNL     1       5.743   5.122  15.519  0.00  0.00    +0.000 C 
ATOM     10  O   UNL     1       5.610   6.246  15.043  0.00  0.00    +0.000 OA
ATOM     11  H   UNL     1       6.278   3.170  15.246  0.00  0.00    +0.000 HD
BRANCH   8  13
ATOM     12  C   UNL     1       5.701   3.306  12.445  0.00  0.00    +0.000 C 
ATOM     13  C   UNL     1       6.523   4.197  13.362  0.00  0.00    +0.000 C 
ENDBRANCH   8  13
ENDBRANCH   2   9
ENDBRANCH   1   7
BRANCH   1  14
ATOM     14  C   UNL     1       2.597   7.040  18.507  0.00  0.00    +0.000 A 
ATOM     15  C   UNL     1       2.227   8.307  18.049  0.00  0.00    +0.000 A 
ATOM     16  C   UNL     1       1.522   9.193  18.885  0.00  0.00    +0.000 A 
ATOM     17  C   UNL     1       1.147   8.843  20.196  0.00  0.00    +0.000 A 
ATOM     18  C   UNL     1       1.560   7.579  20.649  0.00  0.00    +0.000 A 
ATOM     19  C   UNL     1       2.270   6.695  19.825  0.00  0.00    +0.000 A 
BRANCH  17  20
ATOM     20  C   UNL     1       0.305   9.724  21.050  0.00  0.00    +0.000 A 
ATOM     21  C   UNL     1      -0.096   9.330  22.341  0.00  0.00    +0.000 A 
ATOM     22  C   UNL     1      -0.818  10.189  23.179  0.00  0.00    +0.000 A 
ATOM     23  C   UNL     1      -1.152  11.470  22.751  0.00  0.00    +0.000 A 
ATOM     24  C   UNL     1      -0.781  11.883  21.477  0.00  0.00    +0.000 A 
ATOM     25  C   UNL     1      -0.072  11.017  20.636  0.00  0.00    +0.000 A 
ENDBRANCH  17  20
ENDBRANCH   1  14
TORSDOF 5
ENDMDL
MODEL 6
REMARK VINA RESULT:      -7.6      0.990      1.421
REMARK  Name = 
REMARK  7 active torsions:
REMARK  status: ('A' for Active; 'I' for Inactive)
REMARK    1  A    between atoms: C_1  and  C_2
REMARK    2  A    between atoms: C_2  and  N_3
REMARK    3  A    between atoms: C_4  and  C_6
REMARK    4  A    between atoms: C_6  and  C_7
REMARK    5  A    between atoms: N_11  and  C_12
REMARK    6  A    between atoms: C_12  and  C_13
REMARK    7  A    between atoms: C_16  and  C_17
REMARK                            x       y       z     vdW  Elec       q    Type
REMARK                         _______ _______ _______ _____ _____    ______ ____
ROOT
ATOM      1  C   UNL     1       2.616   5.952  18.360  0.00  0.00    +0.000 C 
ENDROOT
BRANCH   1   7
ATOM      2  C   UNL     1       4.479   4.283  18.448  0.00  0.00    +0.000 C 
ATOM      3  C   UNL     1       4.338   4.104  16.919  0.00  0.00    +0.000 C 
ATOM      4  C   UNL     1       4.530   2.905  19.126  0.00  0.00    +0.000 C 
ATOM      5  C   UNL     1       3.069   2.552  19.305  0.00  0.00    +0.000 C 
ATOM      6  C   UNL     1       2.422   3.881  19.645  0.00  0.00    +0.000 C 
ATOM      7  N   UNL     1       3.325   4.942  19.159  0.00  0.00    +0.000 NA
BRANCH   2   9
ATOM      8  N   UNL     1       6.432   5.597  17.647  0.00  0.00    +0.000 N 
ATOM      9  C   UNL     1       5.821   5.018  18.740  0.00  0.00    +0.000 C 
ATOM     10  O   UNL     1       6.262   5.155  19.878  0.00  0.00    +0.000 OA
ATOM     11  H   UNL     1       6.025   5.384  16.741  0.00  0.00    +0.000 HD
BRANCH   8  13
ATOM     12  C   UNL     1       7.490   7.821  17.565  0.00  0.00    +0.000 C 
ATOM     13  C   UNL     1       7.679   6.326  17.762  0.00  0.00    +0.000 C 
ENDBRANCH   8  13
ENDBRANCH   2   9
ENDBRANCH   1   7
BRANCH   1  14
ATOM     14  C   UNL     1       2.125   7.163  19.137  0.00  0.00    +0.000 A 
ATOM     15  C   UNL     1       1.883   8.393  18.521  0.00  0.00    +0.000 A 
ATOM     16  C   UNL     1       1.333   9.464  19.250  0.00  0.00    +0.000 A 
ATOM     17  C   UNL     1       0.990   9.342  20.610  0.00  0.00    +0.000 A 
ATOM     18  C   UNL     1       1.276   8.109  21.220  0.00  0.00    +0.000 A 
ATOM     19  C   UNL     1       1.831   7.042  20.501  0.00  0.00    +0.000 A 
BRANCH  17  20
ATOM     20  C   UNL     1       0.306  10.427  21.364  0.00  0.00    +0.000 A 
ATOM     21  C   UNL     1       0.411  11.775  20.971  0.00  0.00    +0.000 A 
ATOM     22  C   UNL     1      -0.298  12.789  21.628  0.00  0.00    +0.000 A 
ATOM     23  C   UNL     1      -1.138  12.480  22.693  0.00  0.00    +0.000 A 
ATOM     24  C   UNL     1      -1.253  11.160  23.113  0.00  0.00    +0.000 A 
ATOM     25  C   UNL     1      -0.532  10.151  22.463  0.00  0.00    +0.000 A 
ENDBRANCH  17  20
ENDBRANCH   1  14
TORSDOF 5
ENDMDL
MODEL 7
REMARK VINA RESULT:      -7.5      1.863      3.430
REMARK  Name = 
REMARK  7 active torsions:
REMARK  status: ('A' for Active; 'I' for Inactive)
REMARK    1  A    between atoms: C_1  and  C_2
REMARK    2  A    between atoms: C_2  and  N_3
REMARK    3  A    between atoms: C_4  and  C_6
REMARK    4  A    between atoms: C_6  and  C_7
REMARK    5  A    between atoms: N_11  and  C_12
REMARK    6  A    between atoms: C_12  and  C_13
REMARK    7  A    between atoms: C_16  and  C_17
REMARK                            x       y       z     vdW  Elec       q    Type
REMARK                         _______ _______ _______ _____ _____    ______ ____
ROOT
ATOM      1  C   UNL     1       4.094   6.735  18.378  0.00  0.00    +0.000 C 
ENDROOT
BRANCH   1   7
ATOM      2  C   UNL     1       4.178   4.338  17.661  0.00  0.00    +0.000 C 
ATOM      3  C   UNL     1       5.175   4.070  18.812  0.00  0.00    +0.000 C 
ATOM      4  C   UNL     1       4.716   3.723  16.360  0.00  0.00    +0.000 C 
ATOM      5  C   UNL     1       5.629   4.801  15.817  0.00  0.00    +0.000 C 
ATOM      6  C   UNL     1       4.905   6.088  16.165  0.00  0.00    +0.000 C 
ATOM      7  N   UNL     1       3.975   5.779  17.268  0.00  0.00    +0.000 NA
BRANCH   2   9
ATOM      8  N   UNL     1       2.630   3.351  19.338  0.00  0.00    +0.000 N 
ATOM      9  C   UNL     1       2.826   3.646  18.005  0.00  0.00    +0.000 C 
ATOM     10  O   UNL     1       1.952   3.458  17.163  0.00  0.00    +0.000 OA
ATOM     11  H   UNL     1       3.429   3.491  19.950  0.00  0.00    +0.000 HD
BRANCH   8  13
ATOM     12  C   UNL     1       1.296   2.772  21.327  0.00  0.00    +0.000 C 
ATOM     13  C   UNL     1       1.417   2.718  19.813  0.00  0.00    +0.000 C 
ENDBRANCH   8  13
ENDBRANCH   2   9
ENDBRANCH   1   7
BRANCH   1  14
ATOM     14  C   UNL     1       2.856   7.575  18.645  0.00  0.00    +0.000 A 
ATOM     15  C   UNL     1       2.187   7.545  19.871  0.00  0.00    +0.000 A 
ATOM     16  C   UNL     1       1.104   8.410  20.118  0.00  0.00    +0.000 A 
ATOM     17  C   UNL     1       0.661   9.342  19.161  0.00  0.00    +0.000 A 
ATOM     18  C   UNL     1       1.322   9.330  17.921  0.00  0.00    +0.000 A 
ATOM     19  C   UNL     1       2.396   8.466  17.666  0.00  0.00    +0.000 A 
BRANCH  17  20
ATOM     20  C   UNL     1      -0.408  10.337  19.447  0.00  0.00    +0.000 A 
ATOM     21  C   UNL     1      -0.450  11.041  20.666  0.00  0.00    +0.000 A 
ATOM     22  C   UNL     1      -1.405  12.037  20.906  0.00  0.00    +0.000 A 
ATOM     23  C   UNL     1      -2.341  12.361  19.930  0.00  0.00    +0.000 A 
ATOM     24  C   UNL     1      -2.333  11.675  18.720  0.00  0.00    +0.000 A 
ATOM     25  C   UNL     1      -1.386  10.670  18.489  0.00  0.00    +0.000 A 
ENDBRANCH  17  20
ENDBRANCH   1  14
TORSDOF 5
ENDMDL
MODEL 8
REMARK VINA RESULT:      -7.5      3.707      8.316
REMARK  Name = 
REMARK  7 active torsions:
REMARK  status: ('A' for Active; 'I' for Inactive)
REMARK    1  A    between atoms: C_1  and  C_2
REMARK    2  A    between atoms: C_2  and  N_3
REMARK    3  A    between atoms: C_4  and  C_6
REMARK    4  A    between atoms: C_6  and  C_7
REMARK    5  A    between atoms: N_11  and  C_12
REMARK    6  A    between atoms: C_12  and  C_13
REMARK    7  A    between atoms: C_16  and  C_17
REMARK                            x       y       z     vdW  Elec       q    Type
REMARK                         _______ _______ _______ _____ _____    ______ ____
ROOT
ATOM      1  C   UNL     1       0.918  10.630  18.435  0.00  0.00    +0.000 C 
ENDROOT
BRANCH   1   7
ATOM      2  C   UNL     1       0.633  12.874  19.506  0.00  0.00    +0.000 C 
ATOM      3  C   UNL     1      -0.655  13.065  18.673  0.00  0.00    +0.000 C 
ATOM      4  C   UNL     1       1.510  14.131  19.394  0.00  0.00    +0.000 C 
ATOM      5  C   UNL     1       2.298  13.894  18.125  0.00  0.00    +0.000 C 
ATOM      6  C   UNL     1       2.577  12.403  18.153  0.00  0.00    +0.000 C 
ATOM      7  N   UNL     1       1.577  11.791  19.050  0.00  0.00    +0.000 NA
BRANCH   2   9
ATOM      8  N   UNL     1      -0.649  11.663  21.258  0.00  0.00    +0.000 N 
ATOM      9  C   UNL     1       0.235  12.689  21.001  0.00  0.00    +0.000 C 
ATOM     10  O   UNL     1       0.743  13.351  21.902  0.00  0.00    +0.000 OA
ATOM     11  H   UNL     1      -1.057  11.209  20.446  0.00  0.00    +0.000 HD
BRANCH   8  13
ATOM     12  C   UNL     1      -0.644   9.988  23.066  0.00  0.00    +0.000 C 
ATOM     13  C   UNL     1      -1.103  11.360  22.600  0.00  0.00    +0.000 C 
ENDBRANCH   8  13
ENDBRANCH   2   9
ENDBRANCH   1   7
BRANCH   1  14
ATOM     14  C   UNL     1       1.450   9.276  18.875  0.00  0.00    +0.000 A 
ATOM     15  C   UNL     1       1.274   8.794  20.174  0.00  0.00    +0.000 A 
ATOM     16  C   UNL     1       1.691   7.495  20.519  0.00  0.00    +0.000 A 
ATOM     17  C   UNL     1       2.281   6.627  19.581  0.00  0.00    +0.000 A 
ATOM     18  C   UNL     1       2.483   7.143  18.290  0.00  0.00    +0.000 A 
ATOM     19  C   UNL     1       2.078   8.439  17.942  0.00  0.00    +0.000 A 
BRANCH  17  20
ATOM     20  C   UNL     1       2.624   5.215  19.902  0.00  0.00    +0.000 A 
ATOM     21  C   UNL     1       3.681   4.549  19.252  0.00  0.00    +0.000 A 
ATOM     22  C   UNL     1       4.060   3.249  19.609  0.00  0.00    +0.000 A 
ATOM     23  C   UNL     1       3.395   2.581  20.632  0.00  0.00    +0.000 A 
ATOM     24  C   UNL     1       2.339   3.206  21.284  0.00  0.00    +0.000 A 
ATOM     25  C   UNL     1       1.954   4.501  20.915  0.00  0.00    +0.000 A 
ENDBRANCH  17  20
ENDBRANCH   1  14
TORSDOF 5
ENDMDL
MODEL 9
REMARK VINA RESULT:      -7.5      3.940      8.565
REMARK  Name = 
REMARK  7 active torsions:
REMARK  status: ('A' for Active; 'I' for Inactive)
REMARK    1  A    between atoms: C_1  and  C_2
REMARK    2  A    between atoms: C_2  and  N_3
REMARK    3  A    between atoms: C_4  and  C_6
REMARK    4  A    between atoms: C_6  and  C_7
REMARK    5  A    between atoms: N_11  and  C_12
REMARK    6  A    between atoms: C_12  and  C_13
REMARK    7  A    between atoms: C_16  and  C_17
REMARK                            x       y       z     vdW  Elec       q    Type
REMARK                         _______ _______ _______ _____ _____    ______ ____
ROOT
ATOM      1  C   UNL     1       0.761  10.868  19.156  0.00  0.00    +0.000 C 
ENDROOT
BRANCH   1   7
ATOM      2  C   UNL     1      -1.487  11.953  18.962  0.00  0.00    +0.000 C 
ATOM      3  C   UNL     1      -0.834  13.064  18.110  0.00  0.00    +0.000 C 
ATOM      4  C   UNL     1      -2.366  12.588  20.051  0.00  0.00    +0.000 C 
ATOM      5  C   UNL     1      -1.386  12.867  21.170  0.00  0.00    +0.000 C 
ATOM      6  C   UNL     1      -0.445  11.678  21.123  0.00  0.00    +0.000 C 
ATOM      7  N   UNL     1      -0.555  11.090  19.774  0.00  0.00    +0.000 NA
BRANCH   2   9
ATOM      8  N   UNL     1      -2.819  11.705  16.878  0.00  0.00    +0.000 N 
ATOM      9  C   UNL     1      -2.401  11.092  18.040  0.00  0.00    +0.000 C 
ATOM     10  O   UNL     1      -2.658   9.916  18.282  0.00  0.00    +0.000 OA
ATOM     11  H   UNL     1      -2.604  12.695  16.791  0.00  0.00    +0.000 HD
BRANCH   8  13
ATOM     12  C   UNL     1      -2.854  10.228  14.906  0.00  0.00    +0.000 C 
ATOM     13  C   UNL     1      -3.662  11.028  15.914  0.00  0.00    +0.000 C 
ENDBRANCH   8  13
ENDBRANCH   2   9
ENDBRANCH   1   7
BRANCH   1  14
ATOM     14  C   UNL     1       1.262   9.434  19.198  0.00  0.00    +0.000 A 
ATOM     15  C   UNL     1       1.882   8.831  18.101  0.00  0.00    +0.000 A 
ATOM     16  C   UNL     1       2.424   7.537  18.206  0.00  0.00    +0.000 A 
ATOM     17  C   UNL     1       2.381   6.806  19.408  0.00  0.00    +0.000 A 
ATOM     18  C   UNL     1       1.720   7.414  20.489  0.00  0.00    +0.000 A 
ATOM     19  C   UNL     1       1.171   8.700  20.388  0.00  0.00    +0.000 A 
BRANCH  17  20
ATOM     20  C   UNL     1       3.047   5.484  19.566  0.00  0.00    +0.000 A 
ATOM     21  C   UNL     1       2.470   4.458  20.338  0.00  0.00    +0.000 A 
ATOM     22  C   UNL     1       3.052   3.187  20.422  0.00  0.00    +0.000 A 
ATOM     23  C   UNL     1       4.225   2.905  19.729  0.00  0.00    +0.000 A 
ATOM     24  C   UNL     1       4.826   3.902  18.969  0.00  0.00    +0.000 A 
ATOM     25  C   UNL     1       4.249   5.176  18.899  0.00  0.00    +0.000 A 
ENDBRANCH  17  20
ENDBRANCH   1  14
TORSDOF 5
ENDMDL
