MODEL 1
REMARK VINA RESULT:      -8.0      0.000      0.000
REMARK  Name = 
REMARK  6 active torsions:
REMARK  status: ('A' for Active; 'I' for Inactive)
REMARK    1  A    between atoms: C_2  and  C_3
REMARK    2  A    between atoms: C_3  and  N_4
REMARK    3  A    between atoms: N_11  and  C_12
REMARK    4  A    between atoms: C_12  and  C_13
REMARK    5  A    between atoms: C_13  and  C_14
REMARK    6  A    between atoms: C_13  and  C_19
REMARK                            x       y       z     vdW  Elec       q    Type
REMARK                         _______ _______ _______ _____ _____    ______ ____
ROOT
ATOM      1  O   UNL     1       4.088   5.257  19.267  0.00  0.00    +0.000 OA
ATOM      2  C   UNL     1       4.822   4.281  19.157  0.00  0.00    +0.000 C 
ATOM      3  N   UNL     1       6.195   4.356  19.199  0.00  0.00    +0.000 N 
ATOM      4  H   UNL     1       6.704   3.513  19.475  0.00  0.00    +0.000 HD
ENDROOT
BRANCH   2   5
ATOM      5  C   UNL     1       4.302   2.852  19.056  0.00  0.00    +0.000 C 
BRANCH   5   6
ATOM      6  N   UNL     1       2.901   2.834  19.413  0.00  0.00    +0.000 N 
ATOM      7  C   UNL     1       2.443   2.699  20.687  0.00  0.00    +0.000 C 
ATOM      8  O   UNL     1       3.113   2.558  21.698  0.00  0.00    +0.000 OA
ATOM      9  C   UNL     1       0.948   2.823  20.676  0.00  0.00    +0.000 C 
ATOM     10  C   UNL     1       0.579   2.866  19.204  0.00  0.00    +0.000 C 
ATOM     11  C   UNL     1       1.899   2.933  18.496  0.00  0.00    +0.000 C 
ATOM     12  O   UNL     1       2.035   3.032  17.285  0.00  0.00    +0.000 OA
ENDBRANCH   5   6
ENDBRANCH   2   5
BRANCH   3  13
ATOM     13  C   UNL     1       6.917   5.612  19.358  0.00  0.00    +0.000 C 
BRANCH  13  14
ATOM     14  C   UNL     1       7.674   6.052  18.083  0.00  0.00    +0.000 C 
BRANCH  14  15
ATOM     15  C   UNL     1       6.949   5.630  16.836  0.00  0.00    +0.000 A 
ATOM     16  C   UNL     1       5.828   6.098  16.180  0.00  0.00    +0.000 A 
ATOM     17  C   UNL     1       5.660   5.275  15.038  0.00  0.00    +0.000 A 
ATOM     18  C   UNL     1       6.682   4.360  15.066  0.00  0.00    +0.000 A 
ATOM     19  O   UNL     1       7.465   4.562  16.154  0.00  0.00    +0.000 OA
ENDBRANCH  14  15
BRANCH  14  20
ATOM     20  C   UNL     1       7.956   7.527  18.105  0.00  0.00    +0.000 A 
ATOM     21  C   UNL     1       7.521   8.599  17.349  0.00  0.00    +0.000 A 
ATOM     22  C   UNL     1       8.139   9.750  17.886  0.00  0.00    +0.000 A 
ATOM     23  C   UNL     1       8.911   9.314  18.935  0.00  0.00    +0.000 A 
ATOM     24  O   UNL     1       8.811   7.968  19.076  0.00  0.00    +0.000 OA
ENDBRANCH  14  20
ENDBRANCH  13  14
ENDBRANCH   3  13
TORSDOF 6
ENDMDL
MODEL 2
REMARK VINA RESULT:      -7.9      1.804      3.974
REMARK  Name = 
REMARK  6 active torsions:
REMARK  status: ('A' for Active; 'I' for Inactive)
REMARK    1  A    between atoms: C_2  and  C_3
REMARK    2  A    between atoms: C_3  and  N_4
REMARK    3  A    between atoms: N_11  and  C_12
REMARK    4  A    between atoms: C_12  and  C_13
REMARK    5  A    between atoms: C_13  and  C_14
REMARK    6  A    between atoms: C_13  and  C_19
REMARK                            x       y       z     vdW  Elec       q    Type
REMARK                         _______ _______ _______ _____ _____    ______ ____
ROOT
ATOM      1  O   UNL     1       3.352   1.681  17.738  0.00  0.00    +0.000 OA
ATOM      2  C   UNL     1       4.000   2.541  18.326  0.00  0.00    +0.000 C 
ATOM      3  N   UNL     1       4.845   3.419  17.690  0.00  0.00    +0.000 N 
ATOM      4  H   UNL     1       5.043   4.305  18.160  0.00  0.00    +0.000 HD
ENDROOT
BRANCH   2   5
ATOM      5  C   UNL     1       3.875   2.803  19.822  0.00  0.00    +0.000 C 
BRANCH   5   6
ATOM      6  N   UNL     1       2.940   3.886  20.035  0.00  0.00    +0.000 N 
ATOM      7  C   UNL     1       1.626   3.705  20.338  0.00  0.00    +0.000 C 
ATOM      8  O   UNL     1       1.038   2.641  20.458  0.00  0.00    +0.000 OA
ATOM      9  C   UNL     1       1.000   5.046  20.580  0.00  0.00    +0.000 C 
ATOM     10  C   UNL     1       2.078   6.045  20.200  0.00  0.00    +0.000 C 
ATOM     11  C   UNL     1       3.286   5.198  19.932  0.00  0.00    +0.000 C 
ATOM     12  O   UNL     1       4.391   5.634  19.642  0.00  0.00    +0.000 OA
ENDBRANCH   5   6
ENDBRANCH   2   5
BRANCH   3  13
ATOM     13  C   UNL     1       5.072   3.402  16.250  0.00  0.00    +0.000 C 
BRANCH  13  14
ATOM     14  C   UNL     1       5.562   4.758  15.688  0.00  0.00    +0.000 C 
BRANCH  14  15
ATOM     15  C   UNL     1       6.413   5.494  16.685  0.00  0.00    +0.000 A 
ATOM     16  C   UNL     1       6.539   6.825  17.032  0.00  0.00    +0.000 A 
ATOM     17  C   UNL     1       7.510   6.879  18.063  0.00  0.00    +0.000 A 
ATOM     18  C   UNL     1       7.916   5.586  18.282  0.00  0.00    +0.000 A 
ATOM     19  O   UNL     1       7.262   4.740  17.448  0.00  0.00    +0.000 OA
ENDBRANCH  14  15
BRANCH  14  20
ATOM     20  C   UNL     1       6.258   4.576  14.371  0.00  0.00    +0.000 A 
ATOM     21  C   UNL     1       6.052   3.750  13.282  0.00  0.00    +0.000 A 
ATOM     22  C   UNL     1       7.043   4.080  12.330  0.00  0.00    +0.000 A 
ATOM     23  C   UNL     1       7.791   5.087  12.892  0.00  0.00    +0.000 A 
ATOM     24  O   UNL     1       7.326   5.394  14.130  0.00  0.00    +0.000 OA
ENDBRANCH  14  20
ENDBRANCH  13  14
ENDBRANCH   3  13
TORSDOF 6
ENDMDL
MODEL 3
REMARK VINA RESULT:      -7.8      2.422      6.432
REMARK  Name = 
REMARK  6 active torsions:
REMARK  status: ('A' for Active; 'I' for Inactive)
REMARK    1  A    between atoms: C_2  and  C_3
REMARK    2  A    between atoms: C_3  and  N_4
REMARK    3  A    between atoms: N_11  and  C_12
REMARK    4  A    between atoms: C_12  and  C_13
REMARK    5  A    between atoms: C_13  and  C_14
REMARK    6  A    between atoms: C_13  and  C_19
REMARK                            x       y       z     vdW  Elec       q    Type
REMARK                         _______ _______ _______ _____ _____    ______ ____
ROOT
ATOM      1  O   UNL     1       7.093   5.362  19.848  0.00  0.00    +0.000 OA
ATOM      2  C   UNL     1       6.324   5.716  18.961  0.00  0.00    +0.000 C 
ATOM      3  N   UNL     1       4.964   5.517  19.013  0.00  0.00    +0.000 N 
ATOM      4  H   UNL     1       4.376   6.143  18.459  0.00  0.00    +0.000 HD
ENDROOT
BRANCH   2   5
ATOM      5  C   UNL     1       6.769   6.504  17.735  0.00  0.00    +0.000 C 
BRANCH   5   6
ATOM      6  N   UNL     1       6.538   5.705  16.551  0.00  0.00    +0.000 N 
ATOM      7  C   UNL     1       7.225   4.567  16.258  0.00  0.00    +0.000 C 
ATOM      8  O   UNL     1       8.126   4.063  16.910  0.00  0.00    +0.000 OA
ATOM      9  C   UNL     1       6.647   3.966  15.011  0.00  0.00    +0.000 C 
ATOM     10  C   UNL     1       5.652   4.999  14.515  0.00  0.00    +0.000 C 
ATOM     11  C   UNL     1       5.618   6.030  15.603  0.00  0.00    +0.000 C 
ATOM     12  O   UNL     1       4.892   7.013  15.607  0.00  0.00    +0.000 OA
ENDBRANCH   5   6
ENDBRANCH   2   5
BRANCH   3  13
ATOM     13  C   UNL     1       4.301   4.845  20.124  0.00  0.00    +0.000 C 
BRANCH  13  14
ATOM     14  C   UNL     1       2.774   5.082  20.164  0.00  0.00    +0.000 C 
BRANCH  14  15
ATOM     15  C   UNL     1       2.405   6.411  19.565  0.00  0.00    +0.000 A 
ATOM     16  C   UNL     1       1.979   7.612  20.098  0.00  0.00    +0.000 A 
ATOM     17  C   UNL     1       1.810   8.497  19.003  0.00  0.00    +0.000 A 
ATOM     18  C   UNL     1       2.141   7.787  17.875  0.00  0.00    +0.000 A 
ATOM     19  O   UNL     1       2.497   6.521  18.204  0.00  0.00    +0.000 OA
ENDBRANCH  14  15
BRANCH  14  20
ATOM     20  C   UNL     1       2.033   3.945  19.523  0.00  0.00    +0.000 A 
ATOM     21  C   UNL     1       0.749   3.447  19.642  0.00  0.00    +0.000 A 
ATOM     22  C   UNL     1       0.651   2.362  18.742  0.00  0.00    +0.000 A 
ATOM     23  C   UNL     1       1.876   2.264  18.128  0.00  0.00    +0.000 A 
ATOM     24  O   UNL     1       2.723   3.216  18.595  0.00  0.00    +0.000 OA
ENDBRANCH  14  20
ENDBRANCH  13  14
ENDBRANCH   3  13
TORSDOF 6
ENDMDL
MODEL 4
REMARK VINA RESULT:      -7.7      1.994      3.379
REMARK  Name = 
REMARK  6 active torsions:
REMARK  status: ('A' for Active; 'I' for Inactive)
REMARK    1  A    between atoms: C_2  and  C_3
REMARK    2  A    between atoms: C_3  and  N_4
REMARK    3  A    between atoms: N_11  and  C_12
REMARK    4  A    between atoms: C_12  and  C_13
REMARK    5  A    between atoms: C_13  and  C_14
REMARK    6  A    between atoms: C_13  and  C_19
REMARK                            x       y       z     vdW  Elec       q    Type
REMARK                         _______ _______ _______ _____ _____    ______ ____
ROOT
ATOM      1  O   UNL     1       2.224   3.548  16.606  0.00  0.00    +0.000 OA
ATOM      2  C   UNL     1       3.238   3.137  17.161  0.00  0.00    +0.000 C 
ATOM      3  N   UNL     1       4.459   3.762  17.068  0.00  0.00    +0.000 N 
ATOM      4  H   UNL     1       5.130   3.598  17.821  0.00  0.00    +0.000 HD
ENDROOT
BRANCH   2   5
ATOM      5  C   UNL     1       3.248   1.936  18.099  0.00  0.00    +0.000 C 
BRANCH   5   6
ATOM      6  N   UNL     1       2.722   2.339  19.385  0.00  0.00    +0.000 N 
ATOM      7  C   UNL     1       3.497   2.625  20.466  0.00  0.00    +0.000 C 
ATOM      8  O   UNL     1       4.716   2.575  20.532  0.00  0.00    +0.000 OA
ATOM      9  C   UNL     1       2.611   3.095  21.581  0.00  0.00    +0.000 C 
ATOM     10  C   UNL     1       1.200   2.872  21.068  0.00  0.00    +0.000 C 
ATOM     11  C   UNL     1       1.390   2.450  19.642  0.00  0.00    +0.000 C 
ATOM     12  O   UNL     1       0.481   2.222  18.857  0.00  0.00    +0.000 OA
ENDBRANCH   5   6
ENDBRANCH   2   5
BRANCH   3  13
ATOM     13  C   UNL     1       4.676   4.969  16.279  0.00  0.00    +0.000 C 
BRANCH  13  14
ATOM     14  C   UNL     1       4.902   6.234  17.140  0.00  0.00    +0.000 C 
BRANCH  14  15
ATOM     15  C   UNL     1       3.709   6.535  18.004  0.00  0.00    +0.000 A 
ATOM     16  C   UNL     1       2.650   7.414  17.894  0.00  0.00    +0.000 A 
ATOM     17  C   UNL     1       1.839   7.208  19.039  0.00  0.00    +0.000 A 
ATOM     18  C   UNL     1       2.448   6.221  19.773  0.00  0.00    +0.000 A 
ATOM     19  O   UNL     1       3.585   5.811  19.158  0.00  0.00    +0.000 OA
ENDBRANCH  14  15
BRANCH  14  20
ATOM     20  C   UNL     1       6.169   6.125  17.938  0.00  0.00    +0.000 A 
ATOM     21  C   UNL     1       7.391   6.767  17.891  0.00  0.00    +0.000 A 
ATOM     22  C   UNL     1       8.172   6.229  18.939  0.00  0.00    +0.000 A 
ATOM     23  C   UNL     1       7.381   5.295  19.562  0.00  0.00    +0.000 A 
ATOM     24  O   UNL     1       6.165   5.220  18.963  0.00  0.00    +0.000 OA
ENDBRANCH  14  20
ENDBRANCH  13  14
ENDBRANCH   3  13
TORSDOF 6
ENDMDL
MODEL 5
REMARK VINA RESULT:      -7.7      1.965      3.572
REMARK  Name = 
REMARK  6 active torsions:
REMARK  status: ('A' for Active; 'I' for Inactive)
REMARK    1  A    between atoms: C_2  and  C_3
REMARK    2  A    between atoms: C_3  and  N_4
REMARK    3  A    between atoms: N_11  and  C_12
REMARK    4  A    between atoms: C_12  and  C_13
REMARK    5  A    between atoms: C_13  and  C_14
REMARK    6  A    between atoms: C_13  and  C_19
REMARK                            x       y       z     vdW  Elec       q    Type
REMARK                         _______ _______ _______ _____ _____    ______ ____
ROOT
ATOM      1  O   UNL     1       2.461   3.160  16.472  0.00  0.00    +0.000 OA
ATOM      2  C   UNL     1       3.410   2.895  17.202  0.00  0.00    +0.000 C 
ATOM      3  N   UNL     1       4.568   3.636  17.239  0.00  0.00    +0.000 N 
ATOM      4  H   UNL     1       5.126   3.593  18.094  0.00  0.00    +0.000 HD
ENDROOT
BRANCH   2   5
ATOM      5  C   UNL     1       3.385   1.768  18.228  0.00  0.00    +0.000 C 
BRANCH   5   6
ATOM      6  N   UNL     1       2.783   2.255  19.449  0.00  0.00    +0.000 N 
ATOM      7  C   UNL     1       1.447   2.459  19.608  0.00  0.00    +0.000 C 
ATOM      8  O   UNL     1       0.572   2.289  18.774  0.00  0.00    +0.000 OA
ATOM      9  C   UNL     1       1.190   2.871  21.028  0.00  0.00    +0.000 C 
ATOM     10  C   UNL     1       2.572   3.056  21.628  0.00  0.00    +0.000 C 
ATOM     11  C   UNL     1       3.506   2.576  20.557  0.00  0.00    +0.000 C 
ATOM     12  O   UNL     1       4.721   2.514  20.670  0.00  0.00    +0.000 OA
ENDBRANCH   5   6
ENDBRANCH   2   5
BRANCH   3  13
ATOM     13  C   UNL     1       4.792   4.802  16.394  0.00  0.00    +0.000 C 
BRANCH  13  14
ATOM     14  C   UNL     1       5.046   6.101  17.194  0.00  0.00    +0.000 C 
BRANCH  14  15
ATOM     15  C   UNL     1       3.844   6.495  18.007  0.00  0.00    +0.000 A 
ATOM     16  C   UNL     1       2.962   7.556  17.953  0.00  0.00    +0.000 A 
ATOM     17  C   UNL     1       2.023   7.349  18.995  0.00  0.00    +0.000 A 
ATOM     18  C   UNL     1       2.387   6.181  19.618  0.00  0.00    +0.000 A 
ATOM     19  O   UNL     1       3.492   5.658  19.031  0.00  0.00    +0.000 OA
ENDBRANCH  14  15
BRANCH  14  20
ATOM     20  C   UNL     1       6.286   5.985  18.033  0.00  0.00    +0.000 A 
ATOM     21  C   UNL     1       7.492   6.660  18.062  0.00  0.00    +0.000 A 
ATOM     22  C   UNL     1       8.248   6.091  19.111  0.00  0.00    +0.000 A 
ATOM     23  C   UNL     1       7.461   5.108  19.659  0.00  0.00    +0.000 A 
ATOM     24  O   UNL     1       6.270   5.031  19.012  0.00  0.00    +0.000 OA
ENDBRANCH  14  20
ENDBRANCH  13  14
ENDBRANCH   3  13
TORSDOF 6
ENDMDL
MODEL 6
REMARK VINA RESULT:      -7.7      1.681      2.917
REMARK  Name = 
REMARK  6 active torsions:
REMARK  status: ('A' for Active; 'I' for Inactive)
REMARK    1  A    between atoms: C_2  and  C_3
REMARK    2  A    between atoms: C_3  and  N_4
REMARK    3  A    between atoms: N_11  and  C_12
REMARK    4  A    between atoms: C_12  and  C_13
REMARK    5  A    between atoms: C_13  and  C_14
REMARK    6  A    between atoms: C_13  and  C_19
REMARK                            x       y       z     vdW  Elec       q    Type
REMARK                         _______ _______ _______ _____ _____    ______ ____
ROOT
ATOM      1  O   UNL     1       4.217   4.483  18.509  0.00  0.00    +0.000 OA
ATOM      2  C   UNL     1       4.042   3.462  17.851  0.00  0.00    +0.000 C 
ATOM      3  N   UNL     1       4.353   3.359  16.516  0.00  0.00    +0.000 N 
ATOM      4  H   UNL     1       4.535   2.424  16.146  0.00  0.00    +0.000 HD
ENDROOT
BRANCH   2   5
ATOM      5  C   UNL     1       3.546   2.154  18.455  0.00  0.00    +0.000 C 
BRANCH   5   6
ATOM      6  N   UNL     1       2.681   2.450  19.576  0.00  0.00    +0.000 N 
ATOM      7  C   UNL     1       1.366   2.778  19.455  0.00  0.00    +0.000 C 
ATOM      8  O   UNL     1       0.729   2.892  18.420  0.00  0.00    +0.000 OA
ATOM      9  C   UNL     1       0.778   2.918  20.827  0.00  0.00    +0.000 C 
ATOM     10  C   UNL     1       1.966   2.805  21.765  0.00  0.00    +0.000 C 
ATOM     11  C   UNL     1       3.111   2.445  20.868  0.00  0.00    +0.000 C 
ATOM     12  O   UNL     1       4.249   2.213  21.250  0.00  0.00    +0.000 OA
ENDBRANCH   5   6
ENDBRANCH   2   5
BRANCH   3  13
ATOM     13  C   UNL     1       4.906   4.464  15.741  0.00  0.00    +0.000 C 
BRANCH  13  14
ATOM     14  C   UNL     1       6.452   4.500  15.738  0.00  0.00    +0.000 C 
BRANCH  14  15
ATOM     15  C   UNL     1       6.997   4.725  14.355  0.00  0.00    +0.000 A 
ATOM     16  C   UNL     1       6.656   4.245  13.106  0.00  0.00    +0.000 A 
ATOM     17  C   UNL     1       7.549   4.852  12.187  0.00  0.00    +0.000 A 
ATOM     18  C   UNL     1       8.376   5.661  12.926  0.00  0.00    +0.000 A 
ATOM     19  O   UNL     1       8.054   5.587  14.241  0.00  0.00    +0.000 OA
ENDBRANCH  14  15
BRANCH  14  20
ATOM     20  C   UNL     1       6.971   5.506  16.724  0.00  0.00    +0.000 A 
ATOM     21  C   UNL     1       7.663   5.413  17.917  0.00  0.00    +0.000 A 
ATOM     22  C   UNL     1       7.884   6.735  18.361  0.00  0.00    +0.000 A 
ATOM     23  C   UNL     1       7.318   7.555  17.415  0.00  0.00    +0.000 A 
ATOM     24  O   UNL     1       6.759   6.821  16.419  0.00  0.00    +0.000 OA
ENDBRANCH  14  20
ENDBRANCH  13  14
ENDBRANCH   3  13
TORSDOF 6
ENDMDL
MODEL 7
REMARK VINA RESULT:      -7.7      1.721      3.903
REMARK  Name = 
REMARK  6 active torsions:
REMARK  status: ('A' for Active; 'I' for Inactive)
REMARK    1  A    between atoms: C_2  and  C_3
REMARK    2  A    between atoms: C_3  and  N_4
REMARK    3  A    between atoms: N_11  and  C_12
REMARK    4  A    between atoms: C_12  and  C_13
REMARK    5  A    between atoms: C_13  and  C_14
REMARK    6  A    between atoms: C_13  and  C_19
REMARK                            x       y       z     vdW  Elec       q    Type
REMARK                         _______ _______ _______ _____ _____    ______ ____
ROOT
ATOM      1  O   UNL     1       2.491   3.223  16.343  0.00  0.00    +0.000 OA
ATOM      2  C   UNL     1       2.625   3.918  17.344  0.00  0.00    +0.000 C 
ATOM      3  N   UNL     1       3.837   4.410  17.769  0.00  0.00    +0.000 N 
ATOM      4  H   UNL     1       3.826   5.250  18.351  0.00  0.00    +0.000 HD
ENDROOT
BRANCH   2   5
ATOM      5  C   UNL     1       1.452   4.403  18.188  0.00  0.00    +0.000 C 
BRANCH   5   6
ATOM      6  N   UNL     1       1.595   3.892  19.533  0.00  0.00    +0.000 N 
ATOM      7  C   UNL     1       2.290   4.526  20.516  0.00  0.00    +0.000 C 
ATOM      8  O   UNL     1       2.899   5.581  20.423  0.00  0.00    +0.000 OA
ATOM      9  C   UNL     1       2.136   3.750  21.790  0.00  0.00    +0.000 C 
ATOM     10  C   UNL     1       1.410   2.482  21.379  0.00  0.00    +0.000 C 
ATOM     11  C   UNL     1       1.059   2.708  19.939  0.00  0.00    +0.000 C 
ATOM     12  O   UNL     1       0.417   1.931  19.249  0.00  0.00    +0.000 OA
ENDBRANCH   5   6
ENDBRANCH   2   5
BRANCH   3  13
ATOM     13  C   UNL     1       5.092   4.134  17.080  0.00  0.00    +0.000 C 
BRANCH  13  14
ATOM     14  C   UNL     1       5.621   5.335  16.261  0.00  0.00    +0.000 C 
BRANCH  14  15
ATOM     15  C   UNL     1       6.597   6.157  17.055  0.00  0.00    +0.000 A 
ATOM     16  C   UNL     1       7.488   5.865  18.068  0.00  0.00    +0.000 A 
ATOM     17  C   UNL     1       8.141   7.081  18.390  0.00  0.00    +0.000 A 
ATOM     18  C   UNL     1       7.612   8.037  17.559  0.00  0.00    +0.000 A 
ATOM     19  O   UNL     1       6.672   7.489  16.750  0.00  0.00    +0.000 OA
ENDBRANCH  14  15
BRANCH  14  20
ATOM     20  C   UNL     1       6.193   4.883  14.949  0.00  0.00    +0.000 A 
ATOM     21  C   UNL     1       5.779   3.994  13.975  0.00  0.00    +0.000 A 
ATOM     22  C   UNL     1       6.754   4.028  12.954  0.00  0.00    +0.000 A 
ATOM     23  C   UNL     1       7.702   4.935  13.362  0.00  0.00    +0.000 A 
ATOM     24  O   UNL     1       7.375   5.458  14.572  0.00  0.00    +0.000 OA
ENDBRANCH  14  20
ENDBRANCH  13  14
ENDBRANCH   3  13
TORSDOF 6
ENDMDL
MODEL 8
REMARK VINA RESULT:      -7.7      1.855      3.021
REMARK  Name = 
REMARK  6 active torsions:
REMARK  status: ('A' for Active; 'I' for Inactive)
REMARK    1  A    between atoms: C_2  and  C_3
REMARK    2  A    between atoms: C_3  and  N_4
REMARK    3  A    between atoms: N_11  and  C_12
REMARK    4  A    between atoms: C_12  and  C_13
REMARK    5  A    between atoms: C_13  and  C_14
REMARK    6  A    between atoms: C_13  and  C_19
REMARK                            x       y       z     vdW  Elec       q    Type
REMARK                         _______ _______ _______ _____ _____    ______ ____
ROOT
ATOM      1  O   UNL     1       2.808   2.389  17.081  0.00  0.00    +0.000 OA
ATOM      2  C   UNL     1       3.651   2.807  17.868  0.00  0.00    +0.000 C 
ATOM      3  N   UNL     1       4.805   3.442  17.475  0.00  0.00    +0.000 N 
ATOM      4  H   UNL     1       5.249   4.071  18.148  0.00  0.00    +0.000 HD
ENDROOT
BRANCH   2   5
ATOM      5  C   UNL     1       3.479   2.757  19.381  0.00  0.00    +0.000 C 
BRANCH   5   6
ATOM      6  N   UNL     1       2.747   3.928  19.812  0.00  0.00    +0.000 N 
ATOM      7  C   UNL     1       3.284   5.176  19.877  0.00  0.00    +0.000 C 
ATOM      8  O   UNL     1       4.431   5.499  19.611  0.00  0.00    +0.000 OA
ATOM      9  C   UNL     1       2.206   6.142  20.269  0.00  0.00    +0.000 C 
ATOM     10  C   UNL     1       1.011   5.267  20.602  0.00  0.00    +0.000 C 
ATOM     11  C   UNL     1       1.447   3.886  20.214  0.00  0.00    +0.000 C 
ATOM     12  O   UNL     1       0.743   2.889  20.280  0.00  0.00    +0.000 OA
ENDBRANCH   5   6
ENDBRANCH   2   5
BRANCH   3  13
ATOM     13  C   UNL     1       5.153   3.666  16.077  0.00  0.00    +0.000 C 
BRANCH  13  14
ATOM     14  C   UNL     1       6.618   4.117  15.871  0.00  0.00    +0.000 C 
BRANCH  14  15
ATOM     15  C   UNL     1       6.913   4.393  14.424  0.00  0.00    +0.000 A 
ATOM     16  C   UNL     1       6.398   3.911  13.237  0.00  0.00    +0.000 A 
ATOM     17  C   UNL     1       7.092   4.581  12.198  0.00  0.00    +0.000 A 
ATOM     18  C   UNL     1       7.985   5.425  12.810  0.00  0.00    +0.000 A 
ATOM     19  O   UNL     1       7.889   5.315  14.158  0.00  0.00    +0.000 OA
ENDBRANCH  14  15
BRANCH  14  20
ATOM     20  C   UNL     1       6.951   5.287  16.752  0.00  0.00    +0.000 A 
ATOM     21  C   UNL     1       7.700   5.439  17.903  0.00  0.00    +0.000 A 
ATOM     22  C   UNL     1       7.650   6.810  18.240  0.00  0.00    +0.000 A 
ATOM     23  C   UNL     1       6.878   7.412  17.277  0.00  0.00    +0.000 A 
ATOM     24  O   UNL     1       6.445   6.498  16.371  0.00  0.00    +0.000 OA
ENDBRANCH  14  20
ENDBRANCH  13  14
ENDBRANCH   3  13
TORSDOF 6
ENDMDL
MODEL 9
REMARK VINA RESULT:      -7.6      1.766      2.818
REMARK  Name = 
REMARK  6 active torsions:
REMARK  status: ('A' for Active; 'I' for Inactive)
REMARK    1  A    between atoms: C_2  and  C_3
REMARK    2  A    between atoms: C_3  and  N_4
REMARK    3  A    between atoms: N_11  and  C_12
REMARK    4  A    between atoms: C_12  and  C_13
REMARK    5  A    between atoms: C_13  and  C_14
REMARK    6  A    between atoms: C_13  and  C_19
REMARK                            x       y       z     vdW  Elec       q    Type
REMARK                         _______ _______ _______ _____ _____    ______ ____
ROOT
ATOM      1  O   UNL     1       3.521   1.699  17.485  0.00  0.00    +0.000 OA
ATOM      2  C   UNL     1       4.103   2.531  18.173  0.00  0.00    +0.000 C 
ATOM      3  N   UNL     1       4.916   3.511  17.652  0.00  0.00    +0.000 N 
ATOM      4  H   UNL     1       5.051   4.356  18.211  0.00  0.00    +0.000 HD
ENDROOT
BRANCH   2   5
ATOM      5  C   UNL     1       3.922   2.640  19.682  0.00  0.00    +0.000 C 
BRANCH   5   6
ATOM      6  N   UNL     1       2.934   3.657  19.966  0.00  0.00    +0.000 N 
ATOM      7  C   UNL     1       1.626   3.392  20.233  0.00  0.00    +0.000 C 
ATOM      8  O   UNL     1       1.088   2.296  20.257  0.00  0.00    +0.000 OA
ATOM      9  C   UNL     1       0.935   4.679  20.572  0.00  0.00    +0.000 C 
ATOM     10  C   UNL     1       1.969   5.754  20.291  0.00  0.00    +0.000 C 
ATOM     11  C   UNL     1       3.219   4.989  19.975  0.00  0.00    +0.000 C 
ATOM     12  O   UNL     1       4.305   5.497  19.739  0.00  0.00    +0.000 OA
ENDBRANCH   5   6
ENDBRANCH   2   5
BRANCH   3  13
ATOM     13  C   UNL     1       5.184   3.645  16.226  0.00  0.00    +0.000 C 
BRANCH  13  14
ATOM     14  C   UNL     1       6.551   4.299  15.916  0.00  0.00    +0.000 C 
BRANCH  14  15
ATOM     15  C   UNL     1       6.799   4.388  14.436  0.00  0.00    +0.000 A 
ATOM     16  C   UNL     1       6.274   3.731  13.340  0.00  0.00    +0.000 A 
ATOM     17  C   UNL     1       6.914   4.280  12.201  0.00  0.00    +0.000 A 
ATOM     18  C   UNL     1       7.786   5.232  12.666  0.00  0.00    +0.000 A 
ATOM     19  O   UNL     1       7.728   5.301  14.019  0.00  0.00    +0.000 OA
ENDBRANCH  14  15
BRANCH  14  20
ATOM     20  C   UNL     1       6.678   5.633  16.594  0.00  0.00    +0.000 A 
ATOM     21  C   UNL     1       5.855   6.738  16.700  0.00  0.00    +0.000 A 
ATOM     22  C   UNL     1       6.540   7.678  17.501  0.00  0.00    +0.000 A 
ATOM     23  C   UNL     1       7.736   7.092  17.838  0.00  0.00    +0.000 A 
ATOM     24  O   UNL     1       7.833   5.853  17.290  0.00  0.00    +0.000 OA
ENDBRANCH  14  20
ENDBRANCH  13  14
ENDBRANCH   3  13
TORSDOF 6
ENDMDL
