MODEL 1
REMARK VINA RESULT:      -7.9      0.000      0.000
REMARK  Name = 
REMARK  13 active torsions:
REMARK  status: ('A' for Active; 'I' for Inactive)
REMARK    1  A    between atoms: C_1  and  C_2
REMARK    2  A    between atoms: C_2  and  N_3
REMARK    3  A    between atoms: N_3  and  C_4
REMARK    4  A    between atoms: N_3  and  C_6
REMARK    5  A    between atoms: C_4  and  C_5
REMARK    6  A    between atoms: C_6  and  C_7
REMARK    7  A    between atoms: C_7  and  C_8
REMARK    8  A    between atoms: C_8  and  N_9
REMARK    9  A    between atoms: C_14  and  C_15
REMARK   10  A    between atoms: C_14  and  O_16
REMARK   11  A    between atoms: O_16  and  C_17
REMARK   12  A    between atoms: C_17  and  C_19
REMARK   13  A    between atoms: C_29  and  C_30
REMARK                            x       y       z     vdW  Elec       q    Type
REMARK                         _______ _______ _______ _____ _____    ______ ____
ROOT
ATOM      1  N   UNL     1       2.924   6.675  18.389  0.00  0.00    +0.000 N 
ATOM      2  C   UNL     1       2.618   8.007  18.062  0.00  0.00    +0.000 C 
ATOM      3  C   UNL     1       1.881   8.818  18.841  0.00  0.00    +0.000 C 
ATOM      4  C   UNL     1       1.584  10.212  18.413  0.00  0.00    +0.000 C 
ATOM      5  O   UNL     1       2.233  10.768  17.531  0.00  0.00    +0.000 OA
ATOM      6  C   UNL     1       0.346  10.847  19.056  0.00  0.00    +0.000 C 
ATOM      7  C   UNL     1      -0.833  10.384  18.174  0.00  0.00    +0.000 C 
ATOM      8  C   UNL     1       0.096  10.351  20.490  0.00  0.00    +0.000 C 
ATOM      9  O   UNL     1      -0.487  11.024  21.342  0.00  0.00    +0.000 OA
ATOM     10  C   UNL     1       0.512   8.976  20.857  0.00  0.00    +0.000 C 
ATOM     11  C   UNL     1       1.329   8.263  20.071  0.00  0.00    +0.000 C 
ATOM     12  C   UNL     1       1.703   6.904  20.458  0.00  0.00    +0.000 C 
ATOM     13  C   UNL     1       2.477   6.151  19.638  0.00  0.00    +0.000 C 
ENDROOT
BRANCH  13  14
ATOM     14  C   UNL     1       2.816   4.814  20.060  0.00  0.00    +0.000 A 
ATOM     15  C   UNL     1       3.912   4.047  19.551  0.00  0.00    +0.000 A 
ATOM     16  C   UNL     1       4.073   2.861  20.233  0.00  0.00    +0.000 A 
ATOM     17  S   UNL     1       2.831   2.611  21.382  0.00  0.00    +0.000 S 
ATOM     18  C   UNL     1       2.111   4.124  21.022  0.00  0.00    +0.000 A 
ENDBRANCH  13  14
BRANCH   1  19
ATOM     19  C   UNL     1       3.725   5.883  17.425  0.00  0.00    +0.000 C 
BRANCH  19  20
ATOM     20  C   UNL     1       4.662   6.743  16.585  0.00  0.00    +0.000 C 
BRANCH  20  21
ATOM     21  C   UNL     1       6.153   6.503  16.848  0.00  0.00    +0.000 C 
BRANCH  21  22
ATOM     22  N   UNL     1       6.542   5.090  16.718  0.00  0.00    +0.000 NA
BRANCH  22  24
ATOM     23  C   UNL     1       5.999   4.052  14.484  0.00  0.00    +0.000 C 
ATOM     24  C   UNL     1       6.991   4.798  15.351  0.00  0.00    +0.000 C 
ENDBRANCH  22  24
BRANCH  22  25
ATOM     25  C   UNL     1       7.499   4.696  17.769  0.00  0.00    +0.000 C 
ATOM     26  C   UNL     1       7.612   5.636  18.968  0.00  0.00    +0.000 C 
ENDBRANCH  22  25
ENDBRANCH  21  22
ENDBRANCH  20  21
ENDBRANCH  19  20
ENDBRANCH   1  19
BRANCH   6  27
ATOM     27  O   UNL     1       0.373  12.280  19.003  0.00  0.00    +0.000 OA
BRANCH  27  28
ATOM     28  C   UNL     1       1.547  12.849  19.417  0.00  0.00    +0.000 C 
ATOM     29  O   UNL     1       2.131  12.550  20.450  0.00  0.00    +0.000 OA
BRANCH  28  30
ATOM     30  C   UNL     1       1.990  13.918  18.440  0.00  0.00    +0.000 C 
ATOM     31  C   UNL     1       1.652  15.343  18.881  0.00  0.00    +0.000 C 
ATOM     32  C   UNL     1       2.571  16.211  18.030  0.00  0.00    +0.000 C 
ATOM     33  C   UNL     1       3.822  15.369  17.785  0.00  0.00    +0.000 C 
ATOM     34  C   UNL     1       3.509  13.972  18.315  0.00  0.00    +0.000 C 
ENDBRANCH  28  30
ENDBRANCH  27  28
ENDBRANCH   6  27
TORSDOF 10
ENDMDL
MODEL 2
REMARK VINA RESULT:      -7.9      1.900      2.700
REMARK  Name = 
REMARK  13 active torsions:
REMARK  status: ('A' for Active; 'I' for Inactive)
REMARK    1  A    between atoms: C_1  and  C_2
REMARK    2  A    between atoms: C_2  and  N_3
REMARK    3  A    between atoms: N_3  and  C_4
REMARK    4  A    between atoms: N_3  and  C_6
REMARK    5  A    between atoms: C_4  and  C_5
REMARK    6  A    between atoms: C_6  and  C_7
REMARK    7  A    between atoms: C_7  and  C_8
REMARK    8  A    between atoms: C_8  and  N_9
REMARK    9  A    between atoms: C_14  and  C_15
REMARK   10  A    between atoms: C_14  and  O_16
REMARK   11  A    between atoms: O_16  and  C_17
REMARK   12  A    between atoms: C_17  and  C_19
REMARK   13  A    between atoms: C_29  and  C_30
REMARK                            x       y       z     vdW  Elec       q    Type
REMARK                         _______ _______ _______ _____ _____    ______ ____
ROOT
ATOM      1  N   UNL     1       2.841   6.612  18.488  0.00  0.00    +0.000 N 
ATOM      2  C   UNL     1       2.475   7.956  18.303  0.00  0.00    +0.000 C 
ATOM      3  C   UNL     1       1.816   8.684  19.220  0.00  0.00    +0.000 C 
ATOM      4  C   UNL     1       1.446  10.098  18.940  0.00  0.00    +0.000 C 
ATOM      5  O   UNL     1       1.980  10.737  18.037  0.00  0.00    +0.000 OA
ATOM      6  C   UNL     1       0.276  10.648  19.764  0.00  0.00    +0.000 C 
ATOM      7  C   UNL     1      -0.985  10.221  18.985  0.00  0.00    +0.000 C 
ATOM      8  C   UNL     1       0.200  10.037  21.174  0.00  0.00    +0.000 C 
ATOM      9  O   UNL     1      -0.295  10.627  22.135  0.00  0.00    +0.000 OA
ATOM     10  C   UNL     1       0.681   8.651  21.383  0.00  0.00    +0.000 C 
ATOM     11  C   UNL     1       1.418   8.022  20.457  0.00  0.00    +0.000 C 
ATOM     12  C   UNL     1       1.859   6.648  20.691  0.00  0.00    +0.000 C 
ATOM     13  C   UNL     1       2.548   5.982  19.734  0.00  0.00    +0.000 C 
ENDROOT
BRANCH  13  14
ATOM     14  C   UNL     1       2.959   4.627  20.009  0.00  0.00    +0.000 A 
ATOM     15  C   UNL     1       2.208   3.681  20.778  0.00  0.00    +0.000 A 
ATOM     16  C   UNL     1       2.781   2.429  20.760  0.00  0.00    +0.000 A 
ATOM     17  S   UNL     1       4.282   2.425  19.940  0.00  0.00    +0.000 S 
ATOM     18  C   UNL     1       4.138   4.086  19.543  0.00  0.00    +0.000 A 
ENDBRANCH  13  14
BRANCH   1  19
ATOM     19  C   UNL     1       3.543   5.918  17.382  0.00  0.00    +0.000 C 
BRANCH  19  20
ATOM     20  C   UNL     1       4.586   6.794  16.698  0.00  0.00    +0.000 C 
BRANCH  20  21
ATOM     21  C   UNL     1       6.029   6.535  17.147  0.00  0.00    +0.000 C 
BRANCH  21  22
ATOM     22  N   UNL     1       6.483   5.164  16.867  0.00  0.00    +0.000 NA
BRANCH  22  24
ATOM     23  C   UNL     1       6.158   3.900  14.709  0.00  0.00    +0.000 C 
ATOM     24  C   UNL     1       6.855   5.018  15.455  0.00  0.00    +0.000 C 
ENDBRANCH  22  24
BRANCH  22  25
ATOM     25  C   UNL     1       7.527   4.738  17.818  0.00  0.00    +0.000 C 
ATOM     26  C   UNL     1       7.803   5.681  18.987  0.00  0.00    +0.000 C 
ENDBRANCH  22  25
ENDBRANCH  21  22
ENDBRANCH  20  21
ENDBRANCH  19  20
ENDBRANCH   1  19
BRANCH   6  27
ATOM     27  O   UNL     1       0.270  12.080  19.822  0.00  0.00    +0.000 OA
BRANCH  27  28
ATOM     28  C   UNL     1      -0.849  12.673  19.299  0.00  0.00    +0.000 C 
ATOM     29  O   UNL     1      -1.054  12.822  18.103  0.00  0.00    +0.000 OA
BRANCH  28  30
ATOM     30  C   UNL     1      -1.763  13.146  20.410  0.00  0.00    +0.000 C 
ATOM     31  C   UNL     1      -1.832  14.666  20.555  0.00  0.00    +0.000 C 
ATOM     32  C   UNL     1      -3.107  14.894  21.359  0.00  0.00    +0.000 C 
ATOM     33  C   UNL     1      -4.044  13.751  20.977  0.00  0.00    +0.000 C 
ATOM     34  C   UNL     1      -3.219  12.783  20.133  0.00  0.00    +0.000 C 
ENDBRANCH  28  30
ENDBRANCH  27  28
ENDBRANCH   6  27
TORSDOF 10
ENDMDL
MODEL 3
REMARK VINA RESULT:      -7.9      2.882      4.955
REMARK  Name = 
REMARK  13 active torsions:
REMARK  status: ('A' for Active; 'I' for Inactive)
REMARK    1  A    between atoms: C_1  and  C_2
REMARK    2  A    between atoms: C_2  and  N_3
REMARK    3  A    between atoms: N_3  and  C_4
REMARK    4  A    between atoms: N_3  and  C_6
REMARK    5  A    between atoms: C_4  and  C_5
REMARK    6  A    between atoms: C_6  and  C_7
REMARK    7  A    between atoms: C_7  and  C_8
REMARK    8  A    between atoms: C_8  and  N_9
REMARK    9  A    between atoms: C_14  and  C_15
REMARK   10  A    between atoms: C_14  and  O_16
REMARK   11  A    between atoms: O_16  and  C_17
REMARK   12  A    between atoms: C_17  and  C_19
REMARK   13  A    between atoms: C_29  and  C_30
REMARK                            x       y       z     vdW  Elec       q    Type
REMARK                         _______ _______ _______ _____ _____    ______ ____
ROOT
ATOM      1  N   UNL     1       4.061   5.812  19.099  0.00  0.00    +0.000 N 
ATOM      2  C   UNL     1       3.091   6.350  19.962  0.00  0.00    +0.000 C 
ATOM      3  C   UNL     1       2.265   7.356  19.625  0.00  0.00    +0.000 C 
ATOM      4  C   UNL     1       1.277   7.883  20.605  0.00  0.00    +0.000 C 
ATOM      5  O   UNL     1       0.958   7.247  21.605  0.00  0.00    +0.000 OA
ATOM      6  C   UNL     1       0.791   9.313  20.343  0.00  0.00    +0.000 C 
ATOM      7  C   UNL     1       1.851  10.214  21.011  0.00  0.00    +0.000 C 
ATOM      8  C   UNL     1       0.739   9.662  18.845  0.00  0.00    +0.000 C 
ATOM      9  O   UNL     1      -0.034  10.500  18.378  0.00  0.00    +0.000 OA
ATOM     10  C   UNL     1       1.702   9.015  17.924  0.00  0.00    +0.000 C 
ATOM     11  C   UNL     1       2.423   7.952  18.304  0.00  0.00    +0.000 C 
ATOM     12  C   UNL     1       3.376   7.352  17.372  0.00  0.00    +0.000 C 
ATOM     13  C   UNL     1       4.157   6.317  17.768  0.00  0.00    +0.000 C 
ENDROOT
BRANCH  13  14
ATOM     14  C   UNL     1       5.085   5.761  16.816  0.00  0.00    +0.000 A 
ATOM     15  C   UNL     1       4.760   4.771  15.834  0.00  0.00    +0.000 A 
ATOM     16  C   UNL     1       5.810   4.528  14.977  0.00  0.00    +0.000 A 
ATOM     17  S   UNL     1       7.220   5.382  15.436  0.00  0.00    +0.000 S 
ATOM     18  C   UNL     1       6.410   6.136  16.744  0.00  0.00    +0.000 A 
ENDBRANCH  13  14
BRANCH   1  19
ATOM     19  C   UNL     1       4.925   4.721  19.608  0.00  0.00    +0.000 C 
BRANCH  19  20
ATOM     20  C   UNL     1       4.586   3.364  19.002  0.00  0.00    +0.000 C 
BRANCH  20  21
ATOM     21  C   UNL     1       3.711   2.471  19.889  0.00  0.00    +0.000 C 
BRANCH  21  22
ATOM     22  N   UNL     1       2.320   2.375  19.419  0.00  0.00    +0.000 NA
BRANCH  22  24
ATOM     23  C   UNL     1       1.541   2.834  21.774  0.00  0.00    +0.000 C 
ATOM     24  C   UNL     1       1.423   3.139  20.296  0.00  0.00    +0.000 C 
ENDBRANCH  22  24
BRANCH  22  25
ATOM     25  C   UNL     1       2.211   2.719  17.989  0.00  0.00    +0.000 C 
ATOM     26  C   UNL     1       1.391   3.963  17.653  0.00  0.00    +0.000 C 
ENDBRANCH  22  25
ENDBRANCH  21  22
ENDBRANCH  20  21
ENDBRANCH  19  20
ENDBRANCH   1  19
BRANCH   6  27
ATOM     27  O   UNL     1      -0.461   9.594  20.982  0.00  0.00    +0.000 OA
BRANCH  27  28
ATOM     28  C   UNL     1      -0.372  10.365  22.110  0.00  0.00    +0.000 C 
ATOM     29  O   UNL     1       0.236  10.042  23.120  0.00  0.00    +0.000 OA
BRANCH  28  30
ATOM     30  C   UNL     1      -1.164  11.645  21.938  0.00  0.00    +0.000 C 
ATOM     31  C   UNL     1      -2.164  11.916  23.062  0.00  0.00    +0.000 C 
ATOM     32  C   UNL     1      -2.465  13.403  22.926  0.00  0.00    +0.000 C 
ATOM     33  C   UNL     1      -1.190  14.033  22.372  0.00  0.00    +0.000 C 
ATOM     34  C   UNL     1      -0.265  12.876  22.004  0.00  0.00    +0.000 C 
ENDBRANCH  28  30
ENDBRANCH  27  28
ENDBRANCH   6  27
TORSDOF 10
ENDMDL
MODEL 4
REMARK VINA RESULT:      -7.8      0.907      1.679
REMARK  Name = 
REMARK  13 active torsions:
REMARK  status: ('A' for Active; 'I' for Inactive)
REMARK    1  A    between atoms: C_1  and  C_2
REMARK    2  A    between atoms: C_2  and  N_3
REMARK    3  A    between atoms: N_3  and  C_4
REMARK    4  A    between atoms: N_3  and  C_6
REMARK    5  A    between atoms: C_4  and  C_5
REMARK    6  A    between atoms: C_6  and  C_7
REMARK    7  A    between atoms: C_7  and  C_8
REMARK    8  A    between atoms: C_8  and  N_9
REMARK    9  A    between atoms: C_14  and  C_15
REMARK   10  A    between atoms: C_14  and  O_16
REMARK   11  A    between atoms: O_16  and  C_17
REMARK   12  A    between atoms: C_17  and  C_19
REMARK   13  A    between atoms: C_29  and  C_30
REMARK                            x       y       z     vdW  Elec       q    Type
REMARK                         _______ _______ _______ _____ _____    ______ ____
ROOT
ATOM      1  N   UNL     1       2.267   6.991  18.747  0.00  0.00    +0.000 N 
ATOM      2  C   UNL     1       2.032   8.361  18.544  0.00  0.00    +0.000 C 
ATOM      3  C   UNL     1       1.497   9.174  19.472  0.00  0.00    +0.000 C 
ATOM      4  C   UNL     1       1.261  10.612  19.172  0.00  0.00    +0.000 C 
ATOM      5  O   UNL     1       1.813  11.173  18.230  0.00  0.00    +0.000 OA
ATOM      6  C   UNL     1       0.195  11.297  20.035  0.00  0.00    +0.000 C 
ATOM      7  C   UNL     1      -1.140  10.988  19.327  0.00  0.00    +0.000 C 
ATOM      8  C   UNL     1       0.125  10.727  21.462  0.00  0.00    +0.000 C 
ATOM      9  O   UNL     1      -0.259  11.386  22.430  0.00  0.00    +0.000 OA
ATOM     10  C   UNL     1       0.470   9.304  21.685  0.00  0.00    +0.000 C 
ATOM     11  C   UNL     1       1.093   8.583  20.742  0.00  0.00    +0.000 C 
ATOM     12  C   UNL     1       1.401   7.176  20.992  0.00  0.00    +0.000 C 
ATOM     13  C   UNL     1       1.971   6.421  20.021  0.00  0.00    +0.000 C 
ENDROOT
BRANCH  13  14
ATOM     14  C   UNL     1       2.253   5.037  20.311  0.00  0.00    +0.000 A 
ATOM     15  C   UNL     1       1.289   4.079  20.760  0.00  0.00    +0.000 A 
ATOM     16  C   UNL     1       1.814   2.808  20.826  0.00  0.00    +0.000 A 
ATOM     17  S   UNL     1       3.491   2.792  20.486  0.00  0.00    +0.000 S 
ATOM     18  C   UNL     1       3.506   4.478  20.178  0.00  0.00    +0.000 A 
ENDBRANCH  13  14
BRANCH   1  19
ATOM     19  C   UNL     1       2.839   6.205  17.628  0.00  0.00    +0.000 C 
BRANCH  19  20
ATOM     20  C   UNL     1       4.199   6.722  17.174  0.00  0.00    +0.000 C 
BRANCH  20  21
ATOM     21  C   UNL     1       5.286   5.647  17.066  0.00  0.00    +0.000 C 
BRANCH  21  22
ATOM     22  N   UNL     1       6.485   6.107  16.348  0.00  0.00    +0.000 NA
BRANCH  22  24
ATOM     23  C   UNL     1       7.631   6.052  18.595  0.00  0.00    +0.000 C 
ATOM     24  C   UNL     1       7.425   6.757  17.270  0.00  0.00    +0.000 C 
ENDBRANCH  22  24
BRANCH  22  25
ATOM     25  C   UNL     1       7.076   5.024  15.539  0.00  0.00    +0.000 C 
ATOM     26  C   UNL     1       6.095   4.050  14.892  0.00  0.00    +0.000 C 
ENDBRANCH  22  25
ENDBRANCH  21  22
ENDBRANCH  20  21
ENDBRANCH  19  20
ENDBRANCH   1  19
BRANCH   6  27
ATOM     27  O   UNL     1       0.339  12.724  20.056  0.00  0.00    +0.000 OA
BRANCH  27  28
ATOM     28  C   UNL     1       1.626  13.171  20.189  0.00  0.00    +0.000 C 
ATOM     29  O   UNL     1       2.372  12.859  21.106  0.00  0.00    +0.000 OA
BRANCH  28  30
ATOM     30  C   UNL     1       1.972  14.128  19.067  0.00  0.00    +0.000 C 
ATOM     31  C   UNL     1       1.589  15.582  19.348  0.00  0.00    +0.000 C 
ATOM     32  C   UNL     1       2.426  16.374  18.351  0.00  0.00    +0.000 C 
ATOM     33  C   UNL     1       3.701  15.561  18.146  0.00  0.00    +0.000 C 
ATOM     34  C   UNL     1       3.480  14.229  18.857  0.00  0.00    +0.000 C 
ENDBRANCH  28  30
ENDBRANCH  27  28
ENDBRANCH   6  27
TORSDOF 10
ENDMDL
MODEL 5
REMARK VINA RESULT:      -7.8      1.823      2.763
REMARK  Name = 
REMARK  13 active torsions:
REMARK  status: ('A' for Active; 'I' for Inactive)
REMARK    1  A    between atoms: C_1  and  C_2
REMARK    2  A    between atoms: C_2  and  N_3
REMARK    3  A    between atoms: N_3  and  C_4
REMARK    4  A    between atoms: N_3  and  C_6
REMARK    5  A    between atoms: C_4  and  C_5
REMARK    6  A    between atoms: C_6  and  C_7
REMARK    7  A    between atoms: C_7  and  C_8
REMARK    8  A    between atoms: C_8  and  N_9
REMARK    9  A    between atoms: C_14  and  C_15
REMARK   10  A    between atoms: C_14  and  O_16
REMARK   11  A    between atoms: O_16  and  C_17
REMARK   12  A    between atoms: C_17  and  C_19
REMARK   13  A    between atoms: C_29  and  C_30
REMARK                            x       y       z     vdW  Elec       q    Type
REMARK                         _______ _______ _______ _____ _____    ______ ____
ROOT
ATOM      1  N   UNL     1       2.341   6.778  18.745  0.00  0.00    +0.000 N 
ATOM      2  C   UNL     1       2.188   8.155  18.513  0.00  0.00    +0.000 C 
ATOM      3  C   UNL     1       1.647   9.008  19.401  0.00  0.00    +0.000 C 
ATOM      4  C   UNL     1       1.502  10.451  19.071  0.00  0.00    +0.000 C 
ATOM      5  O   UNL     1       2.131  10.969  18.153  0.00  0.00    +0.000 OA
ATOM      6  C   UNL     1       0.428  11.203  19.867  0.00  0.00    +0.000 C 
ATOM      7  C   UNL     1      -0.881  10.951  19.091  0.00  0.00    +0.000 C 
ATOM      8  C   UNL     1       0.254  10.659  21.295  0.00  0.00    +0.000 C 
ATOM      9  O   UNL     1      -0.147  11.351  22.232  0.00  0.00    +0.000 OA
ATOM     10  C   UNL     1       0.513   9.223  21.553  0.00  0.00    +0.000 C 
ATOM     11  C   UNL     1       1.146   8.457  20.655  0.00  0.00    +0.000 C 
ATOM     12  C   UNL     1       1.368   7.040  20.938  0.00  0.00    +0.000 C 
ATOM     13  C   UNL     1       1.950   6.243  20.009  0.00  0.00    +0.000 C 
ENDROOT
BRANCH  13  14
ATOM     14  C   UNL     1       2.144   4.851  20.331  0.00  0.00    +0.000 A 
ATOM     15  C   UNL     1       1.094   3.895  20.510  0.00  0.00    +0.000 A 
ATOM     16  C   UNL     1       1.580   2.618  20.677  0.00  0.00    +0.000 A 
ATOM     17  S   UNL     1       3.289   2.590  20.758  0.00  0.00    +0.000 S 
ATOM     18  C   UNL     1       3.388   4.281  20.497  0.00  0.00    +0.000 A 
ENDBRANCH  13  14
BRANCH   1  19
ATOM     19  C   UNL     1       2.930   5.947  17.669  0.00  0.00    +0.000 C 
BRANCH  19  20
ATOM     20  C   UNL     1       4.453   6.024  17.626  0.00  0.00    +0.000 C 
BRANCH  20  21
ATOM     21  C   UNL     1       5.035   6.350  16.246  0.00  0.00    +0.000 C 
BRANCH  21  22
ATOM     22  N   UNL     1       6.499   6.215  16.190  0.00  0.00    +0.000 NA
BRANCH  22  24
ATOM     23  C   UNL     1       7.725   7.959  17.538  0.00  0.00    +0.000 C 
ATOM     24  C   UNL     1       7.103   6.580  17.478  0.00  0.00    +0.000 C 
ENDBRANCH  22  24
BRANCH  22  25
ATOM     25  C   UNL     1       6.898   4.887  15.686  0.00  0.00    +0.000 C 
ATOM     26  C   UNL     1       6.292   4.461  14.350  0.00  0.00    +0.000 C 
ENDBRANCH  22  25
ENDBRANCH  21  22
ENDBRANCH  20  21
ENDBRANCH  19  20
ENDBRANCH   1  19
BRANCH   6  27
ATOM     27  O   UNL     1       0.644  12.620  19.877  0.00  0.00    +0.000 OA
BRANCH  27  28
ATOM     28  C   UNL     1      -0.287  13.350  19.187  0.00  0.00    +0.000 C 
ATOM     29  O   UNL     1      -0.485  13.252  17.984  0.00  0.00    +0.000 OA
BRANCH  28  30
ATOM     30  C   UNL     1      -0.998  14.312  20.115  0.00  0.00    +0.000 C 
ATOM     31  C   UNL     1      -2.256  13.736  20.767  0.00  0.00    +0.000 C 
ATOM     32  C   UNL     1      -2.503  14.659  21.953  0.00  0.00    +0.000 C 
ATOM     33  C   UNL     1      -1.123  15.145  22.391  0.00  0.00    +0.000 C 
ATOM     34  C   UNL     1      -0.141  14.664  21.327  0.00  0.00    +0.000 C 
ENDBRANCH  28  30
ENDBRANCH  27  28
ENDBRANCH   6  27
TORSDOF 10
ENDMDL
MODEL 6
REMARK VINA RESULT:      -7.7      2.102      3.135
REMARK  Name = 
REMARK  13 active torsions:
REMARK  status: ('A' for Active; 'I' for Inactive)
REMARK    1  A    between atoms: C_1  and  C_2
REMARK    2  A    between atoms: C_2  and  N_3
REMARK    3  A    between atoms: N_3  and  C_4
REMARK    4  A    between atoms: N_3  and  C_6
REMARK    5  A    between atoms: C_4  and  C_5
REMARK    6  A    between atoms: C_6  and  C_7
REMARK    7  A    between atoms: C_7  and  C_8
REMARK    8  A    between atoms: C_8  and  N_9
REMARK    9  A    between atoms: C_14  and  C_15
REMARK   10  A    between atoms: C_14  and  O_16
REMARK   11  A    between atoms: O_16  and  C_17
REMARK   12  A    between atoms: C_17  and  C_19
REMARK   13  A    between atoms: C_29  and  C_30
REMARK                            x       y       z     vdW  Elec       q    Type
REMARK                         _______ _______ _______ _____ _____    ______ ____
ROOT
ATOM      1  N   UNL     1       2.585   6.771  18.735  0.00  0.00    +0.000 N 
ATOM      2  C   UNL     1       2.240   8.125  18.581  0.00  0.00    +0.000 C 
ATOM      3  C   UNL     1       1.557   8.831  19.498  0.00  0.00    +0.000 C 
ATOM      4  C   UNL     1       1.213  10.258  19.251  0.00  0.00    +0.000 C 
ATOM      5  O   UNL     1       1.786  10.919  18.390  0.00  0.00    +0.000 OA
ATOM      6  C   UNL     1       0.020  10.795  20.051  0.00  0.00    +0.000 C 
ATOM      7  C   UNL     1      -1.217  10.409  19.214  0.00  0.00    +0.000 C 
ATOM      8  C   UNL     1      -0.113  10.139  21.436  0.00  0.00    +0.000 C 
ATOM      9  O   UNL     1      -0.636  10.704  22.398  0.00  0.00    +0.000 OA
ATOM     10  C   UNL     1       0.344   8.742  21.617  0.00  0.00    +0.000 C 
ATOM     11  C   UNL     1       1.107   8.134  20.697  0.00  0.00    +0.000 C 
ATOM     12  C   UNL     1       1.524   6.749  20.902  0.00  0.00    +0.000 C 
ATOM     13  C   UNL     1       2.241   6.105  19.948  0.00  0.00    +0.000 C 
ENDROOT
BRANCH  13  14
ATOM     14  C   UNL     1       2.626   4.737  20.193  0.00  0.00    +0.000 A 
ATOM     15  C   UNL     1       1.818   3.763  20.863  0.00  0.00    +0.000 A 
ATOM     16  C   UNL     1       2.387   2.510  20.832  0.00  0.00    +0.000 A 
ATOM     17  S   UNL     1       3.945   2.533  20.126  0.00  0.00    +0.000 S 
ATOM     18  C   UNL     1       3.835   4.210  19.792  0.00  0.00    +0.000 A 
ENDBRANCH  13  14
BRANCH   1  19
ATOM     19  C   UNL     1       3.318   6.105  17.633  0.00  0.00    +0.000 C 
BRANCH  19  20
ATOM     20  C   UNL     1       4.465   6.949  17.088  0.00  0.00    +0.000 C 
BRANCH  20  21
ATOM     21  C   UNL     1       5.228   6.309  15.922  0.00  0.00    +0.000 C 
BRANCH  21  22
ATOM     22  N   UNL     1       6.659   6.117  16.205  0.00  0.00    +0.000 NA
BRANCH  22  24
ATOM     23  C   UNL     1       7.816   7.897  17.568  0.00  0.00    +0.000 C 
ATOM     24  C   UNL     1       6.997   6.624  17.541  0.00  0.00    +0.000 C 
ENDBRANCH  22  24
BRANCH  22  25
ATOM     25  C   UNL     1       7.074   4.723  15.960  0.00  0.00    +0.000 C 
ATOM     26  C   UNL     1       6.060   3.831  15.248  0.00  0.00    +0.000 C 
ENDBRANCH  22  25
ENDBRANCH  21  22
ENDBRANCH  20  21
ENDBRANCH  19  20
ENDBRANCH   1  19
BRANCH   6  27
ATOM     27  O   UNL     1       0.028  12.225  20.155  0.00  0.00    +0.000 OA
BRANCH  27  28
ATOM     28  C   UNL     1      -1.036  12.851  19.563  0.00  0.00    +0.000 C 
ATOM     29  O   UNL     1      -1.136  13.049  18.360  0.00  0.00    +0.000 OA
BRANCH  28  30
ATOM     30  C   UNL     1      -2.040  13.291  20.609  0.00  0.00    +0.000 C 
ATOM     31  C   UNL     1      -2.130  14.807  20.787  0.00  0.00    +0.000 C 
ATOM     32  C   UNL     1      -3.466  15.007  21.492  0.00  0.00    +0.000 C 
ATOM     33  C   UNL     1      -4.362  13.870  21.008  0.00  0.00    +0.000 C 
ATOM     34  C   UNL     1      -3.467  12.928  20.208  0.00  0.00    +0.000 C 
ENDBRANCH  28  30
ENDBRANCH  27  28
ENDBRANCH   6  27
TORSDOF 10
ENDMDL
MODEL 7
REMARK VINA RESULT:      -7.7      1.115      1.869
REMARK  Name = 
REMARK  13 active torsions:
REMARK  status: ('A' for Active; 'I' for Inactive)
REMARK    1  A    between atoms: C_1  and  C_2
REMARK    2  A    between atoms: C_2  and  N_3
REMARK    3  A    between atoms: N_3  and  C_4
REMARK    4  A    between atoms: N_3  and  C_6
REMARK    5  A    between atoms: C_4  and  C_5
REMARK    6  A    between atoms: C_6  and  C_7
REMARK    7  A    between atoms: C_7  and  C_8
REMARK    8  A    between atoms: C_8  and  N_9
REMARK    9  A    between atoms: C_14  and  C_15
REMARK   10  A    between atoms: C_14  and  O_16
REMARK   11  A    between atoms: O_16  and  C_17
REMARK   12  A    between atoms: C_17  and  C_19
REMARK   13  A    between atoms: C_29  and  C_30
REMARK                            x       y       z     vdW  Elec       q    Type
REMARK                         _______ _______ _______ _____ _____    ______ ____
ROOT
ATOM      1  N   UNL     1       2.142   6.933  18.886  0.00  0.00    +0.000 N 
ATOM      2  C   UNL     1       2.101   8.309  18.602  0.00  0.00    +0.000 C 
ATOM      3  C   UNL     1       1.573   9.228  19.429  0.00  0.00    +0.000 C 
ATOM      4  C   UNL     1       1.549  10.665  19.045  0.00  0.00    +0.000 C 
ATOM      5  O   UNL     1       2.264  11.105  18.148  0.00  0.00    +0.000 OA
ATOM      6  C   UNL     1       0.489  11.517  19.753  0.00  0.00    +0.000 C 
ATOM      7  C   UNL     1      -0.790  11.328  18.912  0.00  0.00    +0.000 C 
ATOM      8  C   UNL     1       0.198  11.039  21.186  0.00  0.00    +0.000 C 
ATOM      9  O   UNL     1      -0.204  11.790  22.075  0.00  0.00    +0.000 OA
ATOM     10  C   UNL     1       0.340   9.599  21.504  0.00  0.00    +0.000 C 
ATOM     11  C   UNL     1       0.966   8.759  20.669  0.00  0.00    +0.000 C 
ATOM     12  C   UNL     1       1.071   7.342  21.010  0.00  0.00    +0.000 C 
ATOM     13  C   UNL     1       1.645   6.473  20.142  0.00  0.00    +0.000 C 
ENDROOT
BRANCH  13  14
ATOM     14  C   UNL     1       1.722   5.083  20.520  0.00  0.00    +0.000 A 
ATOM     15  C   UNL     1       0.770   4.079  20.153  0.00  0.00    +0.000 A 
ATOM     16  C   UNL     1       1.172   2.820  20.541  0.00  0.00    +0.000 A 
ATOM     17  S   UNL     1       2.613   2.865  21.461  0.00  0.00    +0.000 S 
ATOM     18  C   UNL     1       2.745   4.564  21.283  0.00  0.00    +0.000 A 
ENDBRANCH  13  14
BRANCH   1  19
ATOM     19  C   UNL     1       2.730   6.025  17.873  0.00  0.00    +0.000 C 
BRANCH  19  20
ATOM     20  C   UNL     1       4.251   6.112  17.809  0.00  0.00    +0.000 C 
BRANCH  20  21
ATOM     21  C   UNL     1       4.790   7.031  16.707  0.00  0.00    +0.000 C 
BRANCH  21  22
ATOM     22  N   UNL     1       5.942   6.460  15.992  0.00  0.00    +0.000 NA
BRANCH  22  24
ATOM     23  C   UNL     1       7.618   7.431  17.608  0.00  0.00    +0.000 C 
ATOM     24  C   UNL     1       7.054   6.207  16.918  0.00  0.00    +0.000 C 
ENDBRANCH  22  24
BRANCH  22  25
ATOM     25  C   UNL     1       5.548   5.292  15.182  0.00  0.00    +0.000 C 
ATOM     26  C   UNL     1       6.443   4.060  15.291  0.00  0.00    +0.000 C 
ENDBRANCH  22  25
ENDBRANCH  21  22
ENDBRANCH  20  21
ENDBRANCH  19  20
ENDBRANCH   1  19
BRANCH   6  27
ATOM     27  O   UNL     1       0.804  12.916  19.730  0.00  0.00    +0.000 OA
BRANCH  27  28
ATOM     28  C   UNL     1       2.018  13.242  20.275  0.00  0.00    +0.000 C 
ATOM     29  O   UNL     1       2.554  12.622  21.182  0.00  0.00    +0.000 OA
BRANCH  28  30
ATOM     30  C   UNL     1       2.571  14.492  19.622  0.00  0.00    +0.000 C 
ATOM     31  C   UNL     1       3.256  14.242  18.278  0.00  0.00    +0.000 C 
ATOM     32  C   UNL     1       3.293  15.621  17.631  0.00  0.00    +0.000 C 
ATOM     33  C   UNL     1       2.059  16.354  18.153  0.00  0.00    +0.000 C 
ATOM     34  C   UNL     1       1.462  15.467  19.242  0.00  0.00    +0.000 C 
ENDBRANCH  28  30
ENDBRANCH  27  28
ENDBRANCH   6  27
TORSDOF 10
ENDMDL
MODEL 8
REMARK VINA RESULT:      -7.6      2.117      3.142
REMARK  Name = 
REMARK  13 active torsions:
REMARK  status: ('A' for Active; 'I' for Inactive)
REMARK    1  A    between atoms: C_1  and  C_2
REMARK    2  A    between atoms: C_2  and  N_3
REMARK    3  A    between atoms: N_3  and  C_4
REMARK    4  A    between atoms: N_3  and  C_6
REMARK    5  A    between atoms: C_4  and  C_5
REMARK    6  A    between atoms: C_6  and  C_7
REMARK    7  A    between atoms: C_7  and  C_8
REMARK    8  A    between atoms: C_8  and  N_9
REMARK    9  A    between atoms: C_14  and  C_15
REMARK   10  A    between atoms: C_14  and  O_16
REMARK   11  A    between atoms: O_16  and  C_17
REMARK   12  A    between atoms: C_17  and  C_19
REMARK   13  A    between atoms: C_29  and  C_30
REMARK                            x       y       z     vdW  Elec       q    Type
REMARK                         _______ _______ _______ _____ _____    ______ ____
ROOT
ATOM      1  N   UNL     1       2.361   7.198  18.623  0.00  0.00    +0.000 N 
ATOM      2  C   UNL     1       2.084   8.574  18.671  0.00  0.00    +0.000 C 
ATOM      3  C   UNL     1       1.516   9.187  19.724  0.00  0.00    +0.000 C 
ATOM      4  C   UNL     1       1.235  10.648  19.688  0.00  0.00    +0.000 C 
ATOM      5  O   UNL     1       1.776  11.388  18.872  0.00  0.00    +0.000 OA
ATOM      6  C   UNL     1       0.142  11.131  20.648  0.00  0.00    +0.000 C 
ATOM      7  C   UNL     1      -1.177  10.916  19.877  0.00  0.00    +0.000 C 
ATOM      8  C   UNL     1       0.080  10.308  21.946  0.00  0.00    +0.000 C 
ATOM      9  O   UNL     1      -0.333  10.767  23.013  0.00  0.00    +0.000 OA
ATOM     10  C   UNL     1       0.469   8.879  21.910  0.00  0.00    +0.000 C 
ATOM     11  C   UNL     1       1.122   8.361  20.860  0.00  0.00    +0.000 C 
ATOM     12  C   UNL     1       1.474   6.943  20.853  0.00  0.00    +0.000 C 
ATOM     13  C   UNL     1       2.075   6.396  19.768  0.00  0.00    +0.000 C 
ENDROOT
BRANCH  13  14
ATOM     14  C   UNL     1       2.399   4.991  19.805  0.00  0.00    +0.000 A 
ATOM     15  C   UNL     1       3.721   4.457  19.933  0.00  0.00    +0.000 A 
ATOM     16  C   UNL     1       3.714   3.087  20.075  0.00  0.00    +0.000 A 
ATOM     17  S   UNL     1       2.139   2.437  19.916  0.00  0.00    +0.000 S 
ATOM     18  C   UNL     1       1.450   3.995  19.727  0.00  0.00    +0.000 A 
ENDBRANCH  13  14
BRANCH   1  19
ATOM     19  C   UNL     1       2.967   6.647  17.388  0.00  0.00    +0.000 C 
BRANCH  19  20
ATOM     20  C   UNL     1       4.451   6.970  17.260  0.00  0.00    +0.000 C 
BRANCH  20  21
ATOM     21  C   UNL     1       5.092   6.506  15.946  0.00  0.00    +0.000 C 
BRANCH  21  22
ATOM     22  N   UNL     1       6.465   6.005  16.119  0.00  0.00    +0.000 NA
BRANCH  22  24
ATOM     23  C   UNL     1       7.576   5.486  18.323  0.00  0.00    +0.000 C 
ATOM     24  C   UNL     1       7.056   6.529  17.357  0.00  0.00    +0.000 C 
ENDBRANCH  22  24
BRANCH  22  25
ATOM     25  C   UNL     1       6.521   4.536  15.993  0.00  0.00    +0.000 C 
ATOM     26  C   UNL     1       6.182   3.962  14.619  0.00  0.00    +0.000 C 
ENDBRANCH  22  25
ENDBRANCH  21  22
ENDBRANCH  20  21
ENDBRANCH  19  20
ENDBRANCH   1  19
BRANCH   6  27
ATOM     27  O   UNL     1       0.239  12.534  20.930  0.00  0.00    +0.000 OA
BRANCH  27  28
ATOM     28  C   UNL     1      -0.786  13.293  20.434  0.00  0.00    +0.000 C 
ATOM     29  O   UNL     1      -1.035  13.422  19.244  0.00  0.00    +0.000 OA
BRANCH  28  30
ATOM     30  C   UNL     1      -1.533  13.974  21.562  0.00  0.00    +0.000 C 
ATOM     31  C   UNL     1      -2.666  13.136  22.155  0.00  0.00    +0.000 C 
ATOM     32  C   UNL     1      -2.930  13.790  23.505  0.00  0.00    +0.000 C 
ATOM     33  C   UNL     1      -1.586  14.357  23.958  0.00  0.00    +0.000 C 
ATOM     34  C   UNL     1      -0.635  14.204  22.774  0.00  0.00    +0.000 C 
ENDBRANCH  28  30
ENDBRANCH  27  28
ENDBRANCH   6  27
TORSDOF 10
ENDMDL
MODEL 9
REMARK VINA RESULT:      -7.6      1.820      2.769
REMARK  Name = 
REMARK  13 active torsions:
REMARK  status: ('A' for Active; 'I' for Inactive)
REMARK    1  A    between atoms: C_1  and  C_2
REMARK    2  A    between atoms: C_2  and  N_3
REMARK    3  A    between atoms: N_3  and  C_4
REMARK    4  A    between atoms: N_3  and  C_6
REMARK    5  A    between atoms: C_4  and  C_5
REMARK    6  A    between atoms: C_6  and  C_7
REMARK    7  A    between atoms: C_7  and  C_8
REMARK    8  A    between atoms: C_8  and  N_9
REMARK    9  A    between atoms: C_14  and  C_15
REMARK   10  A    between atoms: C_14  and  O_16
REMARK   11  A    between atoms: O_16  and  C_17
REMARK   12  A    between atoms: C_17  and  C_19
REMARK   13  A    between atoms: C_29  and  C_30
REMARK                            x       y       z     vdW  Elec       q    Type
REMARK                         _______ _______ _______ _____ _____    ______ ____
ROOT
ATOM      1  N   UNL     1       2.535   6.613  18.675  0.00  0.00    +0.000 N 
ATOM      2  C   UNL     1       2.289   7.977  18.448  0.00  0.00    +0.000 C 
ATOM      3  C   UNL     1       1.745   8.802  19.359  0.00  0.00    +0.000 C 
ATOM      4  C   UNL     1       1.498  10.232  19.033  0.00  0.00    +0.000 C 
ATOM      5  O   UNL     1       2.047  10.781  18.082  0.00  0.00    +0.000 OA
ATOM      6  C   UNL     1       0.425  10.924  19.881  0.00  0.00    +0.000 C 
ATOM      7  C   UNL     1      -0.906  10.591  19.176  0.00  0.00    +0.000 C 
ATOM      8  C   UNL     1       0.357  10.380  21.319  0.00  0.00    +0.000 C 
ATOM      9  O   UNL     1      -0.035  11.053  22.274  0.00  0.00    +0.000 OA
ATOM     10  C   UNL     1       0.713   8.963  21.568  0.00  0.00    +0.000 C 
ATOM     11  C   UNL     1       1.343   8.230  20.639  0.00  0.00    +0.000 C 
ATOM     12  C   UNL     1       1.663   6.831  20.915  0.00  0.00    +0.000 C 
ATOM     13  C   UNL     1       2.241   6.064  19.959  0.00  0.00    +0.000 C 
ENDROOT
BRANCH  13  14
ATOM     14  C   UNL     1       2.534   4.687  20.275  0.00  0.00    +0.000 A 
ATOM     15  C   UNL     1       3.625   3.935  19.734  0.00  0.00    +0.000 A 
ATOM     16  C   UNL     1       3.735   2.692  20.317  0.00  0.00    +0.000 A 
ATOM     17  S   UNL     1       2.453   2.381  21.406  0.00  0.00    +0.000 S 
ATOM     18  C   UNL     1       1.783   3.939  21.156  0.00  0.00    +0.000 A 
ENDBRANCH  13  14
BRANCH   1  19
ATOM     19  C   UNL     1       3.116   5.811  17.572  0.00  0.00    +0.000 C 
BRANCH  19  20
ATOM     20  C   UNL     1       4.388   6.426  16.999  0.00  0.00    +0.000 C 
BRANCH  20  21
ATOM     21  C   UNL     1       5.061   5.589  15.905  0.00  0.00    +0.000 C 
BRANCH  21  22
ATOM     22  N   UNL     1       6.499   5.870  15.766  0.00  0.00    +0.000 NA
BRANCH  22  24
ATOM     23  C   UNL     1       7.587   4.635  17.677  0.00  0.00    +0.000 C 
ATOM     24  C   UNL     1       7.141   5.955  17.084  0.00  0.00    +0.000 C 
ENDBRANCH  22  24
BRANCH  22  25
ATOM     25  C   UNL     1       7.144   4.926  14.835  0.00  0.00    +0.000 C 
ATOM     26  C   UNL     1       6.220   3.940  14.122  0.00  0.00    +0.000 C 
ENDBRANCH  22  25
ENDBRANCH  21  22
ENDBRANCH  20  21
ENDBRANCH  19  20
ENDBRANCH   1  19
BRANCH   6  27
ATOM     27  O   UNL     1       0.557  12.352  19.877  0.00  0.00    +0.000 OA
BRANCH  27  28
ATOM     28  C   UNL     1      -0.507  13.027  19.338  0.00  0.00    +0.000 C 
ATOM     29  O   UNL     1      -0.733  13.111  18.140  0.00  0.00    +0.000 OA
BRANCH  28  30
ATOM     30  C   UNL     1      -1.327  13.679  20.432  0.00  0.00    +0.000 C 
ATOM     31  C   UNL     1      -1.427  15.200  20.314  0.00  0.00    +0.000 C 
ATOM     32  C   UNL     1      -2.628  15.551  21.184  0.00  0.00    +0.000 C 
ATOM     33  C   UNL     1      -3.562  14.346  21.102  0.00  0.00    +0.000 C 
ATOM     34  C   UNL     1      -2.791  13.254  20.366  0.00  0.00    +0.000 C 
ENDBRANCH  28  30
ENDBRANCH  27  28
ENDBRANCH   6  27
TORSDOF 10
ENDMDL
