MODEL 1
REMARK VINA RESULT:      -7.4      0.000      0.000
REMARK  Name = 
REMARK  4 active torsions:
REMARK  status: ('A' for Active; 'I' for Inactive)
REMARK    1  A    between atoms: C_1  and  C_2
REMARK    2  A    between atoms: C_5  and  N_6
REMARK    3  A    between atoms: C_7  and  C_9
REMARK    4  A    between atoms: C_9  and  N_10
REMARK                            x       y       z     vdW  Elec       q    Type
REMARK                         _______ _______ _______ _____ _____    ______ ____
ROOT
ATOM      1  N   UNL     1       5.753   5.606  15.342  0.00  0.00    +0.000 N 
ATOM      2  C   UNL     1       6.176   5.384  16.643  0.00  0.00    +0.000 C 
ATOM      3  O   UNL     1       6.972   4.515  17.005  0.00  0.00    +0.000 OA
ATOM      4  H   UNL     1       5.255   6.469  15.151  0.00  0.00    +0.000 HD
ENDROOT
BRANCH   1   9
ATOM      5  C   UNL     1       7.249   2.490  10.749  0.00  0.00    +0.000 C 
ATOM      6  C   UNL     1       6.868   3.302  11.949  0.00  0.00    +0.000 A 
ATOM      7  C   UNL     1       7.694   4.335  12.397  0.00  0.00    +0.000 A 
ATOM      8  C   UNL     1       7.333   5.093  13.517  0.00  0.00    +0.000 A 
ATOM      9  C   UNL     1       6.152   4.843  14.213  0.00  0.00    +0.000 A 
ATOM     10  C   UNL     1       5.333   3.790  13.780  0.00  0.00    +0.000 A 
ATOM     11  C   UNL     1       5.684   3.038  12.649  0.00  0.00    +0.000 A 
ENDBRANCH   1   9
BRANCH   2  12
ATOM     12  C   UNL     1       5.592   6.320  17.674  0.00  0.00    +0.000 C 
BRANCH  12  13
ATOM     13  N   UNL     1       4.387   5.769  18.253  0.00  0.00    +0.000 N 
ATOM     14  C   UNL     1       4.010   5.811  19.562  0.00  0.00    +0.000 A 
ATOM     15  C   UNL     1       2.860   5.052  19.665  0.00  0.00    +0.000 A 
ATOM     16  C   UNL     1       2.600   4.633  18.335  0.00  0.00    +0.000 A 
ATOM     17  N   UNL     1       3.544   5.060  17.480  0.00  0.00    +0.000 NA
ATOM     18  C   UNL     1       1.440   3.859  17.814  0.00  0.00    +0.000 C 
ATOM     19  C   UNL     1       0.916   2.707  18.677  0.00  0.00    +0.000 C 
ATOM     20  C   UNL     1       1.662   2.378  19.967  0.00  0.00    +0.000 C 
ATOM     21  C   UNL     1       1.451   3.410  21.073  0.00  0.00    +0.000 C 
ATOM     22  C   UNL     1       2.070   4.800  20.900  0.00  0.00    +0.000 C 
ENDBRANCH  12  13
ENDBRANCH   2  12
TORSDOF 3
ENDMDL
MODEL 2
REMARK VINA RESULT:      -7.4      0.073      1.050
REMARK  Name = 
REMARK  4 active torsions:
REMARK  status: ('A' for Active; 'I' for Inactive)
REMARK    1  A    between atoms: C_1  and  C_2
REMARK    2  A    between atoms: C_5  and  N_6
REMARK    3  A    between atoms: C_7  and  C_9
REMARK    4  A    between atoms: C_9  and  N_10
REMARK                            x       y       z     vdW  Elec       q    Type
REMARK                         _______ _______ _______ _____ _____    ______ ____
ROOT
ATOM      1  N   UNL     1       5.660   5.579  15.318  0.00  0.00    +0.000 N 
ATOM      2  C   UNL     1       6.138   5.395  16.605  0.00  0.00    +0.000 C 
ATOM      3  O   UNL     1       6.977   4.561  16.952  0.00  0.00    +0.000 OA
ATOM      4  H   UNL     1       5.125   6.420  15.131  0.00  0.00    +0.000 HD
ENDROOT
BRANCH   1   9
ATOM      5  C   UNL     1       7.338   2.488  10.770  0.00  0.00    +0.000 C 
ATOM      6  C   UNL     1       6.892   3.294  11.951  0.00  0.00    +0.000 A 
ATOM      7  C   UNL     1       5.656   3.046  12.554  0.00  0.00    +0.000 A 
ATOM      8  C   UNL     1       5.245   3.800  13.659  0.00  0.00    +0.000 A 
ATOM      9  C   UNL     1       6.045   4.810  14.187  0.00  0.00    +0.000 A 
ATOM     10  C   UNL     1       7.276   5.078  13.570  0.00  0.00    +0.000 A 
ATOM     11  C   UNL     1       7.698   4.315  12.471  0.00  0.00    +0.000 A 
ENDBRANCH   1   9
BRANCH   2  12
ATOM     12  C   UNL     1       5.558   6.328  17.642  0.00  0.00    +0.000 C 
BRANCH  12  13
ATOM     13  N   UNL     1       4.366   5.768  18.237  0.00  0.00    +0.000 N 
ATOM     14  C   UNL     1       4.024   5.776  19.557  0.00  0.00    +0.000 A 
ATOM     15  C   UNL     1       2.873   5.020  19.670  0.00  0.00    +0.000 A 
ATOM     16  C   UNL     1       2.577   4.637  18.336  0.00  0.00    +0.000 A 
ATOM     17  N   UNL     1       3.499   5.083  17.468  0.00  0.00    +0.000 NA
ATOM     18  C   UNL     1       1.399   3.882  17.826  0.00  0.00    +0.000 C 
ATOM     19  C   UNL     1       0.892   2.711  18.672  0.00  0.00    +0.000 C 
ATOM     20  C   UNL     1       1.670   2.344  19.932  0.00  0.00    +0.000 C 
ATOM     21  C   UNL     1       1.494   3.347  21.071  0.00  0.00    +0.000 C 
ATOM     22  C   UNL     1       2.115   4.738  20.918  0.00  0.00    +0.000 C 
ENDBRANCH  12  13
ENDBRANCH   2  12
TORSDOF 3
ENDMDL
MODEL 3
REMARK VINA RESULT:      -7.3      1.151      1.162
REMARK  Name = 
REMARK  4 active torsions:
REMARK  status: ('A' for Active; 'I' for Inactive)
REMARK    1  A    between atoms: C_1  and  C_2
REMARK    2  A    between atoms: C_5  and  N_6
REMARK    3  A    between atoms: C_7  and  C_9
REMARK    4  A    between atoms: C_9  and  N_10
REMARK                            x       y       z     vdW  Elec       q    Type
REMARK                         _______ _______ _______ _____ _____    ______ ____
ROOT
ATOM      1  N   UNL     1       6.281   5.054  16.318  0.00  0.00    +0.000 N 
ATOM      2  C   UNL     1       7.114   4.749  17.381  0.00  0.00    +0.000 C 
ATOM      3  O   UNL     1       8.216   4.201  17.302  0.00  0.00    +0.000 OA
ATOM      4  H   UNL     1       5.499   5.676  16.496  0.00  0.00    +0.000 HD
ENDROOT
BRANCH   1   9
ATOM      5  C   UNL     1       7.270   3.817  10.791  0.00  0.00    +0.000 C 
ATOM      6  C   UNL     1       7.022   4.140  12.233  0.00  0.00    +0.000 A 
ATOM      7  C   UNL     1       7.792   5.104  12.887  0.00  0.00    +0.000 A 
ATOM      8  C   UNL     1       7.555   5.404  14.233  0.00  0.00    +0.000 A 
ATOM      9  C   UNL     1       6.554   4.758  14.956  0.00  0.00    +0.000 A 
ATOM     10  C   UNL     1       5.796   3.771  14.309  0.00  0.00    +0.000 A 
ATOM     11  C   UNL     1       6.021   3.478  12.956  0.00  0.00    +0.000 A 
ENDBRANCH   1   9
BRANCH   2  12
ATOM     12  C   UNL     1       6.589   5.148  18.740  0.00  0.00    +0.000 C 
BRANCH  12  13
ATOM     13  N   UNL     1       5.182   4.842  18.865  0.00  0.00    +0.000 N 
ATOM     14  C   UNL     1       4.242   5.557  19.546  0.00  0.00    +0.000 A 
ATOM     15  C   UNL     1       3.074   4.821  19.494  0.00  0.00    +0.000 A 
ATOM     16  C   UNL     1       3.411   3.689  18.708  0.00  0.00    +0.000 A 
ATOM     17  N   UNL     1       4.703   3.699  18.341  0.00  0.00    +0.000 NA
ATOM     18  C   UNL     1       2.527   2.587  18.238  0.00  0.00    +0.000 C 
ATOM     19  C   UNL     1       1.475   2.061  19.218  0.00  0.00    +0.000 C 
ATOM     20  C   UNL     1       1.454   2.640  20.630  0.00  0.00    +0.000 C 
ATOM     21  C   UNL     1       0.917   4.068  20.696  0.00  0.00    +0.000 C 
ATOM     22  C   UNL     1       1.764   5.192  20.092  0.00  0.00    +0.000 C 
ENDBRANCH  12  13
ENDBRANCH   2  12
TORSDOF 3
ENDMDL
MODEL 4
REMARK VINA RESULT:      -7.2      1.064      1.490
REMARK  Name = 
REMARK  4 active torsions:
REMARK  status: ('A' for Active; 'I' for Inactive)
REMARK    1  A    between atoms: C_1  and  C_2
REMARK    2  A    between atoms: C_5  and  N_6
REMARK    3  A    between atoms: C_7  and  C_9
REMARK    4  A    between atoms: C_9  and  N_10
REMARK                            x       y       z     vdW  Elec       q    Type
REMARK                         _______ _______ _______ _____ _____    ______ ____
ROOT
ATOM      1  N   UNL     1       6.232   5.119  16.178  0.00  0.00    +0.000 N 
ATOM      2  C   UNL     1       7.044   4.808  17.257  0.00  0.00    +0.000 C 
ATOM      3  O   UNL     1       8.112   4.195  17.204  0.00  0.00    +0.000 OA
ATOM      4  H   UNL     1       5.487   5.791  16.329  0.00  0.00    +0.000 HD
ENDROOT
BRANCH   1   9
ATOM      5  C   UNL     1       7.401   3.683  10.735  0.00  0.00    +0.000 C 
ATOM      6  C   UNL     1       7.087   4.057  12.152  0.00  0.00    +0.000 A 
ATOM      7  C   UNL     1       6.060   3.413  12.844  0.00  0.00    +0.000 A 
ATOM      8  C   UNL     1       5.771   3.763  14.168  0.00  0.00    +0.000 A 
ATOM      9  C   UNL     1       6.492   4.755  14.830  0.00  0.00    +0.000 A 
ATOM     10  C   UNL     1       7.509   5.421  14.130  0.00  0.00    +0.000 A 
ATOM     11  C   UNL     1       7.810   5.062  12.807  0.00  0.00    +0.000 A 
ENDBRANCH   1   9
BRANCH   2  12
ATOM     12  C   UNL     1       6.539   5.289  18.597  0.00  0.00    +0.000 C 
BRANCH  12  13
ATOM     13  N   UNL     1       5.153   4.930  18.790  0.00  0.00    +0.000 N 
ATOM     14  C   UNL     1       4.233   5.581  19.559  0.00  0.00    +0.000 A 
ATOM     15  C   UNL     1       3.088   4.809  19.541  0.00  0.00    +0.000 A 
ATOM     16  C   UNL     1       3.412   3.726  18.683  0.00  0.00    +0.000 A 
ATOM     17  N   UNL     1       4.678   3.796  18.242  0.00  0.00    +0.000 NA
ATOM     18  C   UNL     1       2.536   2.617  18.215  0.00  0.00    +0.000 C 
ATOM     19  C   UNL     1       1.562   2.011  19.230  0.00  0.00    +0.000 C 
ATOM     20  C   UNL     1       1.609   2.524  20.666  0.00  0.00    +0.000 C 
ATOM     21  C   UNL     1       1.033   3.929  20.831  0.00  0.00    +0.000 C 
ATOM     22  C   UNL     1       1.805   5.107  20.232  0.00  0.00    +0.000 C 
ENDBRANCH  12  13
ENDBRANCH   2  12
TORSDOF 3
ENDMDL
MODEL 5
REMARK VINA RESULT:      -7.2      4.858      8.804
REMARK  Name = 
REMARK  4 active torsions:
REMARK  status: ('A' for Active; 'I' for Inactive)
REMARK    1  A    between atoms: C_1  and  C_2
REMARK    2  A    between atoms: C_5  and  N_6
REMARK    3  A    between atoms: C_7  and  C_9
REMARK    4  A    between atoms: C_9  and  N_10
REMARK                            x       y       z     vdW  Elec       q    Type
REMARK                         _______ _______ _______ _____ _____    ______ ____
ROOT
ATOM      1  N   UNL     1       1.506   9.549  20.079  0.00  0.00    +0.000 N 
ATOM      2  C   UNL     1       1.352   9.220  18.742  0.00  0.00    +0.000 C 
ATOM      3  O   UNL     1       0.360   9.458  18.050  0.00  0.00    +0.000 OA
ATOM      4  H   UNL     1       2.437   9.475  20.477  0.00  0.00    +0.000 HD
ENDROOT
BRANCH   1   9
ATOM      5  C   UNL     1      -2.410  12.111  23.418  0.00  0.00    +0.000 C 
ATOM      6  C   UNL     1      -1.395  11.445  22.540  0.00  0.00    +0.000 A 
ATOM      7  C   UNL     1      -1.037  12.011  21.314  0.00  0.00    +0.000 A 
ATOM      8  C   UNL     1      -0.087  11.386  20.498  0.00  0.00    +0.000 A 
ATOM      9  C   UNL     1       0.526  10.195  20.879  0.00  0.00    +0.000 A 
ATOM     10  C   UNL     1       0.152   9.611  22.098  0.00  0.00    +0.000 A 
ATOM     11  C   UNL     1      -0.790  10.242  22.925  0.00  0.00    +0.000 A 
ENDBRANCH   1   9
BRANCH   2  12
ATOM     12  C   UNL     1       2.532   8.516  18.116  0.00  0.00    +0.000 C 
BRANCH  12  13
ATOM     13  N   UNL     1       2.570   7.122  18.499  0.00  0.00    +0.000 N 
ATOM     14  C   UNL     1       2.794   6.052  17.685  0.00  0.00    +0.000 A 
ATOM     15  C   UNL     1       2.612   4.923  18.461  0.00  0.00    +0.000 A 
ATOM     16  C   UNL     1       2.324   5.433  19.754  0.00  0.00    +0.000 A 
ATOM     17  N   UNL     1       2.284   6.775  19.767  0.00  0.00    +0.000 NA
ATOM     18  C   UNL     1       2.122   4.684  21.025  0.00  0.00    +0.000 C 
ATOM     19  C   UNL     1       1.329   3.376  20.954  0.00  0.00    +0.000 C 
ATOM     20  C   UNL     1       0.730   2.970  19.610  0.00  0.00    +0.000 C 
ATOM     21  C   UNL     1       1.770   2.487  18.601  0.00  0.00    +0.000 C 
ATOM     22  C   UNL     1       2.750   3.510  18.019  0.00  0.00    +0.000 C 
ENDBRANCH  12  13
ENDBRANCH   2  12
TORSDOF 3
ENDMDL
MODEL 6
REMARK VINA RESULT:      -7.1      4.567      8.573
REMARK  Name = 
REMARK  4 active torsions:
REMARK  status: ('A' for Active; 'I' for Inactive)
REMARK    1  A    between atoms: C_1  and  C_2
REMARK    2  A    between atoms: C_5  and  N_6
REMARK    3  A    between atoms: C_7  and  C_9
REMARK    4  A    between atoms: C_9  and  N_10
REMARK                            x       y       z     vdW  Elec       q    Type
REMARK                         _______ _______ _______ _____ _____    ______ ____
ROOT
ATOM      1  N   UNL     1       1.770   9.119  20.018  0.00  0.00    +0.000 N 
ATOM      2  C   UNL     1       1.611   8.946  18.652  0.00  0.00    +0.000 C 
ATOM      3  O   UNL     1       0.660   9.346  17.979  0.00  0.00    +0.000 OA
ATOM      4  H   UNL     1       2.682   8.918  20.415  0.00  0.00    +0.000 HD
ENDROOT
BRANCH   1   9
ATOM      5  C   UNL     1      -2.027  11.829  23.378  0.00  0.00    +0.000 C 
ATOM      6  C   UNL     1      -1.034  11.118  22.510  0.00  0.00    +0.000 A 
ATOM      7  C   UNL     1      -0.710   9.781  22.751  0.00  0.00    +0.000 A 
ATOM      8  C   UNL     1       0.217   9.121  21.936  0.00  0.00    +0.000 A 
ATOM      9  C   UNL     1       0.839   9.769  20.871  0.00  0.00    +0.000 A 
ATOM     10  C   UNL     1       0.534  11.119  20.642  0.00  0.00    +0.000 A 
ATOM     11  C   UNL     1      -0.406  11.780  21.448  0.00  0.00    +0.000 A 
ENDBRANCH   1   9
BRANCH   2  12
ATOM     12  C   UNL     1       2.734   8.201  17.968  0.00  0.00    +0.000 C 
BRANCH  12  13
ATOM     13  N   UNL     1       2.750   6.810  18.360  0.00  0.00    +0.000 N 
ATOM     14  C   UNL     1       3.284   5.766  17.665  0.00  0.00    +0.000 A 
ATOM     15  C   UNL     1       2.955   4.620  18.361  0.00  0.00    +0.000 A 
ATOM     16  C   UNL     1       2.255   5.095  19.501  0.00  0.00    +0.000 A 
ATOM     17  N   UNL     1       2.119   6.431  19.486  0.00  0.00    +0.000 NA
ATOM     18  C   UNL     1       1.730   4.320  20.659  0.00  0.00    +0.000 C 
ATOM     19  C   UNL     1       1.088   2.961  20.366  0.00  0.00    +0.000 C 
ATOM     20  C   UNL     1       0.954   2.529  18.909  0.00  0.00    +0.000 C 
ATOM     21  C   UNL     1       2.282   2.129  18.267  0.00  0.00    +0.000 C 
ATOM     22  C   UNL     1       3.318   3.224  17.998  0.00  0.00    +0.000 C 
ENDBRANCH  12  13
ENDBRANCH   2  12
TORSDOF 3
ENDMDL
MODEL 7
REMARK VINA RESULT:      -7.1      5.581      8.381
REMARK  Name = 
REMARK  4 active torsions:
REMARK  status: ('A' for Active; 'I' for Inactive)
REMARK    1  A    between atoms: C_1  and  C_2
REMARK    2  A    between atoms: C_5  and  N_6
REMARK    3  A    between atoms: C_7  and  C_9
REMARK    4  A    between atoms: C_9  and  N_10
REMARK                            x       y       z     vdW  Elec       q    Type
REMARK                         _______ _______ _______ _____ _____    ______ ____
ROOT
ATOM      1  N   UNL     1       0.199   9.768  17.749  0.00  0.00    +0.000 N 
ATOM      2  C   UNL     1       0.999   9.385  18.813  0.00  0.00    +0.000 C 
ATOM      3  O   UNL     1       0.697   9.457  20.006  0.00  0.00    +0.000 OA
ATOM      4  H   UNL     1       0.482   9.477  16.819  0.00  0.00    +0.000 HD
ENDROOT
BRANCH   1   9
ATOM      5  C   UNL     1      -5.102  11.949  18.196  0.00  0.00    +0.000 C 
ATOM      6  C   UNL     1      -3.717  11.390  18.079  0.00  0.00    +0.000 A 
ATOM      7  C   UNL     1      -2.658  11.962  18.788  0.00  0.00    +0.000 A 
ATOM      8  C   UNL     1      -1.367  11.435  18.678  0.00  0.00    +0.000 A 
ATOM      9  C   UNL     1      -1.099  10.334  17.867  0.00  0.00    +0.000 A 
ATOM     10  C   UNL     1      -2.155   9.772  17.134  0.00  0.00    +0.000 A 
ATOM     11  C   UNL     1      -3.453  10.289  17.254  0.00  0.00    +0.000 A 
ENDBRANCH   1   9
BRANCH   2  12
ATOM     12  C   UNL     1       2.350   8.828  18.430  0.00  0.00    +0.000 C 
BRANCH  12  13
ATOM     13  N   UNL     1       2.409   7.402  18.663  0.00  0.00    +0.000 N 
ATOM     14  C   UNL     1       2.496   6.418  17.723  0.00  0.00    +0.000 A 
ATOM     15  C   UNL     1       2.398   5.218  18.399  0.00  0.00    +0.000 A 
ATOM     16  C   UNL     1       2.301   5.595  19.764  0.00  0.00    +0.000 A 
ATOM     17  N   UNL     1       2.292   6.929  19.917  0.00  0.00    +0.000 NA
ATOM     18  C   UNL     1       2.259   4.722  20.969  0.00  0.00    +0.000 C 
ATOM     19  C   UNL     1       1.435   3.434  20.878  0.00  0.00    +0.000 C 
ATOM     20  C   UNL     1       0.649   3.172  19.596  0.00  0.00    +0.000 C 
ATOM     21  C   UNL     1       1.530   2.787  18.409  0.00  0.00    +0.000 C 
ATOM     22  C   UNL     1       2.443   3.856  17.803  0.00  0.00    +0.000 C 
ENDBRANCH  12  13
ENDBRANCH   2  12
TORSDOF 3
ENDMDL
MODEL 8
REMARK VINA RESULT:      -7.0      5.591      8.421
REMARK  Name = 
REMARK  4 active torsions:
REMARK  status: ('A' for Active; 'I' for Inactive)
REMARK    1  A    between atoms: C_1  and  C_2
REMARK    2  A    between atoms: C_5  and  N_6
REMARK    3  A    between atoms: C_7  and  C_9
REMARK    4  A    between atoms: C_9  and  N_10
REMARK                            x       y       z     vdW  Elec       q    Type
REMARK                         _______ _______ _______ _____ _____    ______ ____
ROOT
ATOM      1  N   UNL     1       0.169   9.732  17.782  0.00  0.00    +0.000 N 
ATOM      2  C   UNL     1       0.920   9.338  18.877  0.00  0.00    +0.000 C 
ATOM      3  O   UNL     1       0.554   9.372  20.053  0.00  0.00    +0.000 OA
ATOM      4  H   UNL     1       0.507   9.472  16.861  0.00  0.00    +0.000 HD
ENDROOT
BRANCH   1   9
ATOM      5  C   UNL     1      -5.101  12.013  18.064  0.00  0.00    +0.000 C 
ATOM      6  C   UNL     1      -3.732  11.409  17.991  0.00  0.00    +0.000 A 
ATOM      7  C   UNL     1      -3.489  10.295  17.184  0.00  0.00    +0.000 A 
ATOM      8  C   UNL     1      -2.208   9.737  17.117  0.00  0.00    +0.000 A 
ATOM      9  C   UNL     1      -1.145  10.268  17.844  0.00  0.00    +0.000 A 
ATOM     10  C   UNL     1      -1.391  11.372  18.673  0.00  0.00    +0.000 A 
ATOM     11  C   UNL     1      -2.671  11.944  18.732  0.00  0.00    +0.000 A 
ENDBRANCH   1   9
BRANCH   2  12
ATOM     12  C   UNL     1       2.301   8.819  18.552  0.00  0.00    +0.000 C 
BRANCH  12  13
ATOM     13  N   UNL     1       2.381   7.390  18.756  0.00  0.00    +0.000 N 
ATOM     14  C   UNL     1       2.498   6.428  17.797  0.00  0.00    +0.000 A 
ATOM     15  C   UNL     1       2.409   5.212  18.447  0.00  0.00    +0.000 A 
ATOM     16  C   UNL     1       2.286   5.559  19.817  0.00  0.00    +0.000 A 
ATOM     17  N   UNL     1       2.253   6.889  19.998  0.00  0.00    +0.000 NA
ATOM     18  C   UNL     1       2.241   4.659  21.003  0.00  0.00    +0.000 C 
ATOM     19  C   UNL     1       1.439   3.361  20.873  0.00  0.00    +0.000 C 
ATOM     20  C   UNL     1       0.677   3.114  19.574  0.00  0.00    +0.000 C 
ATOM     21  C   UNL     1       1.582   2.767  18.393  0.00  0.00    +0.000 C 
ATOM     22  C   UNL     1       2.486   3.864  17.823  0.00  0.00    +0.000 C 
ENDBRANCH  12  13
ENDBRANCH   2  12
TORSDOF 3
ENDMDL
MODEL 9
REMARK VINA RESULT:      -7.0      1.046      1.046
REMARK  Name = 
REMARK  4 active torsions:
REMARK  status: ('A' for Active; 'I' for Inactive)
REMARK    1  A    between atoms: C_1  and  C_2
REMARK    2  A    between atoms: C_5  and  N_6
REMARK    3  A    between atoms: C_7  and  C_9
REMARK    4  A    between atoms: C_9  and  N_10
REMARK                            x       y       z     vdW  Elec       q    Type
REMARK                         _______ _______ _______ _____ _____    ______ ____
ROOT
ATOM      1  N   UNL     1       5.847   5.303  15.979  0.00  0.00    +0.000 N 
ATOM      2  C   UNL     1       5.189   6.509  16.158  0.00  0.00    +0.000 C 
ATOM      3  O   UNL     1       4.810   7.264  15.260  0.00  0.00    +0.000 OA
ATOM      4  H   UNL     1       5.928   4.688  16.782  0.00  0.00    +0.000 HD
ENDROOT
BRANCH   1   9
ATOM      5  C   UNL     1       7.227   3.057  10.870  0.00  0.00    +0.000 C 
ATOM      6  C   UNL     1       6.877   3.642  12.205  0.00  0.00    +0.000 A 
ATOM      7  C   UNL     1       7.709   4.589  12.804  0.00  0.00    +0.000 A 
ATOM      8  C   UNL     1       7.377   5.134  14.050  0.00  0.00    +0.000 A 
ATOM      9  C   UNL     1       6.218   4.754  14.723  0.00  0.00    +0.000 A 
ATOM     10  C   UNL     1       5.392   3.785  14.134  0.00  0.00    +0.000 A 
ATOM     11  C   UNL     1       5.715   3.247  12.879  0.00  0.00    +0.000 A 
ENDBRANCH   1   9
BRANCH   2  12
ATOM     12  C   UNL     1       4.925   6.887  17.596  0.00  0.00    +0.000 C 
BRANCH  12  13
ATOM     13  N   UNL     1       3.833   6.114  18.145  0.00  0.00    +0.000 N 
ATOM     14  C   UNL     1       3.297   6.220  19.394  0.00  0.00    +0.000 A 
ATOM     15  C   UNL     1       2.371   5.202  19.513  0.00  0.00    +0.000 A 
ATOM     16  C   UNL     1       2.393   4.563  18.246  0.00  0.00    +0.000 A 
ATOM     17  N   UNL     1       3.298   5.114  17.421  0.00  0.00    +0.000 NA
ATOM     18  C   UNL     1       1.538   3.449  17.752  0.00  0.00    +0.000 C 
ATOM     19  C   UNL     1       1.215   2.319  18.734  0.00  0.00    +0.000 C 
ATOM     20  C   UNL     1       1.853   2.367  20.120  0.00  0.00    +0.000 C 
ATOM     21  C   UNL     1       1.253   3.437  21.030  0.00  0.00    +0.000 C 
ATOM     22  C   UNL     1       1.521   4.908  20.697  0.00  0.00    +0.000 C 
ENDBRANCH  12  13
ENDBRANCH   2  12
TORSDOF 3
ENDMDL
