MODEL 1
REMARK VINA RESULT:      -7.5      0.000      0.000
REMARK  Name = 
REMARK  7 active torsions:
REMARK  status: ('A' for Active; 'I' for Inactive)
REMARK    1  A    between atoms: C_1  and  C_2
REMARK    2  A    between atoms: C_2  and  C_3
REMARK    3  A    between atoms: C_3  and  C_4
REMARK    4  A    between atoms: C_3  and  N_5
REMARK    5  A    between atoms: C_6  and  C_8
REMARK    6  A    between atoms: N_11  and  S_12
REMARK    7  A    between atoms: S_12  and  C_15
REMARK                            x       y       z     vdW  Elec       q    Type
REMARK                         _______ _______ _______ _____ _____    ______ ____
ROOT
ATOM      1  C   UNL     1       7.573   6.312  17.668  0.00  0.00    +0.000 C 
ATOM      2  C   UNL     1       7.260   5.746  19.059  0.00  0.00    +0.000 C 
ATOM      3  C   UNL     1       5.821   5.236  19.165  0.00  0.00    +0.000 C 
ATOM      4  N   UNL     1       4.843   6.299  18.777  0.00  0.00    +0.000 NA
ATOM      5  C   UNL     1       5.123   6.878  17.428  0.00  0.00    +0.000 C 
ATOM      6  C   UNL     1       6.553   7.407  17.352  0.00  0.00    +0.000 C 
ENDROOT
BRANCH   1   8
ATOM      7  N   UNL     1       7.230   5.598  15.347  0.00  0.00    +0.000 N 
ATOM      8  C   UNL     1       7.596   5.201  16.614  0.00  0.00    +0.000 C 
ATOM      9  O   UNL     1       7.922   4.048  16.875  0.00  0.00    +0.000 OA
ATOM     10  H   UNL     1       7.211   6.584  15.124  0.00  0.00    +0.000 HD
BRANCH   7  11
ATOM     11  C   UNL     1       7.171   4.639  14.248  0.00  0.00    +0.000 C 
ATOM     12  C   UNL     1       7.799   5.231  12.986  0.00  0.00    +0.000 C 
BRANCH  11  14
ATOM     13  C   UNL     1       5.576   3.476  12.639  0.00  0.00    +0.000 C 
ATOM     14  C   UNL     1       5.727   4.196  13.973  0.00  0.00    +0.000 C 
ENDBRANCH  11  14
ENDBRANCH   7  11
ENDBRANCH   1   8
BRANCH   4  15
ATOM     15  S   UNL     1       3.196   5.784  18.895  0.00  0.00    +0.000 S 
ATOM     16  O   UNL     1       2.825   5.181  17.630  0.00  0.00    +0.000 OA
ATOM     17  O   UNL     1       3.052   5.052  20.135  0.00  0.00    +0.000 OA
BRANCH  15  18
ATOM     18  C   UNL     1       2.300   7.286  19.027  0.00  0.00    +0.000 A 
ATOM     19  C   UNL     1       2.088   8.115  17.928  0.00  0.00    +0.000 A 
ATOM     20  C   UNL     1       1.402   9.312  18.119  0.00  0.00    +0.000 A 
ATOM     21  C   UNL     1       0.958   9.619  19.397  0.00  0.00    +0.000 A 
ATOM     22  N   UNL     1       1.151   8.825  20.475  0.00  0.00    +0.000 NA
ATOM     23  C   UNL     1       1.832   7.672  20.269  0.00  0.00    +0.000 A 
ENDBRANCH  15  18
ENDBRANCH   4  15
TORSDOF 5
ENDMDL
MODEL 2
REMARK VINA RESULT:      -7.2      2.253      3.442
REMARK  Name = 
REMARK  7 active torsions:
REMARK  status: ('A' for Active; 'I' for Inactive)
REMARK    1  A    between atoms: C_1  and  C_2
REMARK    2  A    between atoms: C_2  and  C_3
REMARK    3  A    between atoms: C_3  and  C_4
REMARK    4  A    between atoms: C_3  and  N_5
REMARK    5  A    between atoms: C_6  and  C_8
REMARK    6  A    between atoms: N_11  and  S_12
REMARK    7  A    between atoms: S_12  and  C_15
REMARK                            x       y       z     vdW  Elec       q    Type
REMARK                         _______ _______ _______ _____ _____    ______ ____
ROOT
ATOM      1  C   UNL     1       7.490   6.408  17.578  0.00  0.00    +0.000 C 
ATOM      2  C   UNL     1       7.216   5.896  18.997  0.00  0.00    +0.000 C 
ATOM      3  C   UNL     1       5.801   5.332  19.145  0.00  0.00    +0.000 C 
ATOM      4  N   UNL     1       4.775   6.336  18.722  0.00  0.00    +0.000 NA
ATOM      5  C   UNL     1       5.016   6.863  17.345  0.00  0.00    +0.000 C 
ATOM      6  C   UNL     1       6.422   7.446  17.226  0.00  0.00    +0.000 C 
ENDROOT
BRANCH   1   8
ATOM      7  N   UNL     1       7.183   5.583  15.289  0.00  0.00    +0.000 N 
ATOM      8  C   UNL     1       7.546   5.253  16.576  0.00  0.00    +0.000 C 
ATOM      9  O   UNL     1       7.895   4.120  16.891  0.00  0.00    +0.000 OA
ATOM     10  H   UNL     1       7.145   6.558  15.021  0.00  0.00    +0.000 HD
BRANCH   7  11
ATOM     11  C   UNL     1       7.156   4.575  14.234  0.00  0.00    +0.000 C 
ATOM     12  C   UNL     1       7.764   5.129  12.945  0.00  0.00    +0.000 C 
BRANCH  11  14
ATOM     13  C   UNL     1       5.537   3.518  12.575  0.00  0.00    +0.000 C 
ATOM     14  C   UNL     1       5.727   4.074  13.981  0.00  0.00    +0.000 C 
ENDBRANCH  11  14
ENDBRANCH   7  11
ENDBRANCH   1   8
BRANCH   4  15
ATOM     15  S   UNL     1       3.152   5.760  18.886  0.00  0.00    +0.000 S 
ATOM     16  O   UNL     1       2.723   6.019  20.246  0.00  0.00    +0.000 OA
ATOM     17  O   UNL     1       2.393   6.260  17.761  0.00  0.00    +0.000 OA
BRANCH  15  18
ATOM     18  C   UNL     1       3.312   4.021  18.724  0.00  0.00    +0.000 A 
ATOM     19  C   UNL     1       3.408   3.403  17.479  0.00  0.00    +0.000 A 
ATOM     20  C   UNL     1       3.491   2.014  17.430  0.00  0.00    +0.000 A 
ATOM     21  C   UNL     1       3.479   1.311  18.626  0.00  0.00    +0.000 A 
ATOM     22  N   UNL     1       3.390   1.893  19.844  0.00  0.00    +0.000 NA
ATOM     23  C   UNL     1       3.296   3.245  19.868  0.00  0.00    +0.000 A 
ENDBRANCH  15  18
ENDBRANCH   4  15
TORSDOF 5
ENDMDL
MODEL 3
REMARK VINA RESULT:      -7.0      2.492      3.293
REMARK  Name = 
REMARK  7 active torsions:
REMARK  status: ('A' for Active; 'I' for Inactive)
REMARK    1  A    between atoms: C_1  and  C_2
REMARK    2  A    between atoms: C_2  and  C_3
REMARK    3  A    between atoms: C_3  and  C_4
REMARK    4  A    between atoms: C_3  and  N_5
REMARK    5  A    between atoms: C_6  and  C_8
REMARK    6  A    between atoms: N_11  and  S_12
REMARK    7  A    between atoms: S_12  and  C_15
REMARK                            x       y       z     vdW  Elec       q    Type
REMARK                         _______ _______ _______ _____ _____    ______ ____
ROOT
ATOM      1  C   UNL     1       6.869   6.174  17.593  0.00  0.00    +0.000 C 
ATOM      2  C   UNL     1       6.478   5.428  18.875  0.00  0.00    +0.000 C 
ATOM      3  C   UNL     1       5.239   4.552  18.679  0.00  0.00    +0.000 C 
ATOM      4  N   UNL     1       4.093   5.353  18.145  0.00  0.00    +0.000 NA
ATOM      5  C   UNL     1       4.441   6.099  16.899  0.00  0.00    +0.000 C 
ATOM      6  C   UNL     1       5.662   6.988  17.122  0.00  0.00    +0.000 C 
ENDROOT
BRANCH   1   8
ATOM      7  N   UNL     1       7.021   5.520  15.234  0.00  0.00    +0.000 N 
ATOM      8  C   UNL     1       7.381   5.204  16.526  0.00  0.00    +0.000 C 
ATOM      9  O   UNL     1       8.068   4.224  16.797  0.00  0.00    +0.000 OA
ATOM     10  H   UNL     1       6.677   6.449  15.031  0.00  0.00    +0.000 HD
BRANCH   7  11
ATOM     11  C   UNL     1       7.410   4.666  14.117  0.00  0.00    +0.000 C 
ATOM     12  C   UNL     1       8.023   5.500  12.991  0.00  0.00    +0.000 C 
BRANCH  11  14
ATOM     13  C   UNL     1       6.382   3.428  12.141  0.00  0.00    +0.000 C 
ATOM     14  C   UNL     1       6.215   3.856  13.594  0.00  0.00    +0.000 C 
ENDBRANCH  11  14
ENDBRANCH   7  11
ENDBRANCH   1   8
BRANCH   4  15
ATOM     15  S   UNL     1       2.656   4.417  17.921  0.00  0.00    +0.000 S 
ATOM     16  O   UNL     1       1.554   5.335  17.711  0.00  0.00    +0.000 OA
ATOM     17  O   UNL     1       2.952   3.380  16.956  0.00  0.00    +0.000 OA
BRANCH  15  18
ATOM     18  C   UNL     1       2.402   3.666  19.486  0.00  0.00    +0.000 A 
ATOM     19  C   UNL     1       3.277   2.709  19.994  0.00  0.00    +0.000 A 
ATOM     20  C   UNL     1       2.986   2.129  21.226  0.00  0.00    +0.000 A 
ATOM     21  C   UNL     1       1.839   2.536  21.892  0.00  0.00    +0.000 A 
ATOM     22  N   UNL     1       0.981   3.467  21.417  0.00  0.00    +0.000 NA
ATOM     23  C   UNL     1       1.276   4.009  20.210  0.00  0.00    +0.000 A 
ENDBRANCH  15  18
ENDBRANCH   4  15
TORSDOF 5
ENDMDL
MODEL 4
REMARK VINA RESULT:      -7.0      2.251      3.669
REMARK  Name = 
REMARK  7 active torsions:
REMARK  status: ('A' for Active; 'I' for Inactive)
REMARK    1  A    between atoms: C_1  and  C_2
REMARK    2  A    between atoms: C_2  and  C_3
REMARK    3  A    between atoms: C_3  and  C_4
REMARK    4  A    between atoms: C_3  and  N_5
REMARK    5  A    between atoms: C_6  and  C_8
REMARK    6  A    between atoms: N_11  and  S_12
REMARK    7  A    between atoms: S_12  and  C_15
REMARK                            x       y       z     vdW  Elec       q    Type
REMARK                         _______ _______ _______ _____ _____    ______ ____
ROOT
ATOM      1  C   UNL     1       7.409   6.431  17.486  0.00  0.00    +0.000 C 
ATOM      2  C   UNL     1       7.192   5.916  18.915  0.00  0.00    +0.000 C 
ATOM      3  C   UNL     1       5.806   5.293  19.100  0.00  0.00    +0.000 C 
ATOM      4  N   UNL     1       4.729   6.250  18.697  0.00  0.00    +0.000 NA
ATOM      5  C   UNL     1       4.914   6.778  17.312  0.00  0.00    +0.000 C 
ATOM      6  C   UNL     1       6.290   7.420  17.155  0.00  0.00    +0.000 C 
ENDROOT
BRANCH   1   8
ATOM      7  N   UNL     1       7.159   5.599  15.193  0.00  0.00    +0.000 N 
ATOM      8  C   UNL     1       7.491   5.272  16.489  0.00  0.00    +0.000 C 
ATOM      9  O   UNL     1       7.833   4.141  16.816  0.00  0.00    +0.000 OA
ATOM     10  H   UNL     1       7.127   6.573  14.922  0.00  0.00    +0.000 HD
BRANCH   7  11
ATOM     11  C   UNL     1       7.158   4.588  14.141  0.00  0.00    +0.000 C 
ATOM     12  C   UNL     1       7.745   5.157  12.848  0.00  0.00    +0.000 C 
BRANCH  11  14
ATOM     13  C   UNL     1       5.571   3.464  12.495  0.00  0.00    +0.000 C 
ATOM     14  C   UNL     1       5.744   4.044  13.894  0.00  0.00    +0.000 C 
ENDBRANCH  11  14
ENDBRANCH   7  11
ENDBRANCH   1   8
BRANCH   4  15
ATOM     15  S   UNL     1       3.136   5.606  18.904  0.00  0.00    +0.000 S 
ATOM     16  O   UNL     1       2.700   5.920  20.250  0.00  0.00    +0.000 OA
ATOM     17  O   UNL     1       2.349   6.005  17.757  0.00  0.00    +0.000 OA
BRANCH  15  18
ATOM     18  C   UNL     1       3.379   3.871  18.838  0.00  0.00    +0.000 A 
ATOM     19  C   UNL     1       3.849   3.151  19.934  0.00  0.00    +0.000 A 
ATOM     20  C   UNL     1       4.055   1.781  19.793  0.00  0.00    +0.000 A 
ATOM     21  C   UNL     1       3.778   1.197  18.565  0.00  0.00    +0.000 A 
ATOM     22  N   UNL     1       3.317   1.878  17.491  0.00  0.00    +0.000 NA
ATOM     23  C   UNL     1       3.137   3.212  17.647  0.00  0.00    +0.000 A 
ENDBRANCH  15  18
ENDBRANCH   4  15
TORSDOF 5
ENDMDL
MODEL 5
REMARK VINA RESULT:      -6.9      0.745      1.190
REMARK  Name = 
REMARK  7 active torsions:
REMARK  status: ('A' for Active; 'I' for Inactive)
REMARK    1  A    between atoms: C_1  and  C_2
REMARK    2  A    between atoms: C_2  and  C_3
REMARK    3  A    between atoms: C_3  and  C_4
REMARK    4  A    between atoms: C_3  and  N_5
REMARK    5  A    between atoms: C_6  and  C_8
REMARK    6  A    between atoms: N_11  and  S_12
REMARK    7  A    between atoms: S_12  and  C_15
REMARK                            x       y       z     vdW  Elec       q    Type
REMARK                         _______ _______ _______ _____ _____    ______ ____
ROOT
ATOM      1  C   UNL     1       7.237   6.060  17.219  0.00  0.00    +0.000 C 
ATOM      2  C   UNL     1       7.098   5.451  18.620  0.00  0.00    +0.000 C 
ATOM      3  C   UNL     1       5.678   4.951  18.894  0.00  0.00    +0.000 C 
ATOM      4  N   UNL     1       4.673   6.036  18.671  0.00  0.00    +0.000 NA
ATOM      5  C   UNL     1       4.786   6.658  17.318  0.00  0.00    +0.000 C 
ATOM      6  C   UNL     1       6.201   7.176  17.074  0.00  0.00    +0.000 C 
ENDROOT
BRANCH   1   8
ATOM      7  N   UNL     1       7.310   5.435  14.849  0.00  0.00    +0.000 N 
ATOM      8  C   UNL     1       7.108   4.987  16.136  0.00  0.00    +0.000 C 
ATOM      9  O   UNL     1       6.853   3.815  16.392  0.00  0.00    +0.000 OA
ATOM     10  H   UNL     1       7.755   6.332  14.703  0.00  0.00    +0.000 HD
BRANCH   7  11
ATOM     11  C   UNL     1       7.184   4.531  13.711  0.00  0.00    +0.000 C 
ATOM     12  C   UNL     1       7.684   5.205  12.432  0.00  0.00    +0.000 C 
BRANCH  11  14
ATOM     13  C   UNL     1       5.526   3.258  12.254  0.00  0.00    +0.000 C 
ATOM     14  C   UNL     1       5.735   4.056  13.535  0.00  0.00    +0.000 C 
ENDBRANCH  11  14
ENDBRANCH   7  11
ENDBRANCH   1   8
BRANCH   4  15
ATOM     15  S   UNL     1       3.048   5.533  18.985  0.00  0.00    +0.000 S 
ATOM     16  O   UNL     1       2.446   5.158  17.721  0.00  0.00    +0.000 OA
ATOM     17  O   UNL     1       3.082   4.605  20.095  0.00  0.00    +0.000 OA
BRANCH  15  18
ATOM     18  C   UNL     1       2.253   7.005  19.512  0.00  0.00    +0.000 A 
ATOM     19  C   UNL     1       1.709   7.132  20.788  0.00  0.00    +0.000 A 
ATOM     20  C   UNL     1       1.058   8.317  21.119  0.00  0.00    +0.000 A 
ATOM     21  C   UNL     1       0.986   9.319  20.162  0.00  0.00    +0.000 A 
ATOM     22  N   UNL     1       1.511   9.215  18.920  0.00  0.00    +0.000 NA
ATOM     23  C   UNL     1       2.129   8.049  18.614  0.00  0.00    +0.000 A 
ENDBRANCH  15  18
ENDBRANCH   4  15
TORSDOF 5
ENDMDL
MODEL 6
REMARK VINA RESULT:      -6.8      3.171      4.830
REMARK  Name = 
REMARK  7 active torsions:
REMARK  status: ('A' for Active; 'I' for Inactive)
REMARK    1  A    between atoms: C_1  and  C_2
REMARK    2  A    between atoms: C_2  and  C_3
REMARK    3  A    between atoms: C_3  and  C_4
REMARK    4  A    between atoms: C_3  and  N_5
REMARK    5  A    between atoms: C_6  and  C_8
REMARK    6  A    between atoms: N_11  and  S_12
REMARK    7  A    between atoms: S_12  and  C_15
REMARK                            x       y       z     vdW  Elec       q    Type
REMARK                         _______ _______ _______ _____ _____    ______ ____
ROOT
ATOM      1  C   UNL     1       5.096   6.304  15.824  0.00  0.00    +0.000 C 
ATOM      2  C   UNL     1       4.104   6.441  16.986  0.00  0.00    +0.000 C 
ATOM      3  C   UNL     1       4.263   5.322  18.017  0.00  0.00    +0.000 C 
ATOM      4  N   UNL     1       4.161   3.977  17.370  0.00  0.00    +0.000 NA
ATOM      5  C   UNL     1       5.109   3.811  16.227  0.00  0.00    +0.000 C 
ATOM      6  C   UNL     1       4.916   4.920  15.197  0.00  0.00    +0.000 C 
ENDROOT
BRANCH   1   8
ATOM      7  N   UNL     1       6.680   7.629  17.148  0.00  0.00    +0.000 N 
ATOM      8  C   UNL     1       6.531   6.560  16.292  0.00  0.00    +0.000 C 
ATOM      9  O   UNL     1       7.476   5.863  15.938  0.00  0.00    +0.000 OA
ATOM     10  H   UNL     1       5.862   8.013  17.604  0.00  0.00    +0.000 HD
BRANCH   7  11
ATOM     11  C   UNL     1       7.996   8.013  17.648  0.00  0.00    +0.000 C 
ATOM     12  C   UNL     1       8.335   7.234  18.920  0.00  0.00    +0.000 C 
BRANCH  11  14
ATOM     13  C   UNL     1       9.102   9.888  18.970  0.00  0.00    +0.000 C 
ATOM     14  C   UNL     1       8.073   9.524  17.907  0.00  0.00    +0.000 C 
ENDBRANCH  11  14
ENDBRANCH   7  11
ENDBRANCH   1   8
BRANCH   4  15
ATOM     15  S   UNL     1       4.314   2.669  18.492  0.00  0.00    +0.000 S 
ATOM     16  O   UNL     1       4.112   1.431  17.765  0.00  0.00    +0.000 OA
ATOM     17  O   UNL     1       5.520   2.889  19.261  0.00  0.00    +0.000 OA
BRANCH  15  18
ATOM     18  C   UNL     1       2.931   2.869  19.552  0.00  0.00    +0.000 A 
ATOM     19  C   UNL     1       1.634   2.983  19.057  0.00  0.00    +0.000 A 
ATOM     20  C   UNL     1       0.592   3.180  19.960  0.00  0.00    +0.000 A 
ATOM     21  C   UNL     1       0.896   3.249  21.312  0.00  0.00    +0.000 A 
ATOM     22  N   UNL     1       2.148   3.136  21.811  0.00  0.00    +0.000 NA
ATOM     23  C   UNL     1       3.148   2.958  20.915  0.00  0.00    +0.000 A 
ENDBRANCH  15  18
ENDBRANCH   4  15
TORSDOF 5
ENDMDL
MODEL 7
REMARK VINA RESULT:      -6.7      1.043      1.193
REMARK  Name = 
REMARK  7 active torsions:
REMARK  status: ('A' for Active; 'I' for Inactive)
REMARK    1  A    between atoms: C_1  and  C_2
REMARK    2  A    between atoms: C_2  and  C_3
REMARK    3  A    between atoms: C_3  and  C_4
REMARK    4  A    between atoms: C_3  and  N_5
REMARK    5  A    between atoms: C_6  and  C_8
REMARK    6  A    between atoms: N_11  and  S_12
REMARK    7  A    between atoms: S_12  and  C_15
REMARK                            x       y       z     vdW  Elec       q    Type
REMARK                         _______ _______ _______ _____ _____    ______ ____
ROOT
ATOM      1  C   UNL     1       6.943   5.594  16.368  0.00  0.00    +0.000 C 
ATOM      2  C   UNL     1       7.040   5.148  17.833  0.00  0.00    +0.000 C 
ATOM      3  C   UNL     1       5.675   4.778  18.416  0.00  0.00    +0.000 C 
ATOM      4  N   UNL     1       4.698   5.900  18.253  0.00  0.00    +0.000 NA
ATOM      5  C   UNL     1       4.584   6.364  16.837  0.00  0.00    +0.000 C 
ATOM      6  C   UNL     1       5.951   6.756  16.283  0.00  0.00    +0.000 C 
ENDROOT
BRANCH   1   8
ATOM      7  N   UNL     1       6.714   4.660  14.112  0.00  0.00    +0.000 N 
ATOM      8  C   UNL     1       6.563   4.422  15.460  0.00  0.00    +0.000 C 
ATOM      9  O   UNL     1       6.162   3.348  15.898  0.00  0.00    +0.000 OA
ATOM     10  H   UNL     1       7.271   5.449  13.810  0.00  0.00    +0.000 HD
BRANCH   7  11
ATOM     11  C   UNL     1       6.357   3.646  13.125  0.00  0.00    +0.000 C 
ATOM     12  C   UNL     1       7.136   3.862  11.827  0.00  0.00    +0.000 C 
BRANCH  11  14
ATOM     13  C   UNL     1       4.511   3.339  11.396  0.00  0.00    +0.000 C 
ATOM     14  C   UNL     1       4.846   3.645  12.851  0.00  0.00    +0.000 C 
ENDBRANCH  11  14
ENDBRANCH   7  11
ENDBRANCH   1   8
BRANCH   4  15
ATOM     15  S   UNL     1       3.139   5.545  18.912  0.00  0.00    +0.000 S 
ATOM     16  O   UNL     1       2.408   4.765  17.933  0.00  0.00    +0.000 OA
ATOM     17  O   UNL     1       3.333   5.052  20.259  0.00  0.00    +0.000 OA
BRANCH  15  18
ATOM     18  C   UNL     1       2.360   7.114  19.000  0.00  0.00    +0.000 A 
ATOM     19  C   UNL     1       2.240   7.940  17.884  0.00  0.00    +0.000 A 
ATOM     20  C   UNL     1       1.645   9.188  18.041  0.00  0.00    +0.000 A 
ATOM     21  C   UNL     1       1.194   9.549  19.303  0.00  0.00    +0.000 A 
ATOM     22  N   UNL     1       1.297   8.759  20.396  0.00  0.00    +0.000 NA
ATOM     23  C   UNL     1       1.892   7.554  20.223  0.00  0.00    +0.000 A 
ENDBRANCH  15  18
ENDBRANCH   4  15
TORSDOF 5
ENDMDL
MODEL 8
REMARK VINA RESULT:      -6.7      2.603      3.059
REMARK  Name = 
REMARK  7 active torsions:
REMARK  status: ('A' for Active; 'I' for Inactive)
REMARK    1  A    between atoms: C_1  and  C_2
REMARK    2  A    between atoms: C_2  and  C_3
REMARK    3  A    between atoms: C_3  and  C_4
REMARK    4  A    between atoms: C_3  and  N_5
REMARK    5  A    between atoms: C_6  and  C_8
REMARK    6  A    between atoms: N_11  and  S_12
REMARK    7  A    between atoms: S_12  and  C_15
REMARK                            x       y       z     vdW  Elec       q    Type
REMARK                         _______ _______ _______ _____ _____    ______ ____
ROOT
ATOM      1  C   UNL     1       6.450   6.068  16.164  0.00  0.00    +0.000 C 
ATOM      2  C   UNL     1       7.044   5.791  17.550  0.00  0.00    +0.000 C 
ATOM      3  C   UNL     1       6.507   4.495  18.161  0.00  0.00    +0.000 C 
ATOM      4  N   UNL     1       5.011   4.499  18.201  0.00  0.00    +0.000 NA
ATOM      5  C   UNL     1       4.398   4.774  16.867  0.00  0.00    +0.000 C 
ATOM      6  C   UNL     1       4.925   6.084  16.287  0.00  0.00    +0.000 C 
ENDROOT
BRANCH   1   8
ATOM      7  N   UNL     1       6.136   4.887  14.038  0.00  0.00    +0.000 N 
ATOM      8  C   UNL     1       6.951   5.050  15.136  0.00  0.00    +0.000 C 
ATOM      9  O   UNL     1       8.001   4.432  15.275  0.00  0.00    +0.000 OA
ATOM     10  H   UNL     1       5.426   5.580  13.843  0.00  0.00    +0.000 HD
BRANCH   7  11
ATOM     11  C   UNL     1       6.469   3.924  12.993  0.00  0.00    +0.000 C 
ATOM     12  C   UNL     1       7.376   4.565  11.941  0.00  0.00    +0.000 C 
BRANCH  11  14
ATOM     13  C   UNL     1       5.484   2.132  11.474  0.00  0.00    +0.000 C 
ATOM     14  C   UNL     1       5.203   3.357  12.335  0.00  0.00    +0.000 C 
ENDBRANCH  11  14
ENDBRANCH   7  11
ENDBRANCH   1   8
BRANCH   4  15
ATOM     15  S   UNL     1       4.346   3.063  18.901  0.00  0.00    +0.000 S 
ATOM     16  O   UNL     1       4.010   2.156  17.821  0.00  0.00    +0.000 OA
ATOM     17  O   UNL     1       5.225   2.648  19.972  0.00  0.00    +0.000 OA
BRANCH  15  18
ATOM     18  C   UNL     1       2.832   3.606  19.600  0.00  0.00    +0.000 A 
ATOM     19  C   UNL     1       1.701   2.794  19.629  0.00  0.00    +0.000 A 
ATOM     20  C   UNL     1       0.524   3.310  20.165  0.00  0.00    +0.000 A 
ATOM     21  C   UNL     1       0.535   4.611  20.648  0.00  0.00    +0.000 A 
ATOM     22  N   UNL     1       1.624   5.413  20.631  0.00  0.00    +0.000 NA
ATOM     23  C   UNL     1       2.755   4.895  20.094  0.00  0.00    +0.000 A 
ENDBRANCH  15  18
ENDBRANCH   4  15
TORSDOF 5
ENDMDL
MODEL 9
REMARK VINA RESULT:      -6.6      3.048      3.544
REMARK  Name = 
REMARK  7 active torsions:
REMARK  status: ('A' for Active; 'I' for Inactive)
REMARK    1  A    between atoms: C_1  and  C_2
REMARK    2  A    between atoms: C_2  and  C_3
REMARK    3  A    between atoms: C_3  and  C_4
REMARK    4  A    between atoms: C_3  and  N_5
REMARK    5  A    between atoms: C_6  and  C_8
REMARK    6  A    between atoms: N_11  and  S_12
REMARK    7  A    between atoms: S_12  and  C_15
REMARK                            x       y       z     vdW  Elec       q    Type
REMARK                         _______ _______ _______ _____ _____    ______ ____
ROOT
ATOM      1  C   UNL     1       6.069   6.161  16.706  0.00  0.00    +0.000 C 
ATOM      2  C   UNL     1       6.428   5.911  18.176  0.00  0.00    +0.000 C 
ATOM      3  C   UNL     1       6.111   4.478  18.612  0.00  0.00    +0.000 C 
ATOM      4  N   UNL     1       4.682   4.135  18.335  0.00  0.00    +0.000 NA
ATOM      5  C   UNL     1       4.296   4.374  16.911  0.00  0.00    +0.000 C 
ATOM      6  C   UNL     1       4.592   5.815  16.504  0.00  0.00    +0.000 C 
ENDROOT
BRANCH   1   8
ATOM      7  N   UNL     1       6.758   5.566  14.428  0.00  0.00    +0.000 N 
ATOM      8  C   UNL     1       6.994   5.376  15.772  0.00  0.00    +0.000 C 
ATOM      9  O   UNL     1       7.884   4.641  16.186  0.00  0.00    +0.000 OA
ATOM     10  H   UNL     1       6.196   6.354  14.132  0.00  0.00    +0.000 HD
BRANCH   7  11
ATOM     11  C   UNL     1       7.540   4.856  13.421  0.00  0.00    +0.000 C 
ATOM     12  C   UNL     1       8.458   5.825  12.674  0.00  0.00    +0.000 C 
BRANCH  11  14
ATOM     13  C   UNL     1       5.453   3.426  13.119  0.00  0.00    +0.000 C 
ATOM     14  C   UNL     1       6.630   4.111  12.435  0.00  0.00    +0.000 C 
ENDBRANCH  11  14
ENDBRANCH   7  11
ENDBRANCH   1   8
BRANCH   4  15
ATOM     15  S   UNL     1       4.260   2.530  18.826  0.00  0.00    +0.000 S 
ATOM     16  O   UNL     1       3.775   1.820  17.659  0.00  0.00    +0.000 OA
ATOM     17  O   UNL     1       5.359   2.007  19.608  0.00  0.00    +0.000 OA
BRANCH  15  18
ATOM     18  C   UNL     1       2.884   2.770  19.886  0.00  0.00    +0.000 A 
ATOM     19  C   UNL     1       1.677   3.285  19.420  0.00  0.00    +0.000 A 
ATOM     20  C   UNL     1       0.642   3.484  20.331  0.00  0.00    +0.000 A 
ATOM     21  C   UNL     1       0.863   3.156  21.661  0.00  0.00    +0.000 A 
ATOM     22  N   UNL     1       2.027   2.650  22.131  0.00  0.00    +0.000 NA
ATOM     23  C   UNL     1       3.024   2.477  21.230  0.00  0.00    +0.000 A 
ENDBRANCH  15  18
ENDBRANCH   4  15
TORSDOF 5
ENDMDL
