MODEL 1
REMARK VINA RESULT:      -7.2      0.000      0.000
REMARK  Name = 
REMARK  11 active torsions:
REMARK  status: ('A' for Active; 'I' for Inactive)
REMARK    1  A    between atoms: C_1  and  O_2
REMARK    2  A    between atoms: O_2  and  C_3
REMARK    3  A    between atoms: C_6  and  C_7
REMARK    4  A    between atoms: C_8  and  C_9
REMARK    5  A    between atoms: C_11  and  O_12
REMARK    6  A    between atoms: C_13  and  O_14
REMARK    7  A    between atoms: O_14  and  C_15
REMARK    8  A    between atoms: C_16  and  O_17
REMARK    9  A    between atoms: O_17  and  C_18
REMARK   10  A    between atoms: C_21  and  O_22
REMARK   11  A    between atoms: O_22  and  C_23
REMARK                            x       y       z     vdW  Elec       q    Type
REMARK                         _______ _______ _______ _____ _____    ______ ____
ROOT
ATOM      1  C   UNL     1       2.240   3.354  18.232  0.00  0.00    +0.000 C 
ATOM      2  C   UNL     1       3.402   3.056  17.624  0.00  0.00    +0.000 C 
ENDROOT
BRANCH   1   6
ATOM      3  C   UNL     1       1.767   7.080  20.266  0.00  0.00    +0.000 A 
ATOM      4  C   UNL     1       1.426   5.872  20.899  0.00  0.00    +0.000 A 
ATOM      5  C   UNL     1       1.551   4.650  20.234  0.00  0.00    +0.000 A 
ATOM      6  C   UNL     1       1.975   4.624  18.910  0.00  0.00    +0.000 A 
ATOM      7  C   UNL     1       2.199   5.830  18.243  0.00  0.00    +0.000 A 
ATOM      8  C   UNL     1       2.104   7.065  18.904  0.00  0.00    +0.000 A 
BRANCH   3  10
ATOM      9  C   UNL     1       0.465   8.653  21.454  0.00  0.00    +0.000 C 
ATOM     10  O   UNL     1       1.750   8.262  20.959  0.00  0.00    +0.000 OA
ENDBRANCH   3  10
BRANCH   8  11
ATOM     11  O   UNL     1       2.404   8.098  18.060  0.00  0.00    +0.000 OA
ATOM     12  C   UNL     1       1.471   9.140  17.836  0.00  0.00    +0.000 C 
ENDBRANCH   8  11
ENDBRANCH   1   6
BRANCH   2  13
ATOM     13  C   UNL     1       4.574   3.940  17.588  0.00  0.00    +0.000 A 
ATOM     14  C   UNL     1       5.259   4.248  18.763  0.00  0.00    +0.000 A 
ATOM     15  C   UNL     1       6.392   5.068  18.700  0.00  0.00    +0.000 A 
ATOM     16  C   UNL     1       6.872   5.581  17.478  0.00  0.00    +0.000 A 
ATOM     17  C   UNL     1       6.167   5.278  16.301  0.00  0.00    +0.000 A 
ATOM     18  C   UNL     1       5.012   4.476  16.371  0.00  0.00    +0.000 A 
BRANCH  15  19
ATOM     19  O   UNL     1       7.058   5.380  19.862  0.00  0.00    +0.000 OA
ATOM     20  H   UNL     1       6.411   5.595  20.551  0.00  0.00    +0.000 HD
ENDBRANCH  15  19
BRANCH  16  21
ATOM     21  O   UNL     1       8.014   6.337  17.602  0.00  0.00    +0.000 OA
ATOM     22  C   UNL     1       7.913   7.747  17.692  0.00  0.00    +0.000 C 
ENDBRANCH  16  21
BRANCH  17  23
ATOM     23  O   UNL     1       6.570   5.829  15.112  0.00  0.00    +0.000 OA
ATOM     24  C   UNL     1       7.064   4.924  14.132  0.00  0.00    +0.000 C 
ENDBRANCH  17  23
ENDBRANCH   2  13
TORSDOF 7
ENDMDL
MODEL 2
REMARK VINA RESULT:      -6.6      0.567      2.146
REMARK  Name = 
REMARK  11 active torsions:
REMARK  status: ('A' for Active; 'I' for Inactive)
REMARK    1  A    between atoms: C_1  and  O_2
REMARK    2  A    between atoms: O_2  and  C_3
REMARK    3  A    between atoms: C_6  and  C_7
REMARK    4  A    between atoms: C_8  and  C_9
REMARK    5  A    between atoms: C_11  and  O_12
REMARK    6  A    between atoms: C_13  and  O_14
REMARK    7  A    between atoms: O_14  and  C_15
REMARK    8  A    between atoms: C_16  and  O_17
REMARK    9  A    between atoms: O_17  and  C_18
REMARK   10  A    between atoms: C_21  and  O_22
REMARK   11  A    between atoms: O_22  and  C_23
REMARK                            x       y       z     vdW  Elec       q    Type
REMARK                         _______ _______ _______ _____ _____    ______ ____
ROOT
ATOM      1  C   UNL     1       2.381   3.432  18.166  0.00  0.00    +0.000 C 
ATOM      2  C   UNL     1       3.530   3.151  17.526  0.00  0.00    +0.000 C 
ENDROOT
BRANCH   1   6
ATOM      3  C   UNL     1       1.865   7.196  20.116  0.00  0.00    +0.000 A 
ATOM      4  C   UNL     1       1.571   5.997  20.788  0.00  0.00    +0.000 A 
ATOM      5  C   UNL     1       1.711   4.762  20.152  0.00  0.00    +0.000 A 
ATOM      6  C   UNL     1       2.100   4.712  18.818  0.00  0.00    +0.000 A 
ATOM      7  C   UNL     1       2.275   5.906  18.115  0.00  0.00    +0.000 A 
ATOM      8  C   UNL     1       2.166   7.155  18.746  0.00  0.00    +0.000 A 
BRANCH   3  10
ATOM      9  C   UNL     1       0.744   8.553  21.693  0.00  0.00    +0.000 C 
ATOM     10  O   UNL     1       1.834   8.395  20.779  0.00  0.00    +0.000 OA
ENDBRANCH   3  10
BRANCH   8  11
ATOM     11  O   UNL     1       2.417   8.173  17.869  0.00  0.00    +0.000 OA
ATOM     12  C   UNL     1       1.560   9.299  17.807  0.00  0.00    +0.000 C 
ENDBRANCH   8  11
ENDBRANCH   1   6
BRANCH   2  13
ATOM     13  C   UNL     1       4.674   4.067  17.427  0.00  0.00    +0.000 A 
ATOM     14  C   UNL     1       5.114   4.512  16.181  0.00  0.00    +0.000 A 
ATOM     15  C   UNL     1       6.188   5.408  16.113  0.00  0.00    +0.000 A 
ATOM     16  C   UNL     1       6.829   5.888  17.273  0.00  0.00    +0.000 A 
ATOM     17  C   UNL     1       6.389   5.423  18.524  0.00  0.00    +0.000 A 
ATOM     18  C   UNL     1       5.328   4.500  18.587  0.00  0.00    +0.000 A 
BRANCH  15  19
ATOM     19  O   UNL     1       6.626   5.835  14.883  0.00  0.00    +0.000 OA
ATOM     20  H   UNL     1       6.064   6.564  14.580  0.00  0.00    +0.000 HD
ENDBRANCH  15  19
BRANCH  16  21
ATOM     21  O   UNL     1       7.838   6.786  17.019  0.00  0.00    +0.000 OA
ATOM     22  C   UNL     1       7.713   8.124  17.469  0.00  0.00    +0.000 C 
ENDBRANCH  16  21
BRANCH  17  23
ATOM     23  O   UNL     1       7.049   5.816  19.660  0.00  0.00    +0.000 OA
ATOM     24  C   UNL     1       8.336   5.250  19.869  0.00  0.00    +0.000 C 
ENDBRANCH  17  23
ENDBRANCH   2  13
TORSDOF 7
ENDMDL
MODEL 3
REMARK VINA RESULT:      -6.2      1.161      2.321
REMARK  Name = 
REMARK  11 active torsions:
REMARK  status: ('A' for Active; 'I' for Inactive)
REMARK    1  A    between atoms: C_1  and  O_2
REMARK    2  A    between atoms: O_2  and  C_3
REMARK    3  A    between atoms: C_6  and  C_7
REMARK    4  A    between atoms: C_8  and  C_9
REMARK    5  A    between atoms: C_11  and  O_12
REMARK    6  A    between atoms: C_13  and  O_14
REMARK    7  A    between atoms: O_14  and  C_15
REMARK    8  A    between atoms: C_16  and  O_17
REMARK    9  A    between atoms: O_17  and  C_18
REMARK   10  A    between atoms: C_21  and  O_22
REMARK   11  A    between atoms: O_22  and  C_23
REMARK                            x       y       z     vdW  Elec       q    Type
REMARK                         _______ _______ _______ _____ _____    ______ ____
ROOT
ATOM      1  C   UNL     1       1.911   4.827  19.450  0.00  0.00    +0.000 C 
ATOM      2  C   UNL     1       2.987   4.143  19.021  0.00  0.00    +0.000 C 
ENDROOT
BRANCH   1   6
ATOM      3  C   UNL     1       1.415   9.065  19.631  0.00  0.00    +0.000 A 
ATOM      4  C   UNL     1       1.836   8.445  18.442  0.00  0.00    +0.000 A 
ATOM      5  C   UNL     1       2.027   7.063  18.378  0.00  0.00    +0.000 A 
ATOM      6  C   UNL     1       1.846   6.287  19.518  0.00  0.00    +0.000 A 
ATOM      7  C   UNL     1       1.545   6.916  20.728  0.00  0.00    +0.000 A 
ATOM      8  C   UNL     1       1.323   8.300  20.804  0.00  0.00    +0.000 A 
BRANCH   3  10
ATOM      9  C   UNL     1       1.632  11.155  18.550  0.00  0.00    +0.000 C 
ATOM     10  O   UNL     1       1.121  10.403  19.656  0.00  0.00    +0.000 OA
ENDBRANCH   3  10
BRANCH   8  11
ATOM     11  O   UNL     1       1.007   8.678  22.079  0.00  0.00    +0.000 OA
ATOM     12  C   UNL     1      -0.332   8.977  22.432  0.00  0.00    +0.000 C 
ENDBRANCH   8  11
ENDBRANCH   1   6
BRANCH   2  13
ATOM     13  C   UNL     1       4.253   4.757  18.603  0.00  0.00    +0.000 A 
ATOM     14  C   UNL     1       5.274   4.967  19.530  0.00  0.00    +0.000 A 
ATOM     15  C   UNL     1       6.484   5.527  19.102  0.00  0.00    +0.000 A 
ATOM     16  C   UNL     1       6.707   5.872  17.754  0.00  0.00    +0.000 A 
ATOM     17  C   UNL     1       5.668   5.671  16.829  0.00  0.00    +0.000 A 
ATOM     18  C   UNL     1       4.443   5.134  17.268  0.00  0.00    +0.000 A 
BRANCH  15  19
ATOM     19  O   UNL     1       7.482   5.744  20.020  0.00  0.00    +0.000 OA
ATOM     20  H   UNL     1       8.332   5.803  19.558  0.00  0.00    +0.000 HD
ENDBRANCH  15  19
BRANCH  16  21
ATOM     21  O   UNL     1       7.963   6.375  17.509  0.00  0.00    +0.000 OA
ATOM     22  C   UNL     1       8.166   7.777  17.510  0.00  0.00    +0.000 C 
ENDBRANCH  16  21
BRANCH  17  23
ATOM     23  O   UNL     1       5.836   6.070  15.528  0.00  0.00    +0.000 OA
ATOM     24  C   UNL     1       6.268   5.073  14.613  0.00  0.00    +0.000 C 
ENDBRANCH  17  23
ENDBRANCH   2  13
TORSDOF 7
ENDMDL
MODEL 4
REMARK VINA RESULT:      -6.0      1.069      6.261
REMARK  Name = 
REMARK  11 active torsions:
REMARK  status: ('A' for Active; 'I' for Inactive)
REMARK    1  A    between atoms: C_1  and  O_2
REMARK    2  A    between atoms: O_2  and  C_3
REMARK    3  A    between atoms: C_6  and  C_7
REMARK    4  A    between atoms: C_8  and  C_9
REMARK    5  A    between atoms: C_11  and  O_12
REMARK    6  A    between atoms: C_13  and  O_14
REMARK    7  A    between atoms: O_14  and  C_15
REMARK    8  A    between atoms: C_16  and  O_17
REMARK    9  A    between atoms: O_17  and  C_18
REMARK   10  A    between atoms: C_21  and  O_22
REMARK   11  A    between atoms: O_22  and  C_23
REMARK                            x       y       z     vdW  Elec       q    Type
REMARK                         _______ _______ _______ _____ _____    ______ ____
ROOT
ATOM      1  C   UNL     1       3.117   3.363  19.621  0.00  0.00    +0.000 C 
ATOM      2  C   UNL     1       2.247   4.228  20.173  0.00  0.00    +0.000 C 
ENDROOT
BRANCH   1   6
ATOM      3  C   UNL     1       5.980   4.753  16.773  0.00  0.00    +0.000 A 
ATOM      4  C   UNL     1       4.754   4.210  16.348  0.00  0.00    +0.000 A 
ATOM      5  C   UNL     1       3.821   3.728  17.269  0.00  0.00    +0.000 A 
ATOM      6  C   UNL     1       4.123   3.739  18.626  0.00  0.00    +0.000 A 
ATOM      7  C   UNL     1       5.386   4.165  19.040  0.00  0.00    +0.000 A 
ATOM      8  C   UNL     1       6.325   4.678  18.131  0.00  0.00    +0.000 A 
BRANCH   3  10
ATOM      9  C   UNL     1       6.944   4.646  14.618  0.00  0.00    +0.000 C 
ATOM     10  O   UNL     1       6.840   5.326  15.873  0.00  0.00    +0.000 OA
ENDBRANCH   3  10
BRANCH   8  11
ATOM     11  O   UNL     1       7.469   5.066  18.771  0.00  0.00    +0.000 OA
ATOM     12  C   UNL     1       7.910   6.410  18.708  0.00  0.00    +0.000 C 
ENDBRANCH   8  11
ENDBRANCH   1   6
BRANCH   2  13
ATOM     13  C   UNL     1       2.158   5.652  19.830  0.00  0.00    +0.000 A 
ATOM     14  C   UNL     1       2.539   6.097  18.564  0.00  0.00    +0.000 A 
ATOM     15  C   UNL     1       2.416   7.456  18.249  0.00  0.00    +0.000 A 
ATOM     16  C   UNL     1       1.902   8.389  19.172  0.00  0.00    +0.000 A 
ATOM     17  C   UNL     1       1.534   7.935  20.450  0.00  0.00    +0.000 A 
ATOM     18  C   UNL     1       1.686   6.574  20.772  0.00  0.00    +0.000 A 
BRANCH  15  19
ATOM     19  O   UNL     1       2.804   7.892  17.005  0.00  0.00    +0.000 OA
ATOM     20  H   UNL     1       3.501   8.558  17.104  0.00  0.00    +0.000 HD
ENDBRANCH  15  19
BRANCH  16  21
ATOM     21  O   UNL     1       1.820   9.670  18.680  0.00  0.00    +0.000 OA
ATOM     22  C   UNL     1       0.550  10.230  18.396  0.00  0.00    +0.000 C 
ENDBRANCH  16  21
BRANCH  17  23
ATOM     23  O   UNL     1       1.105   8.838  21.388  0.00  0.00    +0.000 OA
ATOM     24  C   UNL     1      -0.248   8.717  21.807  0.00  0.00    +0.000 C 
ENDBRANCH  17  23
ENDBRANCH   2  13
TORSDOF 7
ENDMDL
MODEL 5
REMARK VINA RESULT:      -5.9      1.547      6.170
REMARK  Name = 
REMARK  11 active torsions:
REMARK  status: ('A' for Active; 'I' for Inactive)
REMARK    1  A    between atoms: C_1  and  O_2
REMARK    2  A    between atoms: O_2  and  C_3
REMARK    3  A    between atoms: C_6  and  C_7
REMARK    4  A    between atoms: C_8  and  C_9
REMARK    5  A    between atoms: C_11  and  O_12
REMARK    6  A    between atoms: C_13  and  O_14
REMARK    7  A    between atoms: O_14  and  C_15
REMARK    8  A    between atoms: C_16  and  O_17
REMARK    9  A    between atoms: O_17  and  C_18
REMARK   10  A    between atoms: C_21  and  O_22
REMARK   11  A    between atoms: O_22  and  C_23
REMARK                            x       y       z     vdW  Elec       q    Type
REMARK                         _______ _______ _______ _____ _____    ______ ____
ROOT
ATOM      1  C   UNL     1       4.963   4.014  16.561  0.00  0.00    +0.000 C 
ATOM      2  C   UNL     1       3.716   3.939  17.059  0.00  0.00    +0.000 C 
ENDROOT
BRANCH   1   6
ATOM      3  C   UNL     1       7.713   6.888  18.115  0.00  0.00    +0.000 A 
ATOM      4  C   UNL     1       7.337   6.918  16.761  0.00  0.00    +0.000 A 
ATOM      5  C   UNL     1       6.459   5.968  16.236  0.00  0.00    +0.000 A 
ATOM      6  C   UNL     1       5.983   4.944  17.047  0.00  0.00    +0.000 A 
ATOM      7  C   UNL     1       6.450   4.843  18.359  0.00  0.00    +0.000 A 
ATOM      8  C   UNL     1       7.310   5.805  18.911  0.00  0.00    +0.000 A 
BRANCH   3  10
ATOM      9  C   UNL     1       8.292   9.178  18.061  0.00  0.00    +0.000 C 
ATOM     10  O   UNL     1       8.484   7.887  18.650  0.00  0.00    +0.000 OA
ENDBRANCH   3  10
BRANCH   8  11
ATOM     11  O   UNL     1       7.599   5.516  20.216  0.00  0.00    +0.000 OA
ATOM     12  C   UNL     1       8.841   4.935  20.568  0.00  0.00    +0.000 C 
ENDBRANCH   8  11
ENDBRANCH   1   6
BRANCH   2  13
ATOM     13  C   UNL     1       3.192   4.800  18.127  0.00  0.00    +0.000 A 
ATOM     14  C   UNL     1       2.999   6.163  17.901  0.00  0.00    +0.000 A 
ATOM     15  C   UNL     1       2.470   6.959  18.923  0.00  0.00    +0.000 A 
ATOM     16  C   UNL     1       2.111   6.419  20.175  0.00  0.00    +0.000 A 
ATOM     17  C   UNL     1       2.323   5.048  20.400  0.00  0.00    +0.000 A 
ATOM     18  C   UNL     1       2.881   4.257  19.379  0.00  0.00    +0.000 A 
BRANCH  15  19
ATOM     19  O   UNL     1       2.293   8.303  18.701  0.00  0.00    +0.000 OA
ATOM     20  H   UNL     1       1.462   8.439  18.220  0.00  0.00    +0.000 HD
ENDBRANCH  15  19
BRANCH  16  21
ATOM     21  O   UNL     1       1.575   7.340  21.044  0.00  0.00    +0.000 OA
ATOM     22  C   UNL     1       0.176   7.563  21.052  0.00  0.00    +0.000 C 
ENDBRANCH  16  21
BRANCH  17  23
ATOM     23  O   UNL     1       2.054   4.518  21.635  0.00  0.00    +0.000 OA
ATOM     24  C   UNL     1       1.593   3.173  21.657  0.00  0.00    +0.000 C 
ENDBRANCH  17  23
ENDBRANCH   2  13
TORSDOF 7
ENDMDL
MODEL 6
REMARK VINA RESULT:      -5.9      1.359      6.017
REMARK  Name = 
REMARK  11 active torsions:
REMARK  status: ('A' for Active; 'I' for Inactive)
REMARK    1  A    between atoms: C_1  and  O_2
REMARK    2  A    between atoms: O_2  and  C_3
REMARK    3  A    between atoms: C_6  and  C_7
REMARK    4  A    between atoms: C_8  and  C_9
REMARK    5  A    between atoms: C_11  and  O_12
REMARK    6  A    between atoms: C_13  and  O_14
REMARK    7  A    between atoms: O_14  and  C_15
REMARK    8  A    between atoms: C_16  and  O_17
REMARK    9  A    between atoms: O_17  and  C_18
REMARK   10  A    between atoms: C_21  and  O_22
REMARK   11  A    between atoms: O_22  and  C_23
REMARK                            x       y       z     vdW  Elec       q    Type
REMARK                         _______ _______ _______ _____ _____    ______ ____
ROOT
ATOM      1  C   UNL     1       3.944   3.298  16.258  0.00  0.00    +0.000 C 
ATOM      2  C   UNL     1       2.877   3.364  17.074  0.00  0.00    +0.000 C 
ENDROOT
BRANCH   1   6
ATOM      3  C   UNL     1       7.086   6.166  16.633  0.00  0.00    +0.000 A 
ATOM      4  C   UNL     1       6.198   6.217  15.544  0.00  0.00    +0.000 A 
ATOM      5  C   UNL     1       5.183   5.269  15.397  0.00  0.00    +0.000 A 
ATOM      6  C   UNL     1       5.073   4.227  16.312  0.00  0.00    +0.000 A 
ATOM      7  C   UNL     1       6.027   4.107  17.324  0.00  0.00    +0.000 A 
ATOM      8  C   UNL     1       7.037   5.066  17.503  0.00  0.00    +0.000 A 
BRANCH   3  10
ATOM      9  C   UNL     1       7.539   8.269  17.611  0.00  0.00    +0.000 C 
ATOM     10  O   UNL     1       8.006   7.162  16.832  0.00  0.00    +0.000 OA
ENDBRANCH   3  10
BRANCH   8  11
ATOM     11  O   UNL     1       7.825   4.757  18.577  0.00  0.00    +0.000 OA
ATOM     12  C   UNL     1       7.718   5.490  19.784  0.00  0.00    +0.000 C 
ENDBRANCH   8  11
ENDBRANCH   1   6
BRANCH   2  13
ATOM     13  C   UNL     1       2.676   4.394  18.100  0.00  0.00    +0.000 A 
ATOM     14  C   UNL     1       2.618   5.742  17.743  0.00  0.00    +0.000 A 
ATOM     15  C   UNL     1       2.395   6.705  18.735  0.00  0.00    +0.000 A 
ATOM     16  C   UNL     1       2.211   6.350  20.087  0.00  0.00    +0.000 A 
ATOM     17  C   UNL     1       2.286   4.992  20.440  0.00  0.00    +0.000 A 
ATOM     18  C   UNL     1       2.538   4.029  19.445  0.00  0.00    +0.000 A 
BRANCH  15  19
ATOM     19  O   UNL     1       2.350   8.031  18.381  0.00  0.00    +0.000 OA
ATOM     20  H   UNL     1       3.087   8.498  18.804  0.00  0.00    +0.000 HD
ENDBRANCH  15  19
BRANCH  16  21
ATOM     21  O   UNL     1       1.968   7.421  20.914  0.00  0.00    +0.000 OA
ATOM     22  C   UNL     1       0.632   7.791  21.205  0.00  0.00    +0.000 C 
ENDBRANCH  16  21
BRANCH  17  23
ATOM     23  O   UNL     1       2.187   4.632  21.759  0.00  0.00    +0.000 OA
ATOM     24  C   UNL     1       2.146   3.237  22.031  0.00  0.00    +0.000 C 
ENDBRANCH  17  23
ENDBRANCH   2  13
TORSDOF 7
ENDMDL
MODEL 7
REMARK VINA RESULT:      -5.9      3.676      6.967
REMARK  Name = 
REMARK  11 active torsions:
REMARK  status: ('A' for Active; 'I' for Inactive)
REMARK    1  A    between atoms: C_1  and  O_2
REMARK    2  A    between atoms: O_2  and  C_3
REMARK    3  A    between atoms: C_6  and  C_7
REMARK    4  A    between atoms: C_8  and  C_9
REMARK    5  A    between atoms: C_11  and  O_12
REMARK    6  A    between atoms: C_13  and  O_14
REMARK    7  A    between atoms: O_14  and  C_15
REMARK    8  A    between atoms: C_16  and  O_17
REMARK    9  A    between atoms: O_17  and  C_18
REMARK   10  A    between atoms: C_21  and  O_22
REMARK   11  A    between atoms: O_22  and  C_23
REMARK                            x       y       z     vdW  Elec       q    Type
REMARK                         _______ _______ _______ _____ _____    ______ ____
ROOT
ATOM      1  C   UNL     1       3.136   7.728  17.627  0.00  0.00    +0.000 C 
ATOM      2  C   UNL     1       2.629   8.973  17.603  0.00  0.00    +0.000 C 
ENDROOT
BRANCH   1   6
ATOM      3  C   UNL     1       1.367   4.666  20.022  0.00  0.00    +0.000 A 
ATOM      4  C   UNL     1       1.795   5.872  20.605  0.00  0.00    +0.000 A 
ATOM      5  C   UNL     1       2.399   6.869  19.836  0.00  0.00    +0.000 A 
ATOM      6  C   UNL     1       2.627   6.655  18.481  0.00  0.00    +0.000 A 
ATOM      7  C   UNL     1       2.312   5.413  17.927  0.00  0.00    +0.000 A 
ATOM      8  C   UNL     1       1.679   4.409  18.678  0.00  0.00    +0.000 A 
BRANCH   3  10
ATOM      9  C   UNL     1       1.487   2.765  21.420  0.00  0.00    +0.000 C 
ATOM     10  O   UNL     1       0.675   3.740  20.757  0.00  0.00    +0.000 OA
ENDBRANCH   3  10
BRANCH   8  11
ATOM     11  O   UNL     1       1.438   3.301  17.914  0.00  0.00    +0.000 OA
ATOM     12  C   UNL     1       2.485   2.403  17.595  0.00  0.00    +0.000 C 
ENDBRANCH   8  11
ENDBRANCH   1   6
BRANCH   2  13
ATOM     13  C   UNL     1       1.527   9.441  18.454  0.00  0.00    +0.000 A 
ATOM     14  C   UNL     1       1.772   9.838  19.768  0.00  0.00    +0.000 A 
ATOM     15  C   UNL     1       0.711  10.309  20.551  0.00  0.00    +0.000 A 
ATOM     16  C   UNL     1      -0.601  10.407  20.043  0.00  0.00    +0.000 A 
ATOM     17  C   UNL     1      -0.842   9.990  18.723  0.00  0.00    +0.000 A 
ATOM     18  C   UNL     1       0.222   9.491  17.948  0.00  0.00    +0.000 A 
BRANCH  15  19
ATOM     19  O   UNL     1       0.954  10.688  21.849  0.00  0.00    +0.000 OA
ATOM     20  H   UNL     1       0.314  10.253  22.433  0.00  0.00    +0.000 HD
ENDBRANCH  15  19
BRANCH  16  21
ATOM     21  O   UNL     1      -1.507  10.923  20.940  0.00  0.00    +0.000 OA
ATOM     22  C   UNL     1      -1.916  12.274  20.821  0.00  0.00    +0.000 C 
ENDBRANCH  16  21
BRANCH  17  23
ATOM     23  O   UNL     1      -2.122  10.004  18.235  0.00  0.00    +0.000 OA
ATOM     24  C   UNL     1      -2.278  10.417  16.883  0.00  0.00    +0.000 C 
ENDBRANCH  17  23
ENDBRANCH   2  13
TORSDOF 7
ENDMDL
MODEL 8
REMARK VINA RESULT:      -5.9      1.192      6.285
REMARK  Name = 
REMARK  11 active torsions:
REMARK  status: ('A' for Active; 'I' for Inactive)
REMARK    1  A    between atoms: C_1  and  O_2
REMARK    2  A    between atoms: O_2  and  C_3
REMARK    3  A    between atoms: C_6  and  C_7
REMARK    4  A    between atoms: C_8  and  C_9
REMARK    5  A    between atoms: C_11  and  O_12
REMARK    6  A    between atoms: C_13  and  O_14
REMARK    7  A    between atoms: O_14  and  C_15
REMARK    8  A    between atoms: C_16  and  O_17
REMARK    9  A    between atoms: O_17  and  C_18
REMARK   10  A    between atoms: C_21  and  O_22
REMARK   11  A    between atoms: O_22  and  C_23
REMARK                            x       y       z     vdW  Elec       q    Type
REMARK                         _______ _______ _______ _____ _____    ______ ____
ROOT
ATOM      1  C   UNL     1       3.247   3.690  18.921  0.00  0.00    +0.000 C 
ATOM      2  C   UNL     1       2.182   4.365  19.388  0.00  0.00    +0.000 C 
ENDROOT
BRANCH   1   6
ATOM      3  C   UNL     1       6.623   5.829  17.415  0.00  0.00    +0.000 A 
ATOM      4  C   UNL     1       5.702   5.234  16.534  0.00  0.00    +0.000 A 
ATOM      5  C   UNL     1       4.609   4.510  17.015  0.00  0.00    +0.000 A 
ATOM      6  C   UNL     1       4.449   4.330  18.385  0.00  0.00    +0.000 A 
ATOM      7  C   UNL     1       5.426   4.817  19.254  0.00  0.00    +0.000 A 
ATOM      8  C   UNL     1       6.516   5.570  18.790  0.00  0.00    +0.000 A 
BRANCH   3  10
ATOM      9  C   UNL     1       7.609   7.976  17.431  0.00  0.00    +0.000 C 
ATOM     10  O   UNL     1       7.627   6.631  16.940  0.00  0.00    +0.000 OA
ENDBRANCH   3  10
BRANCH   8  11
ATOM     11  O   UNL     1       7.315   5.969  19.825  0.00  0.00    +0.000 OA
ATOM     12  C   UNL     1       8.448   5.205  20.198  0.00  0.00    +0.000 C 
ENDBRANCH   8  11
ENDBRANCH   1   6
BRANCH   2  13
ATOM     13  C   UNL     1       2.057   5.828  19.388  0.00  0.00    +0.000 A 
ATOM     14  C   UNL     1       2.306   6.556  18.225  0.00  0.00    +0.000 A 
ATOM     15  C   UNL     1       2.152   7.947  18.241  0.00  0.00    +0.000 A 
ATOM     16  C   UNL     1       1.735   8.635  19.398  0.00  0.00    +0.000 A 
ATOM     17  C   UNL     1       1.499   7.896  20.570  0.00  0.00    +0.000 A 
ATOM     18  C   UNL     1       1.684   6.501  20.558  0.00  0.00    +0.000 A 
BRANCH  15  19
ATOM     19  O   UNL     1       2.410   8.662  17.096  0.00  0.00    +0.000 OA
ATOM     20  H   UNL     1       3.337   8.533  16.843  0.00  0.00    +0.000 HD
ENDBRANCH  15  19
BRANCH  16  21
ATOM     21  O   UNL     1       1.603   9.992  19.221  0.00  0.00    +0.000 OA
ATOM     22  C   UNL     1       0.322  10.543  18.968  0.00  0.00    +0.000 C 
ENDBRANCH  16  21
BRANCH  17  23
ATOM     23  O   UNL     1       1.169   8.553  21.727  0.00  0.00    +0.000 OA
ATOM     24  C   UNL     1      -0.219   8.655  22.020  0.00  0.00    +0.000 C 
ENDBRANCH  17  23
ENDBRANCH   2  13
TORSDOF 7
ENDMDL
MODEL 9
REMARK VINA RESULT:      -5.9      4.518      9.347
REMARK  Name = 
REMARK  11 active torsions:
REMARK  status: ('A' for Active; 'I' for Inactive)
REMARK    1  A    between atoms: C_1  and  O_2
REMARK    2  A    between atoms: O_2  and  C_3
REMARK    3  A    between atoms: C_6  and  C_7
REMARK    4  A    between atoms: C_8  and  C_9
REMARK    5  A    between atoms: C_11  and  O_12
REMARK    6  A    between atoms: C_13  and  O_14
REMARK    7  A    between atoms: O_14  and  C_15
REMARK    8  A    between atoms: C_16  and  O_17
REMARK    9  A    between atoms: O_17  and  C_18
REMARK   10  A    between atoms: C_21  and  O_22
REMARK   11  A    between atoms: O_22  and  C_23
REMARK                            x       y       z     vdW  Elec       q    Type
REMARK                         _______ _______ _______ _____ _____    ______ ____
ROOT
ATOM      1  C   UNL     1       1.147  12.383  18.829  0.00  0.00    +0.000 C 
ATOM      2  C   UNL     1       0.035  13.044  18.463  0.00  0.00    +0.000 C 
ENDROOT
BRANCH   1   6
ATOM      3  C   UNL     1       1.469   8.361  20.228  0.00  0.00    +0.000 A 
ATOM      4  C   UNL     1       1.598   8.654  18.859  0.00  0.00    +0.000 A 
ATOM      5  C   UNL     1       1.468   9.962  18.387  0.00  0.00    +0.000 A 
ATOM      6  C   UNL     1       1.160  10.988  19.272  0.00  0.00    +0.000 A 
ATOM      7  C   UNL     1       0.913  10.680  20.612  0.00  0.00    +0.000 A 
ATOM      8  C   UNL     1       1.066   9.376  21.108  0.00  0.00    +0.000 A 
BRANCH   3  10
ATOM      9  C   UNL     1       2.398   6.233  19.787  0.00  0.00    +0.000 C 
ATOM     10  O   UNL     1       1.709   7.096  20.698  0.00  0.00    +0.000 OA
ENDBRANCH   3  10
BRANCH   8  11
ATOM     11  O   UNL     1       0.809   9.327  22.450  0.00  0.00    +0.000 OA
ATOM     12  C   UNL     1      -0.467   9.683  22.953  0.00  0.00    +0.000 C 
ENDBRANCH   8  11
ENDBRANCH   1   6
BRANCH   2  13
ATOM     13  C   UNL     1      -1.319  12.479  18.495  0.00  0.00    +0.000 A 
ATOM     14  C   UNL     1      -2.175  12.759  19.560  0.00  0.00    +0.000 A 
ATOM     15  C   UNL     1      -3.472  12.233  19.555  0.00  0.00    +0.000 A 
ATOM     16  C   UNL     1      -3.946  11.438  18.492  0.00  0.00    +0.000 A 
ATOM     17  C   UNL     1      -3.073  11.147  17.429  0.00  0.00    +0.000 A 
ATOM     18  C   UNL     1      -1.761  11.655  17.453  0.00  0.00    +0.000 A 
BRANCH  15  19
ATOM     19  O   UNL     1      -4.307  12.502  20.612  0.00  0.00    +0.000 OA
ATOM     20  H   UNL     1      -3.797  12.478  21.435  0.00  0.00    +0.000 HD
ENDBRANCH  15  19
BRANCH  16  21
ATOM     21  O   UNL     1      -5.254  11.038  18.637  0.00  0.00    +0.000 OA
ATOM     22  C   UNL     1      -6.265  11.658  17.862  0.00  0.00    +0.000 C 
ENDBRANCH  16  21
BRANCH  17  23
ATOM     23  O   UNL     1      -3.488  10.313  16.424  0.00  0.00    +0.000 OA
ATOM     24  C   UNL     1      -3.247  10.757  15.096  0.00  0.00    +0.000 C 
ENDBRANCH  17  23
ENDBRANCH   2  13
TORSDOF 7
ENDMDL
