MODEL 1
REMARK VINA RESULT:      -7.5      0.000      0.000
REMARK  Name = 
REMARK  7 active torsions:
REMARK  status: ('A' for Active; 'I' for Inactive)
REMARK    1  A    between atoms: C_1  and  C_2
REMARK    2  A    between atoms: C_5  and  C_6
REMARK    3  A    between atoms: C_6  and  N_7
REMARK    4  A    between atoms: C_8  and  C_10
REMARK    5  A    between atoms: C_10  and  O_11
REMARK    6  A    between atoms: O_11  and  C_12
REMARK    7  A    between atoms: C_20  and  N_21
REMARK                            x       y       z     vdW  Elec       q    Type
REMARK                         _______ _______ _______ _____ _____    ______ ____
ROOT
ATOM      1  N   UNL     1       5.686   4.051  17.573  0.00  0.00    +0.000 N 
ATOM      2  C   UNL     1       4.963   3.887  16.410  0.00  0.00    +0.000 C 
ATOM      3  O   UNL     1       5.468   3.968  15.292  0.00  0.00    +0.000 OA
ATOM      4  H   UNL     1       5.255   3.786  18.450  0.00  0.00    +0.000 HD
ENDROOT
BRANCH   1   5
ATOM      5  C   UNL     1       7.119   4.308  17.558  0.00  0.00    +0.000 C 
BRANCH   5  10
ATOM      6  C   UNL     1       8.584   9.783  18.263  0.00  0.00    +0.000 C 
ATOM      7  C   UNL     1       8.182   8.353  18.084  0.00  0.00    +0.000 A 
ATOM      8  N   UNL     1       7.574   8.001  16.943  0.00  0.00    +0.000 NA
ATOM      9  C   UNL     1       7.240   6.702  16.823  0.00  0.00    +0.000 A 
ATOM     10  C   UNL     1       7.448   5.747  17.804  0.00  0.00    +0.000 A 
ATOM     11  C   UNL     1       8.078   6.225  18.941  0.00  0.00    +0.000 A 
ATOM     12  N   UNL     1       8.445   7.506  19.096  0.00  0.00    +0.000 NA
BRANCH  11  13
ATOM     13  N   UNL     1       8.393   5.404  20.022  0.00  0.00    +0.000 N 
ATOM     14  H   UNL     1       8.760   4.513  19.714  0.00  0.00    +0.000 HD
ATOM     15  H   UNL     1       7.523   5.270  20.536  0.00  0.00    +0.000 HD
ENDBRANCH  11  13
ENDBRANCH   5  10
ENDBRANCH   1   5
BRANCH   2  16
ATOM     16  C   UNL     1       3.459   3.677  16.602  0.00  0.00    +0.000 C 
BRANCH  16  17
ATOM     17  O   UNL     1       2.930   4.576  17.566  0.00  0.00    +0.000 OA
BRANCH  17  18
ATOM     18  C   UNL     1       2.418   4.023  18.716  0.00  0.00    +0.000 A 
ATOM     19  C   UNL     1       2.068   2.673  18.857  0.00  0.00    +0.000 A 
ATOM     20  C   UNL     1       1.570   2.192  20.073  0.00  0.00    +0.000 A 
ATOM     21  C   UNL     1       1.426   3.059  21.150  0.00  0.00    +0.000 A 
ATOM     22  F   UNL     1       0.945   2.593  22.311  0.00  0.00    +0.000 F 
ATOM     23  C   UNL     1       1.774   4.396  21.039  0.00  0.00    +0.000 A 
ATOM     24  C   UNL     1       2.275   4.875  19.828  0.00  0.00    +0.000 A 
ATOM     25 CL   UNL     1       2.688   6.553  19.730  0.00  0.00    +0.000 Cl
ENDBRANCH  17  18
ENDBRANCH  16  17
ENDBRANCH   2  16
TORSDOF 6
ENDMDL
MODEL 2
REMARK VINA RESULT:      -7.3      1.820      2.246
REMARK  Name = 
REMARK  7 active torsions:
REMARK  status: ('A' for Active; 'I' for Inactive)
REMARK    1  A    between atoms: C_1  and  C_2
REMARK    2  A    between atoms: C_5  and  C_6
REMARK    3  A    between atoms: C_6  and  N_7
REMARK    4  A    between atoms: C_8  and  C_10
REMARK    5  A    between atoms: C_10  and  O_11
REMARK    6  A    between atoms: O_11  and  C_12
REMARK    7  A    between atoms: C_20  and  N_21
REMARK                            x       y       z     vdW  Elec       q    Type
REMARK                         _______ _______ _______ _____ _____    ______ ____
ROOT
ATOM      1  N   UNL     1       5.725   3.946  17.332  0.00  0.00    +0.000 N 
ATOM      2  C   UNL     1       4.841   3.540  18.310  0.00  0.00    +0.000 C 
ATOM      3  O   UNL     1       5.178   3.344  19.476  0.00  0.00    +0.000 OA
ATOM      4  H   UNL     1       5.352   4.270  16.448  0.00  0.00    +0.000 HD
ENDROOT
BRANCH   1   5
ATOM      5  C   UNL     1       7.129   4.197  17.621  0.00  0.00    +0.000 C 
BRANCH   5  10
ATOM      6  C   UNL     1       8.456   9.727  18.159  0.00  0.00    +0.000 C 
ATOM      7  C   UNL     1       8.090   8.283  18.025  0.00  0.00    +0.000 A 
ATOM      8  N   UNL     1       7.461   7.887  16.910  0.00  0.00    +0.000 NA
ATOM      9  C   UNL     1       7.161   6.577  16.829  0.00  0.00    +0.000 A 
ATOM     10  C   UNL     1       7.424   5.651  17.825  0.00  0.00    +0.000 A 
ATOM     11  C   UNL     1       8.072   6.173  18.932  0.00  0.00    +0.000 A 
ATOM     12  N   UNL     1       8.406   7.467  19.047  0.00  0.00    +0.000 NA
BRANCH  11  13
ATOM     13  N   UNL     1       8.441   5.387  20.022  0.00  0.00    +0.000 N 
ATOM     14  H   UNL     1       7.727   5.390  20.739  0.00  0.00    +0.000 HD
ATOM     15  H   UNL     1       9.305   5.792  20.381  0.00  0.00    +0.000 HD
ENDBRANCH  11  13
ENDBRANCH   5  10
ENDBRANCH   1   5
BRANCH   2  16
ATOM     16  C   UNL     1       3.415   3.269  17.826  0.00  0.00    +0.000 C 
BRANCH  16  17
ATOM     17  O   UNL     1       2.733   4.478  17.522  0.00  0.00    +0.000 OA
BRANCH  17  18
ATOM     18  C   UNL     1       2.347   5.258  18.586  0.00  0.00    +0.000 A 
ATOM     19  C   UNL     1       1.643   4.784  19.701  0.00  0.00    +0.000 A 
ATOM     20  C   UNL     1       1.307   5.648  20.749  0.00  0.00    +0.000 A 
ATOM     21  C   UNL     1       1.678   6.986  20.685  0.00  0.00    +0.000 A 
ATOM     22  F   UNL     1       1.350   7.809  21.690  0.00  0.00    +0.000 F 
ATOM     23  C   UNL     1       2.383   7.478  19.598  0.00  0.00    +0.000 A 
ATOM     24  C   UNL     1       2.723   6.615  18.555  0.00  0.00    +0.000 A 
ATOM     25 CL   UNL     1       3.596   7.273  17.213  0.00  0.00    +0.000 Cl
ENDBRANCH  17  18
ENDBRANCH  16  17
ENDBRANCH   2  16
TORSDOF 6
ENDMDL
MODEL 3
REMARK VINA RESULT:      -7.2      4.790      8.600
REMARK  Name = 
REMARK  7 active torsions:
REMARK  status: ('A' for Active; 'I' for Inactive)
REMARK    1  A    between atoms: C_1  and  C_2
REMARK    2  A    between atoms: C_5  and  C_6
REMARK    3  A    between atoms: C_6  and  N_7
REMARK    4  A    between atoms: C_8  and  C_10
REMARK    5  A    between atoms: C_10  and  O_11
REMARK    6  A    between atoms: O_11  and  C_12
REMARK    7  A    between atoms: C_20  and  N_21
REMARK                            x       y       z     vdW  Elec       q    Type
REMARK                         _______ _______ _______ _____ _____    ______ ____
ROOT
ATOM      1  N   UNL     1       8.058   7.110  18.925  0.00  0.00    +0.000 N 
ATOM      2  C   UNL     1       8.010   7.890  17.789  0.00  0.00    +0.000 C 
ATOM      3  O   UNL     1       7.925   7.419  16.657  0.00  0.00    +0.000 OA
ATOM      4  H   UNL     1       7.937   7.559  19.824  0.00  0.00    +0.000 HD
ENDROOT
BRANCH   1   5
ATOM      5  C   UNL     1       7.984   5.658  18.864  0.00  0.00    +0.000 C 
BRANCH   5  10
ATOM      6  C   UNL     1       2.884   3.563  17.374  0.00  0.00    +0.000 C 
ATOM      7  C   UNL     1       4.213   4.130  17.759  0.00  0.00    +0.000 A 
ATOM      8  N   UNL     1       4.346   4.666  18.979  0.00  0.00    +0.000 NA
ATOM      9  C   UNL     1       5.563   5.155  19.286  0.00  0.00    +0.000 A 
ATOM     10  C   UNL     1       6.642   5.167  18.417  0.00  0.00    +0.000 A 
ATOM     11  C   UNL     1       6.387   4.593  17.183  0.00  0.00    +0.000 A 
ATOM     12  N   UNL     1       5.197   4.077  16.842  0.00  0.00    +0.000 NA
BRANCH  11  13
ATOM     13  N   UNL     1       7.360   4.492  16.190  0.00  0.00    +0.000 N 
ATOM     14  H   UNL     1       7.505   5.379  15.724  0.00  0.00    +0.000 HD
ATOM     15  H   UNL     1       7.016   3.796  15.529  0.00  0.00    +0.000 HD
ENDBRANCH  11  13
ENDBRANCH   5  10
ENDBRANCH   1   5
BRANCH   2  16
ATOM     16  C   UNL     1       8.154   9.396  18.026  0.00  0.00    +0.000 C 
BRANCH  16  17
ATOM     17  O   UNL     1       9.063   9.669  19.083  0.00  0.00    +0.000 OA
BRANCH  17  18
ATOM     18  C   UNL     1       9.792  10.830  18.991  0.00  0.00    +0.000 A 
ATOM     19  C   UNL     1      10.487  11.239  17.844  0.00  0.00    +0.000 A 
ATOM     20  C   UNL     1      11.190  12.449  17.834  0.00  0.00    +0.000 A 
ATOM     21  C   UNL     1      11.196  13.252  18.968  0.00  0.00    +0.000 A 
ATOM     22  F   UNL     1      11.874  14.408  18.952  0.00  0.00    +0.000 F 
ATOM     23  C   UNL     1      10.509  12.875  20.111  0.00  0.00    +0.000 A 
ATOM     24  C   UNL     1       9.804  11.671  20.120  0.00  0.00    +0.000 A 
ATOM     25 CL   UNL     1       8.968  11.234  21.571  0.00  0.00    +0.000 Cl
ENDBRANCH  17  18
ENDBRANCH  16  17
ENDBRANCH   2  16
TORSDOF 6
ENDMDL
MODEL 4
REMARK VINA RESULT:      -7.2      4.954      8.565
REMARK  Name = 
REMARK  7 active torsions:
REMARK  status: ('A' for Active; 'I' for Inactive)
REMARK    1  A    between atoms: C_1  and  C_2
REMARK    2  A    between atoms: C_5  and  C_6
REMARK    3  A    between atoms: C_6  and  N_7
REMARK    4  A    between atoms: C_8  and  C_10
REMARK    5  A    between atoms: C_10  and  O_11
REMARK    6  A    between atoms: O_11  and  C_12
REMARK    7  A    between atoms: C_20  and  N_21
REMARK                            x       y       z     vdW  Elec       q    Type
REMARK                         _______ _______ _______ _____ _____    ______ ____
ROOT
ATOM      1  N   UNL     1       6.818   7.557  16.825  0.00  0.00    +0.000 N 
ATOM      2  C   UNL     1       7.759   7.923  17.764  0.00  0.00    +0.000 C 
ATOM      3  O   UNL     1       8.193   7.148  18.613  0.00  0.00    +0.000 OA
ATOM      4  H   UNL     1       6.646   8.180  16.045  0.00  0.00    +0.000 HD
ENDROOT
BRANCH   1   5
ATOM      5  C   UNL     1       6.286   6.204  16.757  0.00  0.00    +0.000 C 
BRANCH   5  10
ATOM      6  C   UNL     1       1.855   5.708  20.327  0.00  0.00    +0.000 C 
ATOM      7  C   UNL     1       3.006   5.828  19.378  0.00  0.00    +0.000 A 
ATOM      8  N   UNL     1       2.985   6.818  18.476  0.00  0.00    +0.000 NA
ATOM      9  C   UNL     1       4.046   6.893  17.650  0.00  0.00    +0.000 A 
ATOM     10  C   UNL     1       5.106   6.003  17.657  0.00  0.00    +0.000 A 
ATOM     11  C   UNL     1       5.018   5.018  18.627  0.00  0.00    +0.000 A 
ATOM     12  N   UNL     1       3.991   4.917  19.482  0.00  0.00    +0.000 NA
BRANCH  11  13
ATOM     13  N   UNL     1       6.005   4.050  18.800  0.00  0.00    +0.000 N 
ATOM     14  H   UNL     1       5.636   3.117  18.664  0.00  0.00    +0.000 HD
ATOM     15  H   UNL     1       6.343   4.161  19.756  0.00  0.00    +0.000 HD
ENDBRANCH  11  13
ENDBRANCH   5  10
ENDBRANCH   1   5
BRANCH   2  16
ATOM     16  C   UNL     1       8.173   9.397  17.731  0.00  0.00    +0.000 C 
BRANCH  16  17
ATOM     17  O   UNL     1       8.737   9.803  18.969  0.00  0.00    +0.000 OA
BRANCH  17  18
ATOM     18  C   UNL     1       9.653  10.828  18.928  0.00  0.00    +0.000 A 
ATOM     19  C   UNL     1      10.327  11.240  17.770  0.00  0.00    +0.000 A 
ATOM     20  C   UNL     1      11.231  12.308  17.817  0.00  0.00    +0.000 A 
ATOM     21  C   UNL     1      11.459  12.965  19.020  0.00  0.00    +0.000 A 
ATOM     22  F   UNL     1      12.329  13.985  19.059  0.00  0.00    +0.000 F 
ATOM     23  C   UNL     1      10.799  12.583  20.177  0.00  0.00    +0.000 A 
ATOM     24  C   UNL     1       9.893  11.522  20.129  0.00  0.00    +0.000 A 
ATOM     25 CL   UNL     1       9.097  11.071  21.598  0.00  0.00    +0.000 Cl
ENDBRANCH  17  18
ENDBRANCH  16  17
ENDBRANCH   2  16
TORSDOF 6
ENDMDL
MODEL 5
REMARK VINA RESULT:      -7.2      2.824      4.415
REMARK  Name = 
REMARK  7 active torsions:
REMARK  status: ('A' for Active; 'I' for Inactive)
REMARK    1  A    between atoms: C_1  and  C_2
REMARK    2  A    between atoms: C_5  and  C_6
REMARK    3  A    between atoms: C_6  and  N_7
REMARK    4  A    between atoms: C_8  and  C_10
REMARK    5  A    between atoms: C_10  and  O_11
REMARK    6  A    between atoms: O_11  and  C_12
REMARK    7  A    between atoms: C_20  and  N_21
REMARK                            x       y       z     vdW  Elec       q    Type
REMARK                         _______ _______ _______ _____ _____    ______ ____
ROOT
ATOM      1  N   UNL     1       6.372   5.886  17.161  0.00  0.00    +0.000 N 
ATOM      2  C   UNL     1       6.415   5.243  18.381  0.00  0.00    +0.000 C 
ATOM      3  O   UNL     1       7.292   4.435  18.680  0.00  0.00    +0.000 OA
ATOM      4  H   UNL     1       5.742   6.671  17.052  0.00  0.00    +0.000 HD
ENDROOT
BRANCH   1   5
ATOM      5  C   UNL     1       7.386   5.668  16.141  0.00  0.00    +0.000 C 
BRANCH   5  10
ATOM      6  C   UNL     1       5.355   2.850  11.607  0.00  0.00    +0.000 C 
ATOM      7  C   UNL     1       5.874   3.603  12.790  0.00  0.00    +0.000 A 
ATOM      8  N   UNL     1       5.208   3.504  13.949  0.00  0.00    +0.000 NA
ATOM      9  C   UNL     1       5.718   4.191  14.989  0.00  0.00    +0.000 A 
ATOM     10  C   UNL     1       6.839   5.001  14.917  0.00  0.00    +0.000 A 
ATOM     11  C   UNL     1       7.442   5.032  13.670  0.00  0.00    +0.000 A 
ATOM     12  N   UNL     1       6.980   4.350  12.612  0.00  0.00    +0.000 NA
BRANCH  11  13
ATOM     13  N   UNL     1       8.595   5.772  13.416  0.00  0.00    +0.000 N 
ATOM     14  H   UNL     1       9.094   5.983  14.270  0.00  0.00    +0.000 HD
ATOM     15  H   UNL     1       8.283   6.632  12.965  0.00  0.00    +0.000 HD
ENDBRANCH  11  13
ENDBRANCH   5  10
ENDBRANCH   1   5
BRANCH   2  16
ATOM     16  C   UNL     1       5.243   5.545  19.318  0.00  0.00    +0.000 C 
BRANCH  16  17
ATOM     17  O   UNL     1       4.042   5.762  18.591  0.00  0.00    +0.000 OA
BRANCH  17  18
ATOM     18  C   UNL     1       3.152   4.716  18.536  0.00  0.00    +0.000 A 
ATOM     19  C   UNL     1       3.284   3.609  17.686  0.00  0.00    +0.000 A 
ATOM     20  C   UNL     1       2.337   2.579  17.710  0.00  0.00    +0.000 A 
ATOM     21  C   UNL     1       1.260   2.652  18.586  0.00  0.00    +0.000 A 
ATOM     22  F   UNL     1       0.355   1.664  18.602  0.00  0.00    +0.000 F 
ATOM     23  C   UNL     1       1.113   3.731  19.444  0.00  0.00    +0.000 A 
ATOM     24  C   UNL     1       2.060   4.756  19.424  0.00  0.00    +0.000 A 
ATOM     25 CL   UNL     1       1.832   6.089  20.504  0.00  0.00    +0.000 Cl
ENDBRANCH  17  18
ENDBRANCH  16  17
ENDBRANCH   2  16
TORSDOF 6
ENDMDL
MODEL 6
REMARK VINA RESULT:      -7.1      4.926      8.729
REMARK  Name = 
REMARK  7 active torsions:
REMARK  status: ('A' for Active; 'I' for Inactive)
REMARK    1  A    between atoms: C_1  and  C_2
REMARK    2  A    between atoms: C_5  and  C_6
REMARK    3  A    between atoms: C_6  and  N_7
REMARK    4  A    between atoms: C_8  and  C_10
REMARK    5  A    between atoms: C_10  and  O_11
REMARK    6  A    between atoms: O_11  and  C_12
REMARK    7  A    between atoms: C_20  and  N_21
REMARK                            x       y       z     vdW  Elec       q    Type
REMARK                         _______ _______ _______ _____ _____    ______ ____
ROOT
ATOM      1  N   UNL     1       8.098   6.750  18.862  0.00  0.00    +0.000 N 
ATOM      2  C   UNL     1       8.165   7.909  18.119  0.00  0.00    +0.000 C 
ATOM      3  O   UNL     1       7.864   7.959  16.928  0.00  0.00    +0.000 OA
ATOM      4  H   UNL     1       8.176   6.817  19.869  0.00  0.00    +0.000 HD
ENDROOT
BRANCH   1   5
ATOM      5  C   UNL     1       7.637   5.494  18.288  0.00  0.00    +0.000 C 
BRANCH   5  10
ATOM      6  C   UNL     1       1.965   4.857  18.085  0.00  0.00    +0.000 C 
ATOM      7  C   UNL     1       3.448   5.042  18.145  0.00  0.00    +0.000 A 
ATOM      8  N   UNL     1       4.063   4.874  19.323  0.00  0.00    +0.000 NA
ATOM      9  C   UNL     1       5.400   5.041  19.326  0.00  0.00    +0.000 A 
ATOM     10  C   UNL     1       6.144   5.406  18.217  0.00  0.00    +0.000 A 
ATOM     11  C   UNL     1       5.403   5.559  17.057  0.00  0.00    +0.000 A 
ATOM     12  N   UNL     1       4.075   5.384  17.004  0.00  0.00    +0.000 NA
BRANCH  11  13
ATOM     13  N   UNL     1       5.986   5.898  15.838  0.00  0.00    +0.000 N 
ATOM     14  H   UNL     1       6.659   6.646  15.945  0.00  0.00    +0.000 HD
ATOM     15  H   UNL     1       5.220   6.194  15.233  0.00  0.00    +0.000 HD
ENDBRANCH  11  13
ENDBRANCH   5  10
ENDBRANCH   1   5
BRANCH   2  16
ATOM     16  C   UNL     1       8.721   9.127  18.860  0.00  0.00    +0.000 C 
BRANCH  16  17
ATOM     17  O   UNL     1       8.638  10.300  18.064  0.00  0.00    +0.000 OA
BRANCH  17  18
ATOM     18  C   UNL     1       9.453  11.350  18.417  0.00  0.00    +0.000 A 
ATOM     19  C   UNL     1      10.642  11.217  19.147  0.00  0.00    +0.000 A 
ATOM     20  C   UNL     1      11.421  12.341  19.446  0.00  0.00    +0.000 A 
ATOM     21  C   UNL     1      11.013  13.597  19.012  0.00  0.00    +0.000 A 
ATOM     22  F   UNL     1      11.762  14.670  19.304  0.00  0.00    +0.000 F 
ATOM     23  C   UNL     1       9.847  13.753  18.280  0.00  0.00    +0.000 A 
ATOM     24  C   UNL     1       9.073  12.632  17.977  0.00  0.00    +0.000 A 
ATOM     25 CL   UNL     1       7.619  12.874  17.070  0.00  0.00    +0.000 Cl
ENDBRANCH  17  18
ENDBRANCH  16  17
ENDBRANCH   2  16
TORSDOF 6
ENDMDL
MODEL 7
REMARK VINA RESULT:      -7.1      3.763      5.092
REMARK  Name = 
REMARK  7 active torsions:
REMARK  status: ('A' for Active; 'I' for Inactive)
REMARK    1  A    between atoms: C_1  and  C_2
REMARK    2  A    between atoms: C_5  and  C_6
REMARK    3  A    between atoms: C_6  and  N_7
REMARK    4  A    between atoms: C_8  and  C_10
REMARK    5  A    between atoms: C_10  and  O_11
REMARK    6  A    between atoms: O_11  and  C_12
REMARK    7  A    between atoms: C_20  and  N_21
REMARK                            x       y       z     vdW  Elec       q    Type
REMARK                         _______ _______ _______ _____ _____    ______ ____
ROOT
ATOM      1  N   UNL     1       4.491   5.754  19.492  0.00  0.00    +0.000 N 
ATOM      2  C   UNL     1       3.325   5.122  19.869  0.00  0.00    +0.000 C 
ATOM      3  O   UNL     1       3.250   3.908  20.048  0.00  0.00    +0.000 OA
ATOM      4  H   UNL     1       4.532   6.764  19.547  0.00  0.00    +0.000 HD
ENDROOT
BRANCH   1   5
ATOM      5  C   UNL     1       5.735   5.023  19.301  0.00  0.00    +0.000 C 
BRANCH   5  10
ATOM      6  C   UNL     1       7.060   4.826  13.749  0.00  0.00    +0.000 C 
ATOM      7  C   UNL     1       6.729   4.866  15.207  0.00  0.00    +0.000 A 
ATOM      8  N   UNL     1       7.346   5.774  15.975  0.00  0.00    +0.000 NA
ATOM      9  C   UNL     1       7.009   5.780  17.278  0.00  0.00    +0.000 A 
ATOM     10  C   UNL     1       6.114   4.897  17.858  0.00  0.00    +0.000 A 
ATOM     11  C   UNL     1       5.543   3.999  16.972  0.00  0.00    +0.000 A 
ATOM     12  N   UNL     1       5.834   3.970  15.663  0.00  0.00    +0.000 NA
BRANCH  11  13
ATOM     13  N   UNL     1       4.600   3.053  17.370  0.00  0.00    +0.000 N 
ATOM     14  H   UNL     1       4.900   2.114  17.140  0.00  0.00    +0.000 HD
ATOM     15  H   UNL     1       3.742   3.284  16.870  0.00  0.00    +0.000 HD
ENDBRANCH  11  13
ENDBRANCH   5  10
ENDBRANCH   1   5
BRANCH   2  16
ATOM     16  C   UNL     1       2.097   6.030  19.974  0.00  0.00    +0.000 C 
BRANCH  16  17
ATOM     17  O   UNL     1       2.455   7.400  19.864  0.00  0.00    +0.000 OA
BRANCH  17  18
ATOM     18  C   UNL     1       1.520   8.321  20.271  0.00  0.00    +0.000 A 
ATOM     19  C   UNL     1       0.944   8.352  21.549  0.00  0.00    +0.000 A 
ATOM     20  C   UNL     1       0.010   9.340  21.883  0.00  0.00    +0.000 A 
ATOM     21  C   UNL     1      -0.345  10.299  20.942  0.00  0.00    +0.000 A 
ATOM     22  F   UNL     1      -1.241  11.241  21.268  0.00  0.00    +0.000 F 
ATOM     23  C   UNL     1       0.218  10.296  19.675  0.00  0.00    +0.000 A 
ATOM     24  C   UNL     1       1.153   9.314  19.344  0.00  0.00    +0.000 A 
ATOM     25 CL   UNL     1       1.823   9.342  17.748  0.00  0.00    +0.000 Cl
ENDBRANCH  17  18
ENDBRANCH  16  17
ENDBRANCH   2  16
TORSDOF 6
ENDMDL
MODEL 8
REMARK VINA RESULT:      -7.1      2.151      2.560
REMARK  Name = 
REMARK  7 active torsions:
REMARK  status: ('A' for Active; 'I' for Inactive)
REMARK    1  A    between atoms: C_1  and  C_2
REMARK    2  A    between atoms: C_5  and  C_6
REMARK    3  A    between atoms: C_6  and  N_7
REMARK    4  A    between atoms: C_8  and  C_10
REMARK    5  A    between atoms: C_10  and  O_11
REMARK    6  A    between atoms: O_11  and  C_12
REMARK    7  A    between atoms: C_20  and  N_21
REMARK                            x       y       z     vdW  Elec       q    Type
REMARK                         _______ _______ _______ _____ _____    ______ ____
ROOT
ATOM      1  N   UNL     1       4.867   3.966  17.676  0.00  0.00    +0.000 N 
ATOM      2  C   UNL     1       3.931   3.026  18.053  0.00  0.00    +0.000 C 
ATOM      3  O   UNL     1       4.099   2.256  18.996  0.00  0.00    +0.000 OA
ATOM      4  H   UNL     1       4.590   4.687  17.021  0.00  0.00    +0.000 HD
ENDROOT
BRANCH   1   5
ATOM      5  C   UNL     1       6.122   4.132  18.394  0.00  0.00    +0.000 C 
BRANCH   5  10
ATOM      6  C   UNL     1       8.322   9.351  17.651  0.00  0.00    +0.000 C 
ATOM      7  C   UNL     1       7.732   7.992  17.858  0.00  0.00    +0.000 A 
ATOM      8  N   UNL     1       6.678   7.636  17.111  0.00  0.00    +0.000 NA
ATOM      9  C   UNL     1       6.188   6.400  17.324  0.00  0.00    +0.000 A 
ATOM     10  C   UNL     1       6.675   5.519  18.275  0.00  0.00    +0.000 A 
ATOM     11  C   UNL     1       7.760   5.995  18.992  0.00  0.00    +0.000 A 
ATOM     12  N   UNL     1       8.293   7.210  18.799  0.00  0.00    +0.000 NA
BRANCH  11  13
ATOM     13  N   UNL     1       8.399   5.238  19.971  0.00  0.00    +0.000 N 
ATOM     14  H   UNL     1       8.016   5.423  20.890  0.00  0.00    +0.000 HD
ATOM     15  H   UNL     1       9.383   5.507  19.937  0.00  0.00    +0.000 HD
ENDBRANCH  11  13
ENDBRANCH   5  10
ENDBRANCH   1   5
BRANCH   2  16
ATOM     16  C   UNL     1       2.691   2.947  17.160  0.00  0.00    +0.000 C 
BRANCH  16  17
ATOM     17  O   UNL     1       1.557   3.518  17.798  0.00  0.00    +0.000 OA
BRANCH  17  18
ATOM     18  C   UNL     1       1.750   4.707  18.461  0.00  0.00    +0.000 A 
ATOM     19  C   UNL     1       2.134   5.904  17.842  0.00  0.00    +0.000 A 
ATOM     20  C   UNL     1       2.290   7.074  18.595  0.00  0.00    +0.000 A 
ATOM     21  C   UNL     1       2.058   7.048  19.965  0.00  0.00    +0.000 A 
ATOM     22  F   UNL     1       2.212   8.171  20.680  0.00  0.00    +0.000 F 
ATOM     23  C   UNL     1       1.669   5.878  20.599  0.00  0.00    +0.000 A 
ATOM     24  C   UNL     1       1.508   4.713  19.847  0.00  0.00    +0.000 A 
ATOM     25 CL   UNL     1       1.030   3.274  20.681  0.00  0.00    +0.000 Cl
ENDBRANCH  17  18
ENDBRANCH  16  17
ENDBRANCH   2  16
TORSDOF 6
ENDMDL
MODEL 9
REMARK VINA RESULT:      -6.9      3.307      5.188
REMARK  Name = 
REMARK  7 active torsions:
REMARK  status: ('A' for Active; 'I' for Inactive)
REMARK    1  A    between atoms: C_1  and  C_2
REMARK    2  A    between atoms: C_5  and  C_6
REMARK    3  A    between atoms: C_6  and  N_7
REMARK    4  A    between atoms: C_8  and  C_10
REMARK    5  A    between atoms: C_10  and  O_11
REMARK    6  A    between atoms: O_11  and  C_12
REMARK    7  A    between atoms: C_20  and  N_21
REMARK                            x       y       z     vdW  Elec       q    Type
REMARK                         _______ _______ _______ _____ _____    ______ ____
ROOT
ATOM      1  N   UNL     1       8.391   8.555  18.375  0.00  0.00    +0.000 N 
ATOM      2  C   UNL     1       7.775   7.437  17.851  0.00  0.00    +0.000 C 
ATOM      3  O   UNL     1       7.185   7.442  16.773  0.00  0.00    +0.000 OA
ATOM      4  H   UNL     1       9.013   8.437  19.165  0.00  0.00    +0.000 HD
ENDROOT
BRANCH   1   5
ATOM      5  C   UNL     1       8.407   9.826  17.667  0.00  0.00    +0.000 C 
BRANCH   5  10
ATOM      6  C   UNL     1      10.486  13.963  21.011  0.00  0.00    +0.000 C 
ATOM      7  C   UNL     1       9.959  12.879  20.126  0.00  0.00    +0.000 A 
ATOM      8  N   UNL     1      10.179  11.606  20.482  0.00  0.00    +0.000 NA
ATOM      9  C   UNL     1       9.678  10.663  19.660  0.00  0.00    +0.000 A 
ATOM     10  C   UNL     1       9.002  10.932  18.482  0.00  0.00    +0.000 A 
ATOM     11  C   UNL     1       8.838  12.281  18.213  0.00  0.00    +0.000 A 
ATOM     12  N   UNL     1       9.304  13.252  19.012  0.00  0.00    +0.000 NA
BRANCH  11  13
ATOM     13  N   UNL     1       8.160  12.741  17.087  0.00  0.00    +0.000 N 
ATOM     14  H   UNL     1       8.063  12.013  16.391  0.00  0.00    +0.000 HD
ATOM     15  H   UNL     1       8.718  13.511  16.718  0.00  0.00    +0.000 HD
ENDBRANCH  11  13
ENDBRANCH   5  10
ENDBRANCH   1   5
BRANCH   2  16
ATOM     16  C   UNL     1       7.805   6.197  18.748  0.00  0.00    +0.000 C 
BRANCH  16  17
ATOM     17  O   UNL     1       7.397   5.036  18.039  0.00  0.00    +0.000 OA
BRANCH  17  18
ATOM     18  C   UNL     1       6.058   4.726  18.073  0.00  0.00    +0.000 A 
ATOM     19  C   UNL     1       5.237   4.886  19.198  0.00  0.00    +0.000 A 
ATOM     20  C   UNL     1       3.877   4.561  19.136  0.00  0.00    +0.000 A 
ATOM     21  C   UNL     1       3.336   4.079  17.950  0.00  0.00    +0.000 A 
ATOM     22  F   UNL     1       2.034   3.766  17.898  0.00  0.00    +0.000 F 
ATOM     23  C   UNL     1       4.125   3.920  16.821  0.00  0.00    +0.000 A 
ATOM     24  C   UNL     1       5.480   4.250  16.881  0.00  0.00    +0.000 A 
ATOM     25 CL   UNL     1       6.430   4.027  15.451  0.00  0.00    +0.000 Cl
ENDBRANCH  17  18
ENDBRANCH  16  17
ENDBRANCH   2  16
TORSDOF 6
ENDMDL
