MODEL 1
REMARK VINA RESULT:      -8.2      0.000      0.000
REMARK  Name = 
REMARK  6 active torsions:
REMARK  status: ('A' for Active; 'I' for Inactive)
REMARK    1  A    between atoms: C_2  and  C_3
REMARK    2  A    between atoms: C_3  and  S_4
REMARK    3  A    between atoms: S_4  and  C_5
REMARK    4  A    between atoms: C_5  and  N_7
REMARK    5  A    between atoms: C_16  and  C_17
REMARK    6  A    between atoms: C_23  and  C_24
REMARK                            x       y       z     vdW  Elec       q    Type
REMARK                         _______ _______ _______ _____ _____    ______ ____
ROOT
ATOM      1  O   UNL     1       1.231  11.919  18.341  0.00  0.00    +0.000 OA
ATOM      2  C   UNL     1       1.249  10.686  18.426  0.00  0.00    +0.000 C 
ATOM      3  N   UNL     1       2.378  10.033  18.003  0.00  0.00    +0.000 N 
ATOM      4  C   UNL     1       2.613   8.702  18.150  0.00  0.00    +0.000 A 
ATOM      5  N   UNL     1       1.922   7.809  18.814  0.00  0.00    +0.000 NA
ATOM      6  C   UNL     1       2.538   6.615  18.524  0.00  0.00    +0.000 A 
ATOM      7  C   UNL     1       3.666   6.852  17.759  0.00  0.00    +0.000 A 
ATOM      8  O   UNL     1       3.713   8.207  17.513  0.00  0.00    +0.000 OA
ATOM      9  H   UNL     1       3.088  10.589  17.550  0.00  0.00    +0.000 HD
ENDROOT
BRANCH   6  10
ATOM     10  C   UNL     1       2.007   5.346  18.989  0.00  0.00    +0.000 A 
ATOM     11  C   UNL     1       1.824   5.078  20.352  0.00  0.00    +0.000 A 
ATOM     12  C   UNL     1       1.292   3.855  20.769  0.00  0.00    +0.000 A 
ATOM     13  C   UNL     1       0.972   2.877  19.831  0.00  0.00    +0.000 A 
ATOM     14  C   UNL     1       1.189   3.116  18.477  0.00  0.00    +0.000 A 
ATOM     15  C   UNL     1       1.705   4.344  18.056  0.00  0.00    +0.000 A 
ENDBRANCH   6  10
BRANCH   7  16
ATOM     16  C   UNL     1       4.754   6.060  17.206  0.00  0.00    +0.000 A 
ATOM     17  C   UNL     1       5.522   5.220  18.021  0.00  0.00    +0.000 A 
ATOM     18  C   UNL     1       6.594   4.499  17.486  0.00  0.00    +0.000 A 
ATOM     19  C   UNL     1       6.909   4.616  16.132  0.00  0.00    +0.000 A 
ATOM     20  C   UNL     1       6.150   5.443  15.311  0.00  0.00    +0.000 A 
ATOM     21  C   UNL     1       5.073   6.153  15.843  0.00  0.00    +0.000 A 
ENDBRANCH   7  16
BRANCH   2  22
ATOM     22  C   UNL     1       0.082   9.881  18.993  0.00  0.00    +0.000 C 
BRANCH  22  23
ATOM     23  S   UNL     1      -1.242  10.933  19.664  0.00  0.00    +0.000 S 
BRANCH  23  24
ATOM     24  C   UNL     1      -2.369  10.861  18.301  0.00  0.00    +0.000 C 
ATOM     25  S   UNL     1      -2.015   9.938  16.938  0.00  0.00    +0.000 S 
BRANCH  24  26
ATOM     26  N   UNL     1      -3.540  11.596  18.470  0.00  0.00    +0.000 N 
ATOM     27  C   UNL     1      -3.792  12.529  19.582  0.00  0.00    +0.000 C 
ATOM     28  C   UNL     1      -5.142  12.226  20.232  0.00  0.00    +0.000 C 
ATOM     29  O   UNL     1      -6.199  12.277  19.259  0.00  0.00    +0.000 OA
ATOM     30  C   UNL     1      -5.970  11.332  18.201  0.00  0.00    +0.000 C 
ATOM     31  C   UNL     1      -4.637  11.602  17.487  0.00  0.00    +0.000 C 
ENDBRANCH  24  26
ENDBRANCH  23  24
ENDBRANCH  22  23
ENDBRANCH   2  22
TORSDOF 6
ENDMDL
MODEL 2
REMARK VINA RESULT:      -8.1      2.402      2.814
REMARK  Name = 
REMARK  6 active torsions:
REMARK  status: ('A' for Active; 'I' for Inactive)
REMARK    1  A    between atoms: C_2  and  C_3
REMARK    2  A    between atoms: C_3  and  S_4
REMARK    3  A    between atoms: S_4  and  C_5
REMARK    4  A    between atoms: C_5  and  N_7
REMARK    5  A    between atoms: C_16  and  C_17
REMARK    6  A    between atoms: C_23  and  C_24
REMARK                            x       y       z     vdW  Elec       q    Type
REMARK                         _______ _______ _______ _____ _____    ______ ____
ROOT
ATOM      1  O   UNL     1       1.570  11.750  18.409  0.00  0.00    +0.000 OA
ATOM      2  C   UNL     1       1.548  10.523  18.561  0.00  0.00    +0.000 C 
ATOM      3  N   UNL     1       2.514   9.784  17.929  0.00  0.00    +0.000 N 
ATOM      4  C   UNL     1       2.711   8.449  18.098  0.00  0.00    +0.000 A 
ATOM      5  N   UNL     1       2.150   7.632  18.954  0.00  0.00    +0.000 NA
ATOM      6  C   UNL     1       2.623   6.389  18.602  0.00  0.00    +0.000 A 
ATOM      7  C   UNL     1       3.553   6.522  17.587  0.00  0.00    +0.000 A 
ATOM      8  O   UNL     1       3.608   7.858  17.257  0.00  0.00    +0.000 OA
ATOM      9  H   UNL     1       3.127  10.273  17.295  0.00  0.00    +0.000 HD
ENDROOT
BRANCH   6  10
ATOM     10  C   UNL     1       2.152   5.179  19.250  0.00  0.00    +0.000 A 
ATOM     11  C   UNL     1       1.412   4.211  18.558  0.00  0.00    +0.000 A 
ATOM     12  C   UNL     1       0.989   3.047  19.203  0.00  0.00    +0.000 A 
ATOM     13  C   UNL     1       1.269   2.855  20.554  0.00  0.00    +0.000 A 
ATOM     14  C   UNL     1       1.966   3.830  21.263  0.00  0.00    +0.000 A 
ATOM     15  C   UNL     1       2.405   4.987  20.616  0.00  0.00    +0.000 A 
ENDBRANCH   6  10
BRANCH   7  16
ATOM     16  C   UNL     1       4.443   5.639  16.848  0.00  0.00    +0.000 A 
ATOM     17  C   UNL     1       4.655   4.318  17.259  0.00  0.00    +0.000 A 
ATOM     18  C   UNL     1       5.549   3.495  16.567  0.00  0.00    +0.000 A 
ATOM     19  C   UNL     1       6.240   3.987  15.461  0.00  0.00    +0.000 A 
ATOM     20  C   UNL     1       6.035   5.297  15.039  0.00  0.00    +0.000 A 
ATOM     21  C   UNL     1       5.134   6.114  15.723  0.00  0.00    +0.000 A 
ENDBRANCH   7  16
BRANCH   2  22
ATOM     22  C   UNL     1       0.506   9.818  19.426  0.00  0.00    +0.000 C 
BRANCH  22  23
ATOM     23  S   UNL     1       0.463  10.448  21.133  0.00  0.00    +0.000 S 
BRANCH  23  24
ATOM     24  C   UNL     1      -0.932  11.530  20.992  0.00  0.00    +0.000 C 
ATOM     25  S   UNL     1      -1.751  11.694  19.530  0.00  0.00    +0.000 S 
BRANCH  24  26
ATOM     26  N   UNL     1      -1.283  12.188  22.167  0.00  0.00    +0.000 N 
ATOM     27  C   UNL     1      -2.087  11.597  23.252  0.00  0.00    +0.000 C 
ATOM     28  C   UNL     1      -3.233  12.534  23.633  0.00  0.00    +0.000 C 
ATOM     29  O   UNL     1      -2.732  13.830  24.003  0.00  0.00    +0.000 OA
ATOM     30  C   UNL     1      -1.988  14.419  22.924  0.00  0.00    +0.000 C 
ATOM     31  C   UNL     1      -0.800  13.536  22.512  0.00  0.00    +0.000 C 
ENDBRANCH  24  26
ENDBRANCH  23  24
ENDBRANCH  22  23
ENDBRANCH   2  22
TORSDOF 6
ENDMDL
MODEL 3
REMARK VINA RESULT:      -8.0      1.478      1.929
REMARK  Name = 
REMARK  6 active torsions:
REMARK  status: ('A' for Active; 'I' for Inactive)
REMARK    1  A    between atoms: C_2  and  C_3
REMARK    2  A    between atoms: C_3  and  S_4
REMARK    3  A    between atoms: S_4  and  C_5
REMARK    4  A    between atoms: C_5  and  N_7
REMARK    5  A    between atoms: C_16  and  C_17
REMARK    6  A    between atoms: C_23  and  C_24
REMARK                            x       y       z     vdW  Elec       q    Type
REMARK                         _______ _______ _______ _____ _____    ______ ____
ROOT
ATOM      1  O   UNL     1       1.400  11.832  18.333  0.00  0.00    +0.000 OA
ATOM      2  C   UNL     1       1.395  10.599  18.420  0.00  0.00    +0.000 C 
ATOM      3  N   UNL     1       2.485   9.921  17.939  0.00  0.00    +0.000 N 
ATOM      4  C   UNL     1       2.696   8.584  18.076  0.00  0.00    +0.000 A 
ATOM      5  N   UNL     1       2.021   7.708  18.777  0.00  0.00    +0.000 NA
ATOM      6  C   UNL     1       2.594   6.499  18.458  0.00  0.00    +0.000 A 
ATOM      7  C   UNL     1       3.685   6.710  17.634  0.00  0.00    +0.000 A 
ATOM      8  O   UNL     1       3.750   8.064  17.383  0.00  0.00    +0.000 OA
ATOM      9  H   UNL     1       3.183  10.459  17.449  0.00  0.00    +0.000 HD
ENDROOT
BRANCH   6  10
ATOM     10  C   UNL     1       2.058   5.244  18.952  0.00  0.00    +0.000 A 
ATOM     11  C   UNL     1       1.632   4.230  18.083  0.00  0.00    +0.000 A 
ATOM     12  C   UNL     1       1.140   3.024  18.588  0.00  0.00    +0.000 A 
ATOM     13  C   UNL     1       1.034   2.834  19.963  0.00  0.00    +0.000 A 
ATOM     14  C   UNL     1       1.414   3.851  20.836  0.00  0.00    +0.000 A 
ATOM     15  C   UNL     1       1.923   5.050  20.334  0.00  0.00    +0.000 A 
ENDBRANCH   6  10
BRANCH   7  16
ATOM     16  C   UNL     1       4.724   5.893  17.027  0.00  0.00    +0.000 A 
ATOM     17  C   UNL     1       5.403   4.919  17.769  0.00  0.00    +0.000 A 
ATOM     18  C   UNL     1       6.431   4.173  17.186  0.00  0.00    +0.000 A 
ATOM     19  C   UNL     1       6.791   4.396  15.857  0.00  0.00    +0.000 A 
ATOM     20  C   UNL     1       6.121   5.357  15.107  0.00  0.00    +0.000 A 
ATOM     21  C   UNL     1       5.087   6.094  15.687  0.00  0.00    +0.000 A 
ENDBRANCH   7  16
BRANCH   2  22
ATOM     22  C   UNL     1       0.241   9.821  19.048  0.00  0.00    +0.000 C 
BRANCH  22  23
ATOM     23  S   UNL     1      -0.371  10.584  20.583  0.00  0.00    +0.000 S 
BRANCH  23  24
ATOM     24  C   UNL     1      -1.717  11.516  19.909  0.00  0.00    +0.000 C 
ATOM     25  S   UNL     1      -2.137  11.373  18.286  0.00  0.00    +0.000 S 
BRANCH  24  26
ATOM     26  N   UNL     1      -2.380  12.331  20.824  0.00  0.00    +0.000 N 
ATOM     27  C   UNL     1      -1.851  12.713  22.145  0.00  0.00    +0.000 C 
ATOM     28  C   UNL     1      -2.896  12.447  23.230  0.00  0.00    +0.000 C 
ATOM     29  O   UNL     1      -4.121  13.140  22.939  0.00  0.00    +0.000 OA
ATOM     30  C   UNL     1      -4.654  12.730  21.669  0.00  0.00    +0.000 C 
ATOM     31  C   UNL     1      -3.660  12.998  20.529  0.00  0.00    +0.000 C 
ENDBRANCH  24  26
ENDBRANCH  23  24
ENDBRANCH  22  23
ENDBRANCH   2  22
TORSDOF 6
ENDMDL
MODEL 4
REMARK VINA RESULT:      -8.0      2.078      2.382
REMARK  Name = 
REMARK  6 active torsions:
REMARK  status: ('A' for Active; 'I' for Inactive)
REMARK    1  A    between atoms: C_2  and  C_3
REMARK    2  A    between atoms: C_3  and  S_4
REMARK    3  A    between atoms: S_4  and  C_5
REMARK    4  A    between atoms: C_5  and  N_7
REMARK    5  A    between atoms: C_16  and  C_17
REMARK    6  A    between atoms: C_23  and  C_24
REMARK                            x       y       z     vdW  Elec       q    Type
REMARK                         _______ _______ _______ _____ _____    ______ ____
ROOT
ATOM      1  O   UNL     1       1.412  11.678  18.231  0.00  0.00    +0.000 OA
ATOM      2  C   UNL     1       1.428  10.453  18.399  0.00  0.00    +0.000 C 
ATOM      3  N   UNL     1       2.527   9.762  17.959  0.00  0.00    +0.000 N 
ATOM      4  C   UNL     1       2.762   8.442  18.184  0.00  0.00    +0.000 A 
ATOM      5  N   UNL     1       2.104   7.603  18.945  0.00  0.00    +0.000 NA
ATOM      6  C   UNL     1       2.696   6.386  18.704  0.00  0.00    +0.000 A 
ATOM      7  C   UNL     1       3.781   6.560  17.864  0.00  0.00    +0.000 A 
ATOM      8  O   UNL     1       3.822   7.894  17.523  0.00  0.00    +0.000 OA
ATOM      9  H   UNL     1       3.215  10.279  17.431  0.00  0.00    +0.000 HD
ENDROOT
BRANCH   6  10
ATOM     10  C   UNL     1       2.184   5.157  19.284  0.00  0.00    +0.000 A 
ATOM     11  C   UNL     1       2.298   4.883  20.654  0.00  0.00    +0.000 A 
ATOM     12  C   UNL     1       1.778   3.702  21.186  0.00  0.00    +0.000 A 
ATOM     13  C   UNL     1       1.173   2.766  20.351  0.00  0.00    +0.000 A 
ATOM     14  C   UNL     1       1.092   3.008  18.982  0.00  0.00    +0.000 A 
ATOM     15  C   UNL     1       1.596   4.196  18.449  0.00  0.00    +0.000 A 
ENDBRANCH   6  10
BRANCH   7  16
ATOM     16  C   UNL     1       4.832   5.721  17.307  0.00  0.00    +0.000 A 
ATOM     17  C   UNL     1       6.156   5.835  17.747  0.00  0.00    +0.000 A 
ATOM     18  C   UNL     1       7.164   5.056  17.172  0.00  0.00    +0.000 A 
ATOM     19  C   UNL     1       6.857   4.159  16.149  0.00  0.00    +0.000 A 
ATOM     20  C   UNL     1       5.544   4.032  15.707  0.00  0.00    +0.000 A 
ATOM     21  C   UNL     1       4.537   4.801  16.290  0.00  0.00    +0.000 A 
ENDBRANCH   7  16
BRANCH   2  22
ATOM     22  C   UNL     1       0.290   9.700  19.083  0.00  0.00    +0.000 C 
BRANCH  22  23
ATOM     23  S   UNL     1      -1.109  10.779  19.520  0.00  0.00    +0.000 S 
BRANCH  23  24
ATOM     24  C   UNL     1      -0.804  10.936  21.257  0.00  0.00    +0.000 C 
ATOM     25  S   UNL     1       0.210   9.854  22.055  0.00  0.00    +0.000 S 
BRANCH  24  26
ATOM     26  N   UNL     1      -1.442  12.011  21.869  0.00  0.00    +0.000 N 
ATOM     27  C   UNL     1      -2.186  11.934  23.139  0.00  0.00    +0.000 C 
ATOM     28  C   UNL     1      -3.569  12.566  22.982  0.00  0.00    +0.000 C 
ATOM     29  O   UNL     1      -3.460  13.925  22.525  0.00  0.00    +0.000 OA
ATOM     30  C   UNL     1      -2.773  13.989  21.264  0.00  0.00    +0.000 C 
ATOM     31  C   UNL     1      -1.361  13.392  21.362  0.00  0.00    +0.000 C 
ENDBRANCH  24  26
ENDBRANCH  23  24
ENDBRANCH  22  23
ENDBRANCH   2  22
TORSDOF 6
ENDMDL
MODEL 5
REMARK VINA RESULT:      -8.0      1.337      1.969
REMARK  Name = 
REMARK  6 active torsions:
REMARK  status: ('A' for Active; 'I' for Inactive)
REMARK    1  A    between atoms: C_2  and  C_3
REMARK    2  A    between atoms: C_3  and  S_4
REMARK    3  A    between atoms: S_4  and  C_5
REMARK    4  A    between atoms: C_5  and  N_7
REMARK    5  A    between atoms: C_16  and  C_17
REMARK    6  A    between atoms: C_23  and  C_24
REMARK                            x       y       z     vdW  Elec       q    Type
REMARK                         _______ _______ _______ _____ _____    ______ ____
ROOT
ATOM      1  O   UNL     1       1.499  11.650  18.213  0.00  0.00    +0.000 OA
ATOM      2  C   UNL     1       1.482  10.417  18.308  0.00  0.00    +0.000 C 
ATOM      3  N   UNL     1       2.615   9.734  17.946  0.00  0.00    +0.000 N 
ATOM      4  C   UNL     1       2.809   8.399  18.114  0.00  0.00    +0.000 A 
ATOM      5  N   UNL     1       2.063   7.528  18.747  0.00  0.00    +0.000 NA
ATOM      6  C   UNL     1       2.664   6.317  18.497  0.00  0.00    +0.000 A 
ATOM      7  C   UNL     1       3.835   6.521  17.789  0.00  0.00    +0.000 A 
ATOM      8  O   UNL     1       3.927   7.872  17.537  0.00  0.00    +0.000 OA
ATOM      9  H   UNL     1       3.361  10.269  17.527  0.00  0.00    +0.000 HD
ENDROOT
BRANCH   6  10
ATOM     10  C   UNL     1       2.078   5.065  18.942  0.00  0.00    +0.000 A 
ATOM     11  C   UNL     1       1.673   4.076  18.035  0.00  0.00    +0.000 A 
ATOM     12  C   UNL     1       1.131   2.873  18.493  0.00  0.00    +0.000 A 
ATOM     13  C   UNL     1       0.954   2.662  19.858  0.00  0.00    +0.000 A 
ATOM     14  C   UNL     1       1.313   3.655  20.767  0.00  0.00    +0.000 A 
ATOM     15  C   UNL     1       1.871   4.851  20.312  0.00  0.00    +0.000 A 
ENDBRANCH   6  10
BRANCH   7  16
ATOM     16  C   UNL     1       4.929   5.698  17.298  0.00  0.00    +0.000 A 
ATOM     17  C   UNL     1       6.184   5.720  17.918  0.00  0.00    +0.000 A 
ATOM     18  C   UNL     1       7.241   4.960  17.408  0.00  0.00    +0.000 A 
ATOM     19  C   UNL     1       7.052   4.174  16.271  0.00  0.00    +0.000 A 
ATOM     20  C   UNL     1       5.809   4.139  15.648  0.00  0.00    +0.000 A 
ATOM     21  C   UNL     1       4.751   4.889  16.165  0.00  0.00    +0.000 A 
ENDBRANCH   7  16
BRANCH   2  22
ATOM     22  C   UNL     1       0.268   9.645  18.819  0.00  0.00    +0.000 C 
BRANCH  22  23
ATOM     23  S   UNL     1      -0.702  10.583  20.039  0.00  0.00    +0.000 S 
BRANCH  23  24
ATOM     24  C   UNL     1      -1.499  11.721  18.941  0.00  0.00    +0.000 C 
ATOM     25  S   UNL     1      -1.110  13.359  18.966  0.00  0.00    +0.000 S 
BRANCH  24  26
ATOM     26  N   UNL     1      -2.426  11.147  18.075  0.00  0.00    +0.000 N 
ATOM     27  C   UNL     1      -2.082  10.321  16.904  0.00  0.00    +0.000 C 
ATOM     28  C   UNL     1      -2.820  10.827  15.664  0.00  0.00    +0.000 C 
ATOM     29  O   UNL     1      -4.239  10.847  15.888  0.00  0.00    +0.000 OA
ATOM     30  C   UNL     1      -4.572  11.689  17.004  0.00  0.00    +0.000 C 
ATOM     31  C   UNL     1      -3.881  11.215  18.292  0.00  0.00    +0.000 C 
ENDBRANCH  24  26
ENDBRANCH  23  24
ENDBRANCH  22  23
ENDBRANCH   2  22
TORSDOF 6
ENDMDL
MODEL 6
REMARK VINA RESULT:      -8.0      1.770      2.108
REMARK  Name = 
REMARK  6 active torsions:
REMARK  status: ('A' for Active; 'I' for Inactive)
REMARK    1  A    between atoms: C_2  and  C_3
REMARK    2  A    between atoms: C_3  and  S_4
REMARK    3  A    between atoms: S_4  and  C_5
REMARK    4  A    between atoms: C_5  and  N_7
REMARK    5  A    between atoms: C_16  and  C_17
REMARK    6  A    between atoms: C_23  and  C_24
REMARK                            x       y       z     vdW  Elec       q    Type
REMARK                         _______ _______ _______ _____ _____    ______ ____
ROOT
ATOM      1  O   UNL     1       1.400  11.811  18.308  0.00  0.00    +0.000 OA
ATOM      2  C   UNL     1       1.397  10.577  18.382  0.00  0.00    +0.000 C 
ATOM      3  N   UNL     1       2.527   9.912  17.983  0.00  0.00    +0.000 N 
ATOM      4  C   UNL     1       2.738   8.576  18.124  0.00  0.00    +0.000 A 
ATOM      5  N   UNL     1       2.016   7.687  18.760  0.00  0.00    +0.000 NA
ATOM      6  C   UNL     1       2.622   6.486  18.475  0.00  0.00    +0.000 A 
ATOM      7  C   UNL     1       3.774   6.713  17.744  0.00  0.00    +0.000 A 
ATOM      8  O   UNL     1       3.848   8.070  17.512  0.00  0.00    +0.000 OA
ATOM      9  H   UNL     1       3.258  10.461  17.555  0.00  0.00    +0.000 HD
ENDROOT
BRANCH   6  10
ATOM     10  C   UNL     1       2.059   5.222  18.913  0.00  0.00    +0.000 A 
ATOM     11  C   UNL     1       1.743   4.980  20.257  0.00  0.00    +0.000 A 
ATOM     12  C   UNL     1       1.184   3.761  20.645  0.00  0.00    +0.000 A 
ATOM     13  C   UNL     1       0.969   2.759  19.703  0.00  0.00    +0.000 A 
ATOM     14  C   UNL     1       1.318   2.972  18.372  0.00  0.00    +0.000 A 
ATOM     15  C   UNL     1       1.861   4.196  17.978  0.00  0.00    +0.000 A 
ENDBRANCH   6  10
BRANCH   7  16
ATOM     16  C   UNL     1       4.865   5.910  17.214  0.00  0.00    +0.000 A 
ATOM     17  C   UNL     1       5.797   5.305  18.065  0.00  0.00    +0.000 A 
ATOM     18  C   UNL     1       6.867   4.574  17.541  0.00  0.00    +0.000 A 
ATOM     19  C   UNL     1       7.016   4.445  16.160  0.00  0.00    +0.000 A 
ATOM     20  C   UNL     1       6.093   5.036  15.303  0.00  0.00    +0.000 A 
ATOM     21  C   UNL     1       5.019   5.756  15.828  0.00  0.00    +0.000 A 
ENDBRANCH   7  16
BRANCH   2  22
ATOM     22  C   UNL     1       0.203   9.785  18.909  0.00  0.00    +0.000 C 
BRANCH  22  23
ATOM     23  S   UNL     1      -0.359  10.358  20.541  0.00  0.00    +0.000 S 
BRANCH  23  24
ATOM     24  C   UNL     1      -1.626  11.479  20.018  0.00  0.00    +0.000 C 
ATOM     25  S   UNL     1      -2.339  11.327  18.501  0.00  0.00    +0.000 S 
BRANCH  24  26
ATOM     26  N   UNL     1      -1.974  12.448  20.956  0.00  0.00    +0.000 N 
ATOM     27  C   UNL     1      -1.012  13.214  21.768  0.00  0.00    +0.000 C 
ATOM     28  C   UNL     1      -1.403  13.159  23.245  0.00  0.00    +0.000 C 
ATOM     29  O   UNL     1      -2.745  13.639  23.436  0.00  0.00    +0.000 OA
ATOM     30  C   UNL     1      -3.682  12.859  22.676  0.00  0.00    +0.000 C 
ATOM     31  C   UNL     1      -3.360  12.897  21.175  0.00  0.00    +0.000 C 
ENDBRANCH  24  26
ENDBRANCH  23  24
ENDBRANCH  22  23
ENDBRANCH   2  22
TORSDOF 6
ENDMDL
MODEL 7
REMARK VINA RESULT:      -7.9      2.413      3.018
REMARK  Name = 
REMARK  6 active torsions:
REMARK  status: ('A' for Active; 'I' for Inactive)
REMARK    1  A    between atoms: C_2  and  C_3
REMARK    2  A    between atoms: C_3  and  S_4
REMARK    3  A    between atoms: S_4  and  C_5
REMARK    4  A    between atoms: C_5  and  N_7
REMARK    5  A    between atoms: C_16  and  C_17
REMARK    6  A    between atoms: C_23  and  C_24
REMARK                            x       y       z     vdW  Elec       q    Type
REMARK                         _______ _______ _______ _____ _____    ______ ____
ROOT
ATOM      1  O   UNL     1       1.424  11.679  18.234  0.00  0.00    +0.000 OA
ATOM      2  C   UNL     1       1.423  10.447  18.333  0.00  0.00    +0.000 C 
ATOM      3  N   UNL     1       2.557   9.776  17.952  0.00  0.00    +0.000 N 
ATOM      4  C   UNL     1       2.770   8.444  18.121  0.00  0.00    +0.000 A 
ATOM      5  N   UNL     1       2.046   7.566  18.771  0.00  0.00    +0.000 NA
ATOM      6  C   UNL     1       2.656   6.361  18.513  0.00  0.00    +0.000 A 
ATOM      7  C   UNL     1       3.811   6.576  17.783  0.00  0.00    +0.000 A 
ATOM      8  O   UNL     1       3.883   7.928  17.525  0.00  0.00    +0.000 OA
ATOM      9  H   UNL     1       3.289  10.318  17.518  0.00  0.00    +0.000 HD
ENDROOT
BRANCH   6  10
ATOM     10  C   UNL     1       2.093   5.105  18.974  0.00  0.00    +0.000 A 
ATOM     11  C   UNL     1       1.664   4.116  18.078  0.00  0.00    +0.000 A 
ATOM     12  C   UNL     1       1.145   2.909  18.550  0.00  0.00    +0.000 A 
ATOM     13  C   UNL     1       1.015   2.691  19.919  0.00  0.00    +0.000 A 
ATOM     14  C   UNL     1       1.398   3.683  20.818  0.00  0.00    +0.000 A 
ATOM     15  C   UNL     1       1.934   4.885  20.349  0.00  0.00    +0.000 A 
ENDBRANCH   6  10
BRANCH   7  16
ATOM     16  C   UNL     1       4.905   5.765  17.274  0.00  0.00    +0.000 A 
ATOM     17  C   UNL     1       6.086   5.601  18.009  0.00  0.00    +0.000 A 
ATOM     18  C   UNL     1       7.148   4.857  17.488  0.00  0.00    +0.000 A 
ATOM     19  C   UNL     1       7.040   4.272  16.226  0.00  0.00    +0.000 A 
ATOM     20  C   UNL     1       5.871   4.422  15.488  0.00  0.00    +0.000 A 
ATOM     21  C   UNL     1       4.807   5.156  16.014  0.00  0.00    +0.000 A 
ENDBRANCH   7  16
BRANCH   2  22
ATOM     22  C   UNL     1       0.229   9.663  18.869  0.00  0.00    +0.000 C 
BRANCH  22  23
ATOM     23  S   UNL     1      -1.177  10.732  19.309  0.00  0.00    +0.000 S 
BRANCH  23  24
ATOM     24  C   UNL     1      -0.756  11.061  20.997  0.00  0.00    +0.000 C 
ATOM     25  S   UNL     1      -0.170   9.837  21.993  0.00  0.00    +0.000 S 
BRANCH  24  26
ATOM     26  N   UNL     1      -0.929  12.383  21.396  0.00  0.00    +0.000 N 
ATOM     27  C   UNL     1      -0.156  13.525  20.877  0.00  0.00    +0.000 C 
ATOM     28  C   UNL     1       0.399  14.359  22.032  0.00  0.00    +0.000 C 
ATOM     29  O   UNL     1      -0.660  14.798  22.899  0.00  0.00    +0.000 OA
ATOM     30  C   UNL     1      -1.382  13.678  23.437  0.00  0.00    +0.000 C 
ATOM     31  C   UNL     1      -1.990  12.813  22.323  0.00  0.00    +0.000 C 
ENDBRANCH  24  26
ENDBRANCH  23  24
ENDBRANCH  22  23
ENDBRANCH   2  22
TORSDOF 6
ENDMDL
MODEL 8
REMARK VINA RESULT:      -7.9      1.889      2.484
REMARK  Name = 
REMARK  6 active torsions:
REMARK  status: ('A' for Active; 'I' for Inactive)
REMARK    1  A    between atoms: C_2  and  C_3
REMARK    2  A    between atoms: C_3  and  S_4
REMARK    3  A    between atoms: S_4  and  C_5
REMARK    4  A    between atoms: C_5  and  N_7
REMARK    5  A    between atoms: C_16  and  C_17
REMARK    6  A    between atoms: C_23  and  C_24
REMARK                            x       y       z     vdW  Elec       q    Type
REMARK                         _______ _______ _______ _____ _____    ______ ____
ROOT
ATOM      1  O   UNL     1       1.463  11.719  18.299  0.00  0.00    +0.000 OA
ATOM      2  C   UNL     1       1.451  10.485  18.375  0.00  0.00    +0.000 C 
ATOM      3  N   UNL     1       2.581   9.811  17.991  0.00  0.00    +0.000 N 
ATOM      4  C   UNL     1       2.781   8.474  18.138  0.00  0.00    +0.000 A 
ATOM      5  N   UNL     1       2.045   7.592  18.767  0.00  0.00    +0.000 NA
ATOM      6  C   UNL     1       2.646   6.386  18.492  0.00  0.00    +0.000 A 
ATOM      7  C   UNL     1       3.809   6.604  17.775  0.00  0.00    +0.000 A 
ATOM      8  O   UNL     1       3.894   7.959  17.541  0.00  0.00    +0.000 OA
ATOM      9  H   UNL     1       3.321  10.354  17.572  0.00  0.00    +0.000 HD
ENDROOT
BRANCH   6  10
ATOM     10  C   UNL     1       2.069   5.127  18.926  0.00  0.00    +0.000 A 
ATOM     11  C   UNL     1       1.743   4.112  18.016  0.00  0.00    +0.000 A 
ATOM     12  C   UNL     1       1.208   2.902  18.465  0.00  0.00    +0.000 A 
ATOM     13  C   UNL     1       0.958   2.709  19.821  0.00  0.00    +0.000 A 
ATOM     14  C   UNL     1       1.238   3.726  20.730  0.00  0.00    +0.000 A 
ATOM     15  C   UNL     1       1.790   4.930  20.286  0.00  0.00    +0.000 A 
ENDBRANCH   6  10
BRANCH   7  16
ATOM     16  C   UNL     1       4.900   5.791  17.259  0.00  0.00    +0.000 A 
ATOM     17  C   UNL     1       5.993   5.454  18.067  0.00  0.00    +0.000 A 
ATOM     18  C   UNL     1       7.057   4.712  17.545  0.00  0.00    +0.000 A 
ATOM     19  C   UNL     1       7.039   4.304  16.212  0.00  0.00    +0.000 A 
ATOM     20  C   UNL     1       5.956   4.628  15.400  0.00  0.00    +0.000 A 
ATOM     21  C   UNL     1       4.889   5.359  15.925  0.00  0.00    +0.000 A 
ENDBRANCH   7  16
BRANCH   2  22
ATOM     22  C   UNL     1       0.246   9.702  18.889  0.00  0.00    +0.000 C 
BRANCH  22  23
ATOM     23  S   UNL     1      -0.319  10.269  20.524  0.00  0.00    +0.000 S 
BRANCH  23  24
ATOM     24  C   UNL     1      -1.552  11.428  20.002  0.00  0.00    +0.000 C 
ATOM     25  S   UNL     1      -2.137  11.412  18.424  0.00  0.00    +0.000 S 
BRANCH  24  26
ATOM     26  N   UNL     1      -1.988  12.305  20.992  0.00  0.00    +0.000 N 
ATOM     27  C   UNL     1      -2.749  13.542  20.743  0.00  0.00    +0.000 C 
ATOM     28  C   UNL     1      -2.098  14.720  21.468  0.00  0.00    +0.000 C 
ATOM     29  O   UNL     1      -1.986  14.453  22.876  0.00  0.00    +0.000 OA
ATOM     30  C   UNL     1      -1.204  13.271  23.114  0.00  0.00    +0.000 C 
ATOM     31  C   UNL     1      -1.823  12.041  22.432  0.00  0.00    +0.000 C 
ENDBRANCH  24  26
ENDBRANCH  23  24
ENDBRANCH  22  23
ENDBRANCH   2  22
TORSDOF 6
ENDMDL
MODEL 9
REMARK VINA RESULT:      -7.9      1.979      2.754
REMARK  Name = 
REMARK  6 active torsions:
REMARK  status: ('A' for Active; 'I' for Inactive)
REMARK    1  A    between atoms: C_2  and  C_3
REMARK    2  A    between atoms: C_3  and  S_4
REMARK    3  A    between atoms: S_4  and  C_5
REMARK    4  A    between atoms: C_5  and  N_7
REMARK    5  A    between atoms: C_16  and  C_17
REMARK    6  A    between atoms: C_23  and  C_24
REMARK                            x       y       z     vdW  Elec       q    Type
REMARK                         _______ _______ _______ _____ _____    ______ ____
ROOT
ATOM      1  O   UNL     1       1.350  11.782  18.284  0.00  0.00    +0.000 OA
ATOM      2  C   UNL     1       1.365  10.548  18.364  0.00  0.00    +0.000 C 
ATOM      3  N   UNL     1       2.503   9.896  17.967  0.00  0.00    +0.000 N 
ATOM      4  C   UNL     1       2.732   8.563  18.114  0.00  0.00    +0.000 A 
ATOM      5  N   UNL     1       2.022   7.668  18.755  0.00  0.00    +0.000 NA
ATOM      6  C   UNL     1       2.644   6.474  18.476  0.00  0.00    +0.000 A 
ATOM      7  C   UNL     1       3.792   6.713  17.742  0.00  0.00    +0.000 A 
ATOM      8  O   UNL     1       3.847   8.069  17.503  0.00  0.00    +0.000 OA
ATOM      9  H   UNL     1       3.226  10.452  17.536  0.00  0.00    +0.000 HD
ENDROOT
BRANCH   6  10
ATOM     10  C   UNL     1       2.099   5.205  18.921  0.00  0.00    +0.000 A 
ATOM     11  C   UNL     1       1.801   4.961  20.269  0.00  0.00    +0.000 A 
ATOM     12  C   UNL     1       1.258   3.736  20.664  0.00  0.00    +0.000 A 
ATOM     13  C   UNL     1       1.042   2.731  19.724  0.00  0.00    +0.000 A 
ATOM     14  C   UNL     1       1.374   2.947  18.389  0.00  0.00    +0.000 A 
ATOM     15  C   UNL     1       1.900   4.176  17.988  0.00  0.00    +0.000 A 
ENDBRANCH   6  10
BRANCH   7  16
ATOM     16  C   UNL     1       4.893   5.922  17.214  0.00  0.00    +0.000 A 
ATOM     17  C   UNL     1       5.018   5.685  15.840  0.00  0.00    +0.000 A 
ATOM     18  C   UNL     1       6.054   4.884  15.350  0.00  0.00    +0.000 A 
ATOM     19  C   UNL     1       6.971   4.311  16.231  0.00  0.00    +0.000 A 
ATOM     20  C   UNL     1       6.861   4.542  17.598  0.00  0.00    +0.000 A 
ATOM     21  C   UNL     1       5.833   5.351  18.085  0.00  0.00    +0.000 A 
ENDBRANCH   7  16
BRANCH   2  22
ATOM     22  C   UNL     1       0.182   9.742  18.896  0.00  0.00    +0.000 C 
BRANCH  22  23
ATOM     23  S   UNL     1      -1.243  10.786  19.333  0.00  0.00    +0.000 S 
BRANCH  23  24
ATOM     24  C   UNL     1      -0.878  11.047  21.046  0.00  0.00    +0.000 C 
ATOM     25  S   UNL     1       0.210  10.052  21.857  0.00  0.00    +0.000 S 
BRANCH  24  26
ATOM     26  N   UNL     1      -1.538  12.128  21.627  0.00  0.00    +0.000 N 
ATOM     27  C   UNL     1      -2.501  12.997  20.928  0.00  0.00    +0.000 C 
ATOM     28  C   UNL     1      -2.135  14.467  21.136  0.00  0.00    +0.000 C 
ATOM     29  O   UNL     1      -2.069  14.783  22.537  0.00  0.00    +0.000 OA
ATOM     30  C   UNL     1      -1.096  13.962  23.203  0.00  0.00    +0.000 C 
ATOM     31  C   UNL     1      -1.424  12.469  23.055  0.00  0.00    +0.000 C 
ENDBRANCH  24  26
ENDBRANCH  23  24
ENDBRANCH  22  23
ENDBRANCH   2  22
TORSDOF 6
ENDMDL
