MODEL 1
REMARK VINA RESULT:      -6.8      0.000      0.000
REMARK  Name = 
REMARK  7 active torsions:
REMARK  status: ('A' for Active; 'I' for Inactive)
REMARK    1  A    between atoms: C_1  and  C_2
REMARK    2  A    between atoms: C_2  and  C_3
REMARK    3  A    between atoms: C_3  and  C_4
REMARK    4  A    between atoms: C_3  and  C_31
REMARK    5  A    between atoms: N_15  and  C_16
REMARK    6  A    between atoms: N_26  and  C_27
REMARK    7  A    between atoms: N_26  and  C_28
REMARK                            x       y       z     vdW  Elec       q    Type
REMARK                         _______ _______ _______ _____ _____    ______ ____
ROOT
ATOM      1  C   UNL     1      -2.377  11.911  23.076  0.00  0.00    +0.000 C 
ATOM      2  O   UNL     1      -3.023  11.362  23.974  0.00  0.00    +0.000 OA
ATOM      3  N   UNL     1      -1.182  11.374  22.625  0.00  0.00    +0.000 N 
ATOM      4  C   UNL     1      -0.637  10.164  23.231  0.00  0.00    +0.000 C 
ATOM      5  C   UNL     1      -0.471   9.127  22.141  0.00  0.00    +0.000 C 
ATOM      6  C   UNL     1       0.330   9.681  20.985  0.00  0.00    +0.000 A 
ATOM      7  N   UNL     1       0.895   8.761  20.208  0.00  0.00    +0.000 NA
ATOM      8  C   UNL     1       1.567   9.166  19.130  0.00  0.00    +0.000 A 
ATOM      9  N   UNL     1       2.097   8.165  18.309  0.00  0.00    +0.000 N 
ATOM     10  C   UNL     1       2.005   6.815  18.899  0.00  0.00    +0.000 C 
ATOM     11  C   UNL     1       2.584   5.731  17.955  0.00  0.00    +0.000 C 
ATOM     12  N   UNL     1       3.962   5.999  17.439  0.00  0.00    +0.000 NA
ATOM     13  C   UNL     1       3.879   7.342  16.800  0.00  0.00    +0.000 C 
ATOM     14  C   UNL     1       3.393   8.499  17.715  0.00  0.00    +0.000 C 
ATOM     15  N   UNL     1       1.692  10.474  18.812  0.00  0.00    +0.000 NA
ATOM     16  C   UNL     1       1.108  11.438  19.585  0.00  0.00    +0.000 A 
ATOM     17  N   UNL     1       1.130  12.753  19.111  0.00  0.00    +0.000 N 
ATOM     18  C   UNL     1       1.223  13.963  19.927  0.00  0.00    +0.000 C 
ATOM     19  C   UNL     1       1.672  12.964  17.765  0.00  0.00    +0.000 C 
ATOM     20  C   UNL     1       0.393  11.044  20.723  0.00  0.00    +0.000 A 
ATOM     21  C   UNL     1      -0.313  11.991  21.635  0.00  0.00    +0.000 C 
ENDROOT
BRANCH  12  22
ATOM     22  C   UNL     1       4.986   5.881  18.514  0.00  0.00    +0.000 C 
ATOM     23  C   UNL     1       5.380   4.404  18.768  0.00  0.00    +0.000 C 
ATOM     24  C   UNL     1       6.238   3.806  17.655  0.00  0.00    +0.000 C 
ATOM     25  C   UNL     1       7.524   4.596  17.453  0.00  0.00    +0.000 C 
ATOM     26  C   UNL     1       7.283   6.093  17.293  0.00  0.00    +0.000 C 
ATOM     27  C   UNL     1       6.301   6.675  18.309  0.00  0.00    +0.000 C 
ENDBRANCH  12  22
BRANCH   1  28
ATOM     28  C   UNL     1      -2.895  13.204  22.407  0.00  0.00    +0.000 C 
BRANCH  28  29
ATOM     29  C   UNL     1      -4.059  12.891  21.471  0.00  0.00    +0.000 A 
ATOM     30  C   UNL     1      -5.383  12.912  21.936  0.00  0.00    +0.000 A 
ATOM     31  C   UNL     1      -6.445  12.593  21.083  0.00  0.00    +0.000 A 
ATOM     32  C   UNL     1      -6.196  12.250  19.756  0.00  0.00    +0.000 A 
ATOM     33  C   UNL     1      -4.891  12.252  19.273  0.00  0.00    +0.000 A 
ATOM     34  C   UNL     1      -3.832  12.581  20.121  0.00  0.00    +0.000 A 
ENDBRANCH  28  29
BRANCH  28  36
ATOM     35  C   UNL     1      -2.239  15.351  23.612  0.00  0.00    +0.000 C 
ATOM     36  C   UNL     1      -3.286  14.247  23.474  0.00  0.00    +0.000 C 
ENDBRANCH  28  36
ENDBRANCH   1  28
TORSDOF 4
ENDMDL
MODEL 2
REMARK VINA RESULT:      -6.8      5.442      6.595
REMARK  Name = 
REMARK  7 active torsions:
REMARK  status: ('A' for Active; 'I' for Inactive)
REMARK    1  A    between atoms: C_1  and  C_2
REMARK    2  A    between atoms: C_2  and  C_3
REMARK    3  A    between atoms: C_3  and  C_4
REMARK    4  A    between atoms: C_3  and  C_31
REMARK    5  A    between atoms: N_15  and  C_16
REMARK    6  A    between atoms: N_26  and  C_27
REMARK    7  A    between atoms: N_26  and  C_28
REMARK                            x       y       z     vdW  Elec       q    Type
REMARK                         _______ _______ _______ _____ _____    ______ ____
ROOT
ATOM      1  C   UNL     1      -4.165  13.071  22.978  0.00  0.00    +0.000 C 
ATOM      2  O   UNL     1      -4.168  12.036  23.652  0.00  0.00    +0.000 OA
ATOM      3  N   UNL     1      -2.988  13.759  22.729  0.00  0.00    +0.000 N 
ATOM      4  C   UNL     1      -1.726  13.296  23.294  0.00  0.00    +0.000 C 
ATOM      5  C   UNL     1      -0.762  13.048  22.152  0.00  0.00    +0.000 C 
ATOM      6  C   UNL     1      -0.658  14.265  21.260  0.00  0.00    +0.000 A 
ATOM      7  N   UNL     1       0.445  14.318  20.520  0.00  0.00    +0.000 NA
ATOM      8  C   UNL     1       0.585  15.328  19.659  0.00  0.00    +0.000 A 
ATOM      9  N   UNL     1       1.733  15.316  18.860  0.00  0.00    +0.000 N 
ATOM     10  C   UNL     1       2.714  14.288  19.260  0.00  0.00    +0.000 C 
ATOM     11  C   UNL     1       3.961  14.292  18.341  0.00  0.00    +0.000 C 
ATOM     12  N   UNL     1       4.620  15.623  18.160  0.00  0.00    +0.000 NA
ATOM     13  C   UNL     1       3.539  16.525  17.675  0.00  0.00    +0.000 C 
ATOM     14  C   UNL     1       2.292  16.642  18.592  0.00  0.00    +0.000 C 
ATOM     15  N   UNL     1      -0.355  16.291  19.526  0.00  0.00    +0.000 NA
ATOM     16  C   UNL     1      -1.503  16.251  20.264  0.00  0.00    +0.000 A 
ATOM     17  N   UNL     1      -2.505  17.177  19.959  0.00  0.00    +0.000 N 
ATOM     18  C   UNL     1      -3.433  17.790  20.908  0.00  0.00    +0.000 C 
ATOM     19  C   UNL     1      -2.283  18.033  18.788  0.00  0.00    +0.000 C 
ATOM     20  C   UNL     1      -1.681  15.201  21.174  0.00  0.00    +0.000 A 
ATOM     21  C   UNL     1      -2.897  15.026  22.020  0.00  0.00    +0.000 C 
ENDROOT
BRANCH  12  22
ATOM     22  C   UNL     1       5.300  16.076  19.405  0.00  0.00    +0.000 C 
ATOM     23  C   UNL     1       6.239  14.982  19.974  0.00  0.00    +0.000 C 
ATOM     24  C   UNL     1       7.511  14.787  19.151  0.00  0.00    +0.000 C 
ATOM     25  C   UNL     1       8.316  16.075  19.050  0.00  0.00    +0.000 C 
ATOM     26  C   UNL     1       7.478  17.265  18.597  0.00  0.00    +0.000 C 
ATOM     27  C   UNL     1       6.130  17.382  19.306  0.00  0.00    +0.000 C 
ENDBRANCH  12  22
BRANCH   1  28
ATOM     28  C   UNL     1      -5.474  13.619  22.367  0.00  0.00    +0.000 C 
BRANCH  28  29
ATOM     29  C   UNL     1      -5.954  12.715  21.235  0.00  0.00    +0.000 A 
ATOM     30  C   UNL     1      -7.157  11.999  21.346  0.00  0.00    +0.000 A 
ATOM     31  C   UNL     1      -7.578  11.147  20.320  0.00  0.00    +0.000 A 
ATOM     32  C   UNL     1      -6.803  10.999  19.172  0.00  0.00    +0.000 A 
ATOM     33  C   UNL     1      -5.622  11.724  19.036  0.00  0.00    +0.000 A 
ATOM     34  C   UNL     1      -5.208  12.583  20.054  0.00  0.00    +0.000 A 
ENDBRANCH  28  29
BRANCH  28  36
ATOM     35  C   UNL     1      -7.332  15.093  23.297  0.00  0.00    +0.000 C 
ATOM     36  C   UNL     1      -6.551  13.789  23.457  0.00  0.00    +0.000 C 
ENDBRANCH  28  36
ENDBRANCH   1  28
TORSDOF 4
ENDMDL
MODEL 3
REMARK VINA RESULT:      -6.7      5.449      7.107
REMARK  Name = 
REMARK  7 active torsions:
REMARK  status: ('A' for Active; 'I' for Inactive)
REMARK    1  A    between atoms: C_1  and  C_2
REMARK    2  A    between atoms: C_2  and  C_3
REMARK    3  A    between atoms: C_3  and  C_4
REMARK    4  A    between atoms: C_3  and  C_31
REMARK    5  A    between atoms: N_15  and  C_16
REMARK    6  A    between atoms: N_26  and  C_27
REMARK    7  A    between atoms: N_26  and  C_28
REMARK                            x       y       z     vdW  Elec       q    Type
REMARK                         _______ _______ _______ _____ _____    ______ ____
ROOT
ATOM      1  C   UNL     1      -4.451  11.333  18.191  0.00  0.00    +0.000 C 
ATOM      2  O   UNL     1      -4.618  10.713  17.136  0.00  0.00    +0.000 OA
ATOM      3  N   UNL     1      -3.179  11.609  18.665  0.00  0.00    +0.000 N 
ATOM      4  C   UNL     1      -2.002  11.137  17.945  0.00  0.00    +0.000 C 
ATOM      5  C   UNL     1      -1.152  12.339  17.593  0.00  0.00    +0.000 C 
ATOM      6  C   UNL     1      -0.861  13.173  18.821  0.00  0.00    +0.000 A 
ATOM      7  N   UNL     1       0.200  13.968  18.714  0.00  0.00    +0.000 NA
ATOM      8  C   UNL     1       0.489  14.782  19.730  0.00  0.00    +0.000 A 
ATOM      9  N   UNL     1       1.578  15.641  19.555  0.00  0.00    +0.000 N 
ATOM     10  C   UNL     1       2.367  15.347  18.342  0.00  0.00    +0.000 C 
ATOM     11  C   UNL     1       3.552  16.329  18.171  0.00  0.00    +0.000 C 
ATOM     12  N   UNL     1       4.440  16.478  19.367  0.00  0.00    +0.000 NA
ATOM     13  C   UNL     1       3.525  16.859  20.479  0.00  0.00    +0.000 C 
ATOM     14  C   UNL     1       2.363  15.871  20.770  0.00  0.00    +0.000 C 
ATOM     15  N   UNL     1      -0.260  14.816  20.856  0.00  0.00    +0.000 NA
ATOM     16  C   UNL     1      -1.363  14.021  20.984  0.00  0.00    +0.000 A 
ATOM     17  N   UNL     1      -2.186  14.225  22.095  0.00  0.00    +0.000 N 
ATOM     18  C   UNL     1      -2.942  13.197  22.810  0.00  0.00    +0.000 C 
ATOM     19  C   UNL     1      -1.859  15.361  22.963  0.00  0.00    +0.000 C 
ATOM     20  C   UNL     1      -1.693  13.157  19.932  0.00  0.00    +0.000 A 
ATOM     21  C   UNL     1      -2.884  12.257  19.933  0.00  0.00    +0.000 C 
ENDROOT
BRANCH  12  22
ATOM     22  C   UNL     1       5.245  15.250  19.612  0.00  0.00    +0.000 C 
ATOM     23  C   UNL     1       6.115  14.882  18.383  0.00  0.00    +0.000 C 
ATOM     24  C   UNL     1       7.301  15.821  18.177  0.00  0.00    +0.000 C 
ATOM     25  C   UNL     1       8.215  15.844  19.395  0.00  0.00    +0.000 C 
ATOM     26  C   UNL     1       7.463  16.095  20.698  0.00  0.00    +0.000 C 
ATOM     27  C   UNL     1       6.184  15.272  20.845  0.00  0.00    +0.000 C 
ENDBRANCH  12  22
BRANCH   1  28
ATOM     28  C   UNL     1      -5.660  11.845  19.006  0.00  0.00    +0.000 C 
BRANCH  28  29
ATOM     29  C   UNL     1      -6.142  13.186  18.461  0.00  0.00    +0.000 A 
ATOM     30  C   UNL     1      -6.564  13.313  17.128  0.00  0.00    +0.000 A 
ATOM     31  C   UNL     1      -6.975  14.551  16.624  0.00  0.00    +0.000 A 
ATOM     32  C   UNL     1      -6.968  15.677  17.443  0.00  0.00    +0.000 A 
ATOM     33  C   UNL     1      -6.579  15.562  18.775  0.00  0.00    +0.000 A 
ATOM     34  C   UNL     1      -6.180  14.324  19.282  0.00  0.00    +0.000 A 
ENDBRANCH  28  29
BRANCH  28  36
ATOM     35  C   UNL     1      -7.477  10.703  20.378  0.00  0.00    +0.000 C 
ATOM     36  C   UNL     1      -6.790  10.795  19.017  0.00  0.00    +0.000 C 
ENDBRANCH  28  36
ENDBRANCH   1  28
TORSDOF 4
ENDMDL
MODEL 4
REMARK VINA RESULT:      -6.6      5.409      6.906
REMARK  Name = 
REMARK  7 active torsions:
REMARK  status: ('A' for Active; 'I' for Inactive)
REMARK    1  A    between atoms: C_1  and  C_2
REMARK    2  A    between atoms: C_2  and  C_3
REMARK    3  A    between atoms: C_3  and  C_4
REMARK    4  A    between atoms: C_3  and  C_31
REMARK    5  A    between atoms: N_15  and  C_16
REMARK    6  A    between atoms: N_26  and  C_27
REMARK    7  A    between atoms: N_26  and  C_28
REMARK                            x       y       z     vdW  Elec       q    Type
REMARK                         _______ _______ _______ _____ _____    ______ ____
ROOT
ATOM      1  C   UNL     1      -4.584  11.686  18.866  0.00  0.00    +0.000 C 
ATOM      2  O   UNL     1      -4.826  10.884  17.959  0.00  0.00    +0.000 OA
ATOM      3  N   UNL     1      -3.282  11.960  19.250  0.00  0.00    +0.000 N 
ATOM      4  C   UNL     1      -2.162  11.274  18.615  0.00  0.00    +0.000 C 
ATOM      5  C   UNL     1      -1.248  12.321  18.014  0.00  0.00    +0.000 C 
ATOM      6  C   UNL     1      -0.863  13.358  19.046  0.00  0.00    +0.000 A 
ATOM      7  N   UNL     1       0.243  14.039  18.763  0.00  0.00    +0.000 NA
ATOM      8  C   UNL     1       0.617  15.016  19.591  0.00  0.00    +0.000 A 
ATOM      9  N   UNL     1       1.754  15.745  19.227  0.00  0.00    +0.000 N 
ATOM     10  C   UNL     1       2.481  15.163  18.081  0.00  0.00    +0.000 C 
ATOM     11  C   UNL     1       3.721  16.007  17.695  0.00  0.00    +0.000 C 
ATOM     12  N   UNL     1       4.656  16.326  18.819  0.00  0.00    +0.000 NA
ATOM     13  C   UNL     1       3.806  16.981  19.852  0.00  0.00    +0.000 C 
ATOM     14  C   UNL     1       2.592  16.153  20.356  0.00  0.00    +0.000 C 
ATOM     15  N   UNL     1      -0.089  15.323  20.702  0.00  0.00    +0.000 NA
ATOM     16  C   UNL     1      -1.236  14.647  21.007  0.00  0.00    +0.000 A 
ATOM     17  N   UNL     1      -2.007  15.123  22.072  0.00  0.00    +0.000 N 
ATOM     18  C   UNL     1      -2.803  14.312  22.992  0.00  0.00    +0.000 C 
ATOM     19  C   UNL     1      -1.578  16.382  22.691  0.00  0.00    +0.000 C 
ATOM     20  C   UNL     1      -1.657  13.618  20.155  0.00  0.00    +0.000 A 
ATOM     21  C   UNL     1      -2.903  12.823  20.359  0.00  0.00    +0.000 C 
ENDROOT
BRANCH  12  22
ATOM     22  C   UNL     1       5.387  15.117  19.287  0.00  0.00    +0.000 C 
ATOM     23  C   UNL     1       6.252  14.499  18.159  0.00  0.00    +0.000 C 
ATOM     24  C   UNL     1       7.492  15.326  17.824  0.00  0.00    +0.000 C 
ATOM     25  C   UNL     1       8.389  15.508  19.042  0.00  0.00    +0.000 C 
ATOM     26  C   UNL     1       7.634  16.016  20.265  0.00  0.00    +0.000 C 
ATOM     27  C   UNL     1       6.309  15.298  20.520  0.00  0.00    +0.000 C 
ENDBRANCH  12  22
BRANCH   1  28
ATOM     28  C   UNL     1      -5.729  12.432  19.588  0.00  0.00    +0.000 C 
BRANCH  28  29
ATOM     29  C   UNL     1      -6.191  13.629  18.761  0.00  0.00    +0.000 A 
ATOM     30  C   UNL     1      -6.202  14.921  19.309  0.00  0.00    +0.000 A 
ATOM     31  C   UNL     1      -6.655  16.011  18.559  0.00  0.00    +0.000 A 
ATOM     32  C   UNL     1      -7.104  15.823  17.254  0.00  0.00    +0.000 A 
ATOM     33  C   UNL     1      -7.073  14.552  16.688  0.00  0.00    +0.000 A 
ATOM     34  C   UNL     1      -6.609  13.466  17.432  0.00  0.00    +0.000 A 
ENDBRANCH  28  29
BRANCH  28  36
ATOM     35  C   UNL     1      -7.512  11.731  21.267  0.00  0.00    +0.000 C 
ATOM     36  C   UNL     1      -6.894  11.468  19.895  0.00  0.00    +0.000 C 
ENDBRANCH  28  36
ENDBRANCH   1  28
TORSDOF 4
ENDMDL
MODEL 5
REMARK VINA RESULT:      -6.4      2.793      5.166
REMARK  Name = 
REMARK  7 active torsions:
REMARK  status: ('A' for Active; 'I' for Inactive)
REMARK    1  A    between atoms: C_1  and  C_2
REMARK    2  A    between atoms: C_2  and  C_3
REMARK    3  A    between atoms: C_3  and  C_4
REMARK    4  A    between atoms: C_3  and  C_31
REMARK    5  A    between atoms: N_15  and  C_16
REMARK    6  A    between atoms: N_26  and  C_27
REMARK    7  A    between atoms: N_26  and  C_28
REMARK                            x       y       z     vdW  Elec       q    Type
REMARK                         _______ _______ _______ _____ _____    ______ ____
ROOT
ATOM      1  C   UNL     1      -0.561  14.654  19.521  0.00  0.00    +0.000 C 
ATOM      2  O   UNL     1      -0.467  15.354  18.508  0.00  0.00    +0.000 OA
ATOM      3  N   UNL     1      -0.593  13.272  19.434  0.00  0.00    +0.000 N 
ATOM      4  C   UNL     1      -0.554  12.610  18.135  0.00  0.00    +0.000 C 
ATOM      5  C   UNL     1       0.642  11.682  18.115  0.00  0.00    +0.000 C 
ATOM      6  C   UNL     1       0.625  10.753  19.309  0.00  0.00    +0.000 A 
ATOM      7  N   UNL     1       1.349   9.647  19.162  0.00  0.00    +0.000 NA
ATOM      8  C   UNL     1       1.437   8.804  20.192  0.00  0.00    +0.000 A 
ATOM      9  N   UNL     1       2.253   7.682  20.016  0.00  0.00    +0.000 N 
ATOM     10  C   UNL     1       2.716   7.507  18.625  0.00  0.00    +0.000 C 
ATOM     11  C   UNL     1       3.632   6.267  18.472  0.00  0.00    +0.000 C 
ATOM     12  N   UNL     1       3.078   4.989  19.020  0.00  0.00    +0.000 NA
ATOM     13  C   UNL     1       2.742   5.293  20.439  0.00  0.00    +0.000 C 
ATOM     14  C   UNL     1       1.754   6.469  20.665  0.00  0.00    +0.000 C 
ATOM     15  N   UNL     1       0.812   9.041  21.368  0.00  0.00    +0.000 NA
ATOM     16  C   UNL     1       0.074  10.177  21.548  0.00  0.00    +0.000 A 
ATOM     17  N   UNL     1      -0.404  10.444  22.834  0.00  0.00    +0.000 N 
ATOM     18  C   UNL     1      -1.664  11.107  23.166  0.00  0.00    +0.000 C 
ATOM     19  C   UNL     1       0.033   9.541  23.905  0.00  0.00    +0.000 C 
ATOM     20  C   UNL     1      -0.034  11.083  20.485  0.00  0.00    +0.000 A 
ATOM     21  C   UNL     1      -0.785  12.370  20.560  0.00  0.00    +0.000 C 
ENDROOT
BRANCH  12  22
ATOM     22  C   UNL     1       1.940   4.487  18.202  0.00  0.00    +0.000 C 
ATOM     23  C   UNL     1       2.419   3.521  17.088  0.00  0.00    +0.000 C 
ATOM     24  C   UNL     1       2.860   2.158  17.616  0.00  0.00    +0.000 C 
ATOM     25  C   UNL     1       1.739   1.462  18.376  0.00  0.00    +0.000 C 
ATOM     26  C   UNL     1       1.104   2.347  19.442  0.00  0.00    +0.000 C 
ATOM     27  C   UNL     1       0.800   3.768  18.969  0.00  0.00    +0.000 C 
ENDBRANCH  12  22
BRANCH   1  28
ATOM     28  C   UNL     1      -0.622  15.299  20.924  0.00  0.00    +0.000 C 
BRANCH  28  29
ATOM     29  C   UNL     1       0.766  15.754  21.363  0.00  0.00    +0.000 A 
ATOM     30  C   UNL     1       1.760  14.819  21.693  0.00  0.00    +0.000 A 
ATOM     31  C   UNL     1       3.022  15.240  22.125  0.00  0.00    +0.000 A 
ATOM     32  C   UNL     1       3.305  16.599  22.235  0.00  0.00    +0.000 A 
ATOM     33  C   UNL     1       2.340  17.539  21.884  0.00  0.00    +0.000 A 
ATOM     34  C   UNL     1       1.084  17.119  21.441  0.00  0.00    +0.000 A 
ENDBRANCH  28  29
BRANCH  28  36
ATOM     35  C   UNL     1      -3.081  15.967  20.918  0.00  0.00    +0.000 C 
ATOM     36  C   UNL     1      -1.636  16.461  20.942  0.00  0.00    +0.000 C 
ENDBRANCH  28  36
ENDBRANCH   1  28
TORSDOF 4
ENDMDL
MODEL 6
REMARK VINA RESULT:      -6.3      5.402     10.955
REMARK  Name = 
REMARK  7 active torsions:
REMARK  status: ('A' for Active; 'I' for Inactive)
REMARK    1  A    between atoms: C_1  and  C_2
REMARK    2  A    between atoms: C_2  and  C_3
REMARK    3  A    between atoms: C_3  and  C_4
REMARK    4  A    between atoms: C_3  and  C_31
REMARK    5  A    between atoms: N_15  and  C_16
REMARK    6  A    between atoms: N_26  and  C_27
REMARK    7  A    between atoms: N_26  and  C_28
REMARK                            x       y       z     vdW  Elec       q    Type
REMARK                         _______ _______ _______ _____ _____    ______ ____
ROOT
ATOM      1  C   UNL     1       6.921  15.128  18.465  0.00  0.00    +0.000 C 
ATOM      2  O   UNL     1       7.245  14.575  17.410  0.00  0.00    +0.000 OA
ATOM      3  N   UNL     1       5.589  15.338  18.784  0.00  0.00    +0.000 N 
ATOM      4  C   UNL     1       4.535  14.943  17.857  0.00  0.00    +0.000 C 
ATOM      5  C   UNL     1       3.618  13.973  18.573  0.00  0.00    +0.000 C 
ATOM      6  C   UNL     1       3.136  14.555  19.884  0.00  0.00    +0.000 A 
ATOM      7  N   UNL     1       2.023  14.004  20.360  0.00  0.00    +0.000 NA
ATOM      8  C   UNL     1       1.565  14.416  21.542  0.00  0.00    +0.000 A 
ATOM      9  N   UNL     1       0.424  13.772  22.033  0.00  0.00    +0.000 N 
ATOM     10  C   UNL     1      -0.213  12.879  21.045  0.00  0.00    +0.000 C 
ATOM     11  C   UNL     1      -1.460  12.169  21.629  0.00  0.00    +0.000 C 
ATOM     12  N   UNL     1      -2.469  13.069  22.271  0.00  0.00    +0.000 NA
ATOM     13  C   UNL     1      -1.705  13.836  23.294  0.00  0.00    +0.000 C 
ATOM     14  C   UNL     1      -0.492  14.648  22.765  0.00  0.00    +0.000 C 
ATOM     15  N   UNL     1       2.195  15.374  22.260  0.00  0.00    +0.000 NA
ATOM     16  C   UNL     1       3.347  15.945  21.800  0.00  0.00    +0.000 A 
ATOM     17  N   UNL     1       4.038  16.801  22.663  0.00  0.00    +0.000 N 
ATOM     18  C   UNL     1       4.810  17.980  22.273  0.00  0.00    +0.000 C 
ATOM     19  C   UNL     1       3.527  16.917  24.033  0.00  0.00    +0.000 C 
ATOM     20  C   UNL     1       3.855  15.530  20.562  0.00  0.00    +0.000 A 
ATOM     21  C   UNL     1       5.116  16.052  19.959  0.00  0.00    +0.000 C 
ENDROOT
BRANCH  12  22
ATOM     22  C   UNL     1      -3.180  13.905  21.265  0.00  0.00    +0.000 C 
ATOM     23  C   UNL     1      -4.093  13.049  20.352  0.00  0.00    +0.000 C 
ATOM     24  C   UNL     1      -5.346  12.535  21.058  0.00  0.00    +0.000 C 
ATOM     25  C   UNL     1      -6.189  13.679  21.605  0.00  0.00    +0.000 C 
ATOM     26  C   UNL     1      -5.382  14.663  22.444  0.00  0.00    +0.000 C 
ATOM     27  C   UNL     1      -4.048  15.065  21.817  0.00  0.00    +0.000 C 
ENDBRANCH  12  22
BRANCH   1  28
ATOM     28  C   UNL     1       7.994  15.584  19.479  0.00  0.00    +0.000 C 
BRANCH  28  29
ATOM     29  C   UNL     1       8.648  14.376  20.144  0.00  0.00    +0.000 A 
ATOM     30  C   UNL     1       8.058  13.762  21.261  0.00  0.00    +0.000 A 
ATOM     31  C   UNL     1       8.676  12.674  21.887  0.00  0.00    +0.000 A 
ATOM     32  C   UNL     1       9.890  12.188  21.406  0.00  0.00    +0.000 A 
ATOM     33  C   UNL     1      10.472  12.769  20.283  0.00  0.00    +0.000 A 
ATOM     34  C   UNL     1       9.850  13.847  19.651  0.00  0.00    +0.000 A 
ENDBRANCH  28  29
BRANCH  28  36
ATOM     35  C   UNL     1       8.455  17.850  18.410  0.00  0.00    +0.000 C 
ATOM     36  C   UNL     1       9.037  16.491  18.794  0.00  0.00    +0.000 C 
ENDBRANCH  28  36
ENDBRANCH   1  28
TORSDOF 4
ENDMDL
MODEL 7
REMARK VINA RESULT:      -6.1      2.335      4.114
REMARK  Name = 
REMARK  7 active torsions:
REMARK  status: ('A' for Active; 'I' for Inactive)
REMARK    1  A    between atoms: C_1  and  C_2
REMARK    2  A    between atoms: C_2  and  C_3
REMARK    3  A    between atoms: C_3  and  C_4
REMARK    4  A    between atoms: C_3  and  C_31
REMARK    5  A    between atoms: N_15  and  C_16
REMARK    6  A    between atoms: N_26  and  C_27
REMARK    7  A    between atoms: N_26  and  C_28
REMARK                            x       y       z     vdW  Elec       q    Type
REMARK                         _______ _______ _______ _____ _____    ______ ____
ROOT
ATOM      1  C   UNL     1      -0.759  14.460  19.659  0.00  0.00    +0.000 C 
ATOM      2  O   UNL     1      -0.752  15.187  18.661  0.00  0.00    +0.000 OA
ATOM      3  N   UNL     1      -0.732  13.080  19.539  0.00  0.00    +0.000 N 
ATOM      4  C   UNL     1      -0.735  12.450  18.223  0.00  0.00    +0.000 C 
ATOM      5  C   UNL     1       0.500  11.580  18.116  0.00  0.00    +0.000 C 
ATOM      6  C   UNL     1       0.589  10.624  19.284  0.00  0.00    +0.000 A 
ATOM      7  N   UNL     1       1.354   9.557  19.070  0.00  0.00    +0.000 NA
ATOM      8  C   UNL     1       1.536   8.696  20.072  0.00  0.00    +0.000 A 
ATOM      9  N   UNL     1       2.392   7.617  19.824  0.00  0.00    +0.000 N 
ATOM     10  C   UNL     1       2.785   7.496  18.406  0.00  0.00    +0.000 C 
ATOM     11  C   UNL     1       3.746   6.304  18.173  0.00  0.00    +0.000 C 
ATOM     12  N   UNL     1       3.282   4.990  18.716  0.00  0.00    +0.000 NA
ATOM     13  C   UNL     1       3.011   5.244  20.159  0.00  0.00    +0.000 C 
ATOM     14  C   UNL     1       1.984   6.367  20.468  0.00  0.00    +0.000 C 
ATOM     15  N   UNL     1       0.966   8.876  21.285  0.00  0.00    +0.000 NA
ATOM     16  C   UNL     1       0.189   9.971  21.534  0.00  0.00    +0.000 A 
ATOM     17  N   UNL     1      -0.230  10.186  22.850  0.00  0.00    +0.000 N 
ATOM     18  C   UNL     1      -1.499  10.782  23.266  0.00  0.00    +0.000 C 
ATOM     19  C   UNL     1       0.305   9.280  23.873  0.00  0.00    +0.000 C 
ATOM     20  C   UNL     1      -0.019  10.896  20.502  0.00  0.00    +0.000 A 
ATOM     21  C   UNL     1      -0.822  12.144  20.650  0.00  0.00    +0.000 C 
ENDROOT
BRANCH  12  22
ATOM     22  C   UNL     1       2.125   4.453  17.948  0.00  0.00    +0.000 C 
ATOM     23  C   UNL     1       2.541   3.268  17.041  0.00  0.00    +0.000 C 
ATOM     24  C   UNL     1       2.835   1.985  17.816  0.00  0.00    +0.000 C 
ATOM     25  C   UNL     1       1.631   1.537  18.634  0.00  0.00    +0.000 C 
ATOM     26  C   UNL     1       1.054   2.650  19.501  0.00  0.00    +0.000 C 
ATOM     27  C   UNL     1       0.900   3.986  18.776  0.00  0.00    +0.000 C 
ENDBRANCH  12  22
BRANCH   1  28
ATOM     28  C   UNL     1      -0.772  15.068  21.079  0.00  0.00    +0.000 C 
BRANCH  28  29
ATOM     29  C   UNL     1      -2.115  14.813  21.757  0.00  0.00    +0.000 A 
ATOM     30  C   UNL     1      -3.318  14.953  21.047  0.00  0.00    +0.000 A 
ATOM     31  C   UNL     1      -4.549  14.750  21.679  0.00  0.00    +0.000 A 
ATOM     32  C   UNL     1      -4.593  14.405  23.028  0.00  0.00    +0.000 A 
ATOM     33  C   UNL     1      -3.408  14.235  23.738  0.00  0.00    +0.000 A 
ATOM     34  C   UNL     1      -2.179  14.427  23.104  0.00  0.00    +0.000 A 
ENDBRANCH  28  29
BRANCH  28  36
ATOM     35  C   UNL     1       1.753  15.026  21.415  0.00  0.00    +0.000 C 
ATOM     36  C   UNL     1       0.402  14.519  21.916  0.00  0.00    +0.000 C 
ENDBRANCH  28  36
ENDBRANCH   1  28
TORSDOF 4
ENDMDL
MODEL 8
REMARK VINA RESULT:      -6.0      5.479     10.957
REMARK  Name = 
REMARK  7 active torsions:
REMARK  status: ('A' for Active; 'I' for Inactive)
REMARK    1  A    between atoms: C_1  and  C_2
REMARK    2  A    between atoms: C_2  and  C_3
REMARK    3  A    between atoms: C_3  and  C_4
REMARK    4  A    between atoms: C_3  and  C_31
REMARK    5  A    between atoms: N_15  and  C_16
REMARK    6  A    between atoms: N_26  and  C_27
REMARK    7  A    between atoms: N_26  and  C_28
REMARK                            x       y       z     vdW  Elec       q    Type
REMARK                         _______ _______ _______ _____ _____    ______ ____
ROOT
ATOM      1  C   UNL     1       5.777  14.910  18.479  0.00  0.00    +0.000 C 
ATOM      2  O   UNL     1       6.027  14.167  17.525  0.00  0.00    +0.000 OA
ATOM      3  N   UNL     1       4.472  15.151  18.875  0.00  0.00    +0.000 N 
ATOM      4  C   UNL     1       3.355  14.560  18.146  0.00  0.00    +0.000 C 
ATOM      5  C   UNL     1       2.543  13.731  19.120  0.00  0.00    +0.000 C 
ATOM      6  C   UNL     1       2.157  14.549  20.332  0.00  0.00    +0.000 A 
ATOM      7  N   UNL     1       1.112  14.079  21.008  0.00  0.00    +0.000 NA
ATOM      8  C   UNL     1       0.745  14.707  22.126  0.00  0.00    +0.000 A 
ATOM      9  N   UNL     1      -0.322  14.148  22.838  0.00  0.00    +0.000 N 
ATOM     10  C   UNL     1      -1.009  13.065  22.107  0.00  0.00    +0.000 C 
ATOM     11  C   UNL     1      -2.172  12.459  22.932  0.00  0.00    +0.000 C 
ATOM     12  N   UNL     1      -3.153  13.446  23.479  0.00  0.00    +0.000 NA
ATOM     13  C   UNL     1      -2.332  14.414  24.258  0.00  0.00    +0.000 C 
ATOM     14  C   UNL     1      -1.203  15.132  23.470  0.00  0.00    +0.000 C 
ATOM     15  N   UNL     1       1.398  15.799  22.583  0.00  0.00    +0.000 NA
ATOM     16  C   UNL     1       2.483  16.292  21.914  0.00  0.00    +0.000 A 
ATOM     17  N   UNL     1       3.213  17.316  22.525  0.00  0.00    +0.000 N 
ATOM     18  C   UNL     1       3.902  18.411  21.843  0.00  0.00    +0.000 C 
ATOM     19  C   UNL     1       2.822  17.687  23.889  0.00  0.00    +0.000 C 
ATOM     20  C   UNL     1       2.895  15.653  20.738  0.00  0.00    +0.000 A 
ATOM     21  C   UNL     1       4.076  16.072  19.929  0.00  0.00    +0.000 C 
ENDROOT
BRANCH  12  22
ATOM     22  C   UNL     1      -3.983  14.054  22.402  0.00  0.00    +0.000 C 
ATOM     23  C   UNL     1      -5.058  13.067  21.882  0.00  0.00    +0.000 C 
ATOM     24  C   UNL     1      -6.203  12.844  22.869  0.00  0.00    +0.000 C 
ATOM     25  C   UNL     1      -6.907  14.149  23.214  0.00  0.00    +0.000 C 
ATOM     26  C   UNL     1      -5.943  15.249  23.644  0.00  0.00    +0.000 C 
ATOM     27  C   UNL     1      -4.710  15.378  22.751  0.00  0.00    +0.000 C 
ENDBRANCH  12  22
BRANCH   1  28
ATOM     28  C   UNL     1       6.917  15.578  19.280  0.00  0.00    +0.000 C 
BRANCH  28  29
ATOM     29  C   UNL     1       7.565  14.572  20.226  0.00  0.00    +0.000 A 
ATOM     30  C   UNL     1       7.070  14.383  21.527  0.00  0.00    +0.000 A 
ATOM     31  C   UNL     1       7.686  13.484  22.402  0.00  0.00    +0.000 A 
ATOM     32  C   UNL     1       8.804  12.762  21.990  0.00  0.00    +0.000 A 
ATOM     33  C   UNL     1       9.290  12.917  20.695  0.00  0.00    +0.000 A 
ATOM     34  C   UNL     1       8.668  13.807  19.817  0.00  0.00    +0.000 A 
ENDBRANCH  28  29
BRANCH  28  36
ATOM     35  C   UNL     1       8.473  17.548  18.848  0.00  0.00    +0.000 C 
ATOM     36  C   UNL     1       7.951  16.211  18.326  0.00  0.00    +0.000 C 
ENDBRANCH  28  36
ENDBRANCH   1  28
TORSDOF 4
ENDMDL
MODEL 9
REMARK VINA RESULT:      -5.9      5.629     10.925
REMARK  Name = 
REMARK  7 active torsions:
REMARK  status: ('A' for Active; 'I' for Inactive)
REMARK    1  A    between atoms: C_1  and  C_2
REMARK    2  A    between atoms: C_2  and  C_3
REMARK    3  A    between atoms: C_3  and  C_4
REMARK    4  A    between atoms: C_3  and  C_31
REMARK    5  A    between atoms: N_15  and  C_16
REMARK    6  A    between atoms: N_26  and  C_27
REMARK    7  A    between atoms: N_26  and  C_28
REMARK                            x       y       z     vdW  Elec       q    Type
REMARK                         _______ _______ _______ _____ _____    ______ ____
ROOT
ATOM      1  C   UNL     1       4.932  15.200  19.195  0.00  0.00    +0.000 C 
ATOM      2  O   UNL     1       5.229  14.529  18.203  0.00  0.00    +0.000 OA
ATOM      3  N   UNL     1       3.609  15.385  19.564  0.00  0.00    +0.000 N 
ATOM      4  C   UNL     1       2.530  14.821  18.761  0.00  0.00    +0.000 C 
ATOM      5  C   UNL     1       1.709  13.912  19.651  0.00  0.00    +0.000 C 
ATOM      6  C   UNL     1       1.266  14.637  20.901  0.00  0.00    +0.000 A 
ATOM      7  N   UNL     1       0.212  14.101  21.511  0.00  0.00    +0.000 NA
ATOM      8  C   UNL     1      -0.204  14.644  22.656  0.00  0.00    +0.000 A 
ATOM      9  N   UNL     1      -1.279  14.016  23.293  0.00  0.00    +0.000 N 
ATOM     10  C   UNL     1      -1.918  12.970  22.469  0.00  0.00    +0.000 C 
ATOM     11  C   UNL     1      -3.091  12.284  23.214  0.00  0.00    +0.000 C 
ATOM     12  N   UNL     1      -4.112  13.211  23.794  0.00  0.00    +0.000 NA
ATOM     13  C   UNL     1      -3.338  14.143  24.661  0.00  0.00    +0.000 C 
ATOM     14  C   UNL     1      -2.202  14.936  23.960  0.00  0.00    +0.000 C 
ATOM     15  N   UNL     1       0.408  15.717  23.204  0.00  0.00    +0.000 NA
ATOM     16  C   UNL     1       1.501  16.277  22.606  0.00  0.00    +0.000 A 
ATOM     17  N   UNL     1       2.188  17.272  23.307  0.00  0.00    +0.000 N 
ATOM     18  C   UNL     1       2.871  18.425  22.722  0.00  0.00    +0.000 C 
ATOM     19  C   UNL     1       1.746  17.543  24.679  0.00  0.00    +0.000 C 
ATOM     20  C   UNL     1       1.964  15.727  21.403  0.00  0.00    +0.000 A 
ATOM     21  C   UNL     1       3.160  16.225  20.664  0.00  0.00    +0.000 C 
ENDROOT
BRANCH  12  22
ATOM     22  C   UNL     1      -4.922  13.872  22.733  0.00  0.00    +0.000 C 
ATOM     23  C   UNL     1      -5.870  12.869  22.029  0.00  0.00    +0.000 C 
ATOM     24  C   UNL     1      -7.051  12.440  22.898  0.00  0.00    +0.000 C 
ATOM     25  C   UNL     1      -7.889  13.635  23.333  0.00  0.00    +0.000 C 
ATOM     26  C   UNL     1      -7.055  14.751  23.953  0.00  0.00    +0.000 C 
ATOM     27  C   UNL     1      -5.784  15.083  23.173  0.00  0.00    +0.000 C 
ENDBRANCH  12  22
BRANCH   1  28
ATOM     28  C   UNL     1       6.031  15.837  20.075  0.00  0.00    +0.000 C 
BRANCH  28  29
ATOM     29  C   UNL     1       6.765  14.763  20.873  0.00  0.00    +0.000 A 
ATOM     30  C   UNL     1       8.011  14.276  20.448  0.00  0.00    +0.000 A 
ATOM     31  C   UNL     1       8.666  13.269  21.164  0.00  0.00    +0.000 A 
ATOM     32  C   UNL     1       8.085  12.736  22.311  0.00  0.00    +0.000 A 
ATOM     33  C   UNL     1       6.863  13.229  22.761  0.00  0.00    +0.000 A 
ATOM     34  C   UNL     1       6.214  14.242  22.053  0.00  0.00    +0.000 A 
ENDBRANCH  28  29
BRANCH  28  36
ATOM     35  C   UNL     1       7.531  17.893  19.960  0.00  0.00    +0.000 C 
ATOM     36  C   UNL     1       7.001  16.670  19.213  0.00  0.00    +0.000 C 
ENDBRANCH  28  36
ENDBRANCH   1  28
TORSDOF 4
ENDMDL
