MODEL 1
REMARK VINA RESULT:      -9.1      0.000      0.000
REMARK  Name = 
REMARK  7 active torsions:
REMARK  status: ('A' for Active; 'I' for Inactive)
REMARK    1  A    between atoms: C_2  and  C_14
REMARK    2  A    between atoms: N_3  and  N_4
REMARK    3  A    between atoms: C_5  and  C_6
REMARK    4  A    between atoms: C_9  and  O_10
REMARK    5  A    between atoms: C_12  and  O_13
REMARK    6  A    between atoms: C_17  and  C_18
REMARK    7  A    between atoms: C_18  and  N_19
REMARK                            x       y       z     vdW  Elec       q    Type
REMARK                         _______ _______ _______ _____ _____    ______ ____
ROOT
ATOM      1  C   UNL     1       0.463   9.728  21.327  0.00  0.00    +0.000 A 
ATOM      2  C   UNL     1      -0.276   9.524  22.497  0.00  0.00    +0.000 A 
ATOM      3  C   UNL     1      -0.980  10.589  23.085  0.00  0.00    +0.000 A 
ATOM      4  C   UNL     1      -0.981  11.870  22.507  0.00  0.00    +0.000 A 
ATOM      5  C   UNL     1      -0.246  12.064  21.328  0.00  0.00    +0.000 A 
ATOM      6  C   UNL     1       0.464  11.003  20.745  0.00  0.00    +0.000 A 
ENDROOT
BRANCH   1   8
ATOM      7  O   UNL     1       1.529   8.775  19.459  0.00  0.00    +0.000 OA
ATOM      8  C   UNL     1       1.209   8.626  20.636  0.00  0.00    +0.000 C 
ATOM      9  N   UNL     1       1.515   7.512  21.409  0.00  0.00    +0.000 N 
ATOM     10  H   UNL     1       1.312   7.489  22.400  0.00  0.00    +0.000 HD
BRANCH   9  11
ATOM     11  N   UNL     1       2.206   6.465  20.857  0.00  0.00    +0.000 NA
ATOM     12  C   UNL     1       1.500   5.420  20.551  0.00  0.00    +0.000 C 
BRANCH  12  13
ATOM     13  C   UNL     1       2.105   4.217  19.933  0.00  0.00    +0.000 A 
ATOM     14  C   UNL     1       1.363   3.035  19.806  0.00  0.00    +0.000 A 
ATOM     15  C   UNL     1       1.931   1.898  19.229  0.00  0.00    +0.000 A 
ATOM     16  C   UNL     1       3.245   1.950  18.776  0.00  0.00    +0.000 A 
ATOM     17  C   UNL     1       3.998   3.117  18.888  0.00  0.00    +0.000 A 
ATOM     18  C   UNL     1       3.425   4.250  19.468  0.00  0.00    +0.000 A 
BRANCH  16  19
ATOM     19  O   UNL     1       3.842   0.864  18.206  0.00  0.00    +0.000 OA
ATOM     20  H   UNL     1       3.654   0.074  18.744  0.00  0.00    +0.000 HD
ENDBRANCH  16  19
BRANCH  18  21
ATOM     21  O   UNL     1       4.170   5.393  19.585  0.00  0.00    +0.000 OA
ATOM     22  H   UNL     1       5.036   5.164  19.966  0.00  0.00    +0.000 HD
ENDBRANCH  18  21
ENDBRANCH  12  13
ENDBRANCH   9  11
ENDBRANCH   1   8
BRANCH   4  23
ATOM     23  C   UNL     1      -1.944  12.928  22.994  0.00  0.00    +0.000 C 
BRANCH  23  24
ATOM     24  N   UNL     1      -3.367  12.889  22.753  0.00  0.00    +0.000 N 
ATOM     25  C   UNL     1      -4.191  12.855  23.920  0.00  0.00    +0.000 C 
ATOM     26  O   UNL     1      -3.791  12.841  25.078  0.00  0.00    +0.000 OA
ATOM     27  C   UNL     1      -5.529  12.829  23.387  0.00  0.00    +0.000 A 
ATOM     28  C   UNL     1      -6.758  12.845  24.042  0.00  0.00    +0.000 A 
ATOM     29  C   UNL     1      -7.910  12.827  23.237  0.00  0.00    +0.000 A 
ATOM     30  C   UNL     1      -7.831  12.752  21.833  0.00  0.00    +0.000 A 
ATOM     31  C   UNL     1      -6.574  12.692  21.199  0.00  0.00    +0.000 A 
ATOM     32  C   UNL     1      -6.314  12.548  19.830  0.00  0.00    +0.000 A 
ATOM     33  C   UNL     1      -4.979  12.499  19.374  0.00  0.00    +0.000 A 
ATOM     34  C   UNL     1      -3.864  12.623  20.244  0.00  0.00    +0.000 A 
ATOM     35  C   UNL     1      -4.152  12.762  21.595  0.00  0.00    +0.000 A 
ATOM     36  C   UNL     1      -5.475  12.765  22.010  0.00  0.00    +0.000 A 
ENDBRANCH  23  24
ENDBRANCH   4  23
TORSDOF 7
ENDMDL
MODEL 2
REMARK VINA RESULT:      -8.6      1.091      1.235
REMARK  Name = 
REMARK  7 active torsions:
REMARK  status: ('A' for Active; 'I' for Inactive)
REMARK    1  A    between atoms: C_2  and  C_14
REMARK    2  A    between atoms: N_3  and  N_4
REMARK    3  A    between atoms: C_5  and  C_6
REMARK    4  A    between atoms: C_9  and  O_10
REMARK    5  A    between atoms: C_12  and  O_13
REMARK    6  A    between atoms: C_17  and  C_18
REMARK    7  A    between atoms: C_18  and  N_19
REMARK                            x       y       z     vdW  Elec       q    Type
REMARK                         _______ _______ _______ _____ _____    ______ ____
ROOT
ATOM      1  C   UNL     1       0.680  10.132  19.737  0.00  0.00    +0.000 A 
ATOM      2  C   UNL     1       0.022  10.085  20.971  0.00  0.00    +0.000 A 
ATOM      3  C   UNL     1      -0.689  11.204  21.438  0.00  0.00    +0.000 A 
ATOM      4  C   UNL     1      -0.779  12.382  20.675  0.00  0.00    +0.000 A 
ATOM      5  C   UNL     1      -0.126  12.417  19.435  0.00  0.00    +0.000 A 
ATOM      6  C   UNL     1       0.592  11.304  18.971  0.00  0.00    +0.000 A 
ENDROOT
BRANCH   1   8
ATOM      7  O   UNL     1       1.817   9.016  18.007  0.00  0.00    +0.000 OA
ATOM      8  C   UNL     1       1.429   8.963  19.172  0.00  0.00    +0.000 C 
ATOM      9  N   UNL     1       1.657   7.902  20.039  0.00  0.00    +0.000 N 
ATOM     10  H   UNL     1       1.399   7.958  21.016  0.00  0.00    +0.000 HD
BRANCH   9  11
ATOM     11  N   UNL     1       2.345   6.799  19.606  0.00  0.00    +0.000 NA
ATOM     12  C   UNL     1       1.924   5.657  20.055  0.00  0.00    +0.000 C 
BRANCH  12  13
ATOM     13  C   UNL     1       2.557   4.376  19.662  0.00  0.00    +0.000 A 
ATOM     14  C   UNL     1       1.768   3.254  19.372  0.00  0.00    +0.000 A 
ATOM     15  C   UNL     1       2.361   2.044  19.007  0.00  0.00    +0.000 A 
ATOM     16  C   UNL     1       3.747   1.962  18.930  0.00  0.00    +0.000 A 
ATOM     17  C   UNL     1       4.549   3.067  19.210  0.00  0.00    +0.000 A 
ATOM     18  C   UNL     1       3.950   4.273  19.576  0.00  0.00    +0.000 A 
BRANCH  16  19
ATOM     19  O   UNL     1       4.371   0.801  18.578  0.00  0.00    +0.000 OA
ATOM     20  H   UNL     1       4.074   0.085  19.168  0.00  0.00    +0.000 HD
ENDBRANCH  16  19
BRANCH  18  21
ATOM     21  O   UNL     1       4.741   5.356  19.858  0.00  0.00    +0.000 OA
ATOM     22  H   UNL     1       5.644   5.173  19.544  0.00  0.00    +0.000 HD
ENDBRANCH  18  21
ENDBRANCH  12  13
ENDBRANCH   9  11
ENDBRANCH   1   8
BRANCH   4  23
ATOM     23  C   UNL     1      -1.755  13.469  21.060  0.00  0.00    +0.000 C 
BRANCH  23  24
ATOM     24  N   UNL     1      -3.127  13.220  21.435  0.00  0.00    +0.000 N 
ATOM     25  C   UNL     1      -3.420  13.347  22.828  0.00  0.00    +0.000 C 
ATOM     26  O   UNL     1      -2.613  13.628  23.706  0.00  0.00    +0.000 OA
ATOM     27  C   UNL     1      -4.829  13.057  22.904  0.00  0.00    +0.000 A 
ATOM     28  C   UNL     1      -5.694  13.076  23.995  0.00  0.00    +0.000 A 
ATOM     29  C   UNL     1      -7.039  12.756  23.748  0.00  0.00    +0.000 A 
ATOM     30  C   UNL     1      -7.490  12.389  22.465  0.00  0.00    +0.000 A 
ATOM     31  C   UNL     1      -6.584  12.334  21.388  0.00  0.00    +0.000 A 
ATOM     32  C   UNL     1      -6.844  11.929  20.072  0.00  0.00    +0.000 A 
ATOM     33  C   UNL     1      -5.801  11.932  19.121  0.00  0.00    +0.000 A 
ATOM     34  C   UNL     1      -4.484  12.366  19.426  0.00  0.00    +0.000 A 
ATOM     35  C   UNL     1      -4.255  12.760  20.737  0.00  0.00    +0.000 A 
ATOM     36  C   UNL     1      -5.294  12.704  21.654  0.00  0.00    +0.000 A 
ENDBRANCH  23  24
ENDBRANCH   4  23
TORSDOF 7
ENDMDL
MODEL 3
REMARK VINA RESULT:      -8.5      1.422      1.721
REMARK  Name = 
REMARK  7 active torsions:
REMARK  status: ('A' for Active; 'I' for Inactive)
REMARK    1  A    between atoms: C_2  and  C_14
REMARK    2  A    between atoms: N_3  and  N_4
REMARK    3  A    between atoms: C_5  and  C_6
REMARK    4  A    between atoms: C_9  and  O_10
REMARK    5  A    between atoms: C_12  and  O_13
REMARK    6  A    between atoms: C_17  and  C_18
REMARK    7  A    between atoms: C_18  and  N_19
REMARK                            x       y       z     vdW  Elec       q    Type
REMARK                         _______ _______ _______ _____ _____    ______ ____
ROOT
ATOM      1  C   UNL     1       0.289   9.789  20.977  0.00  0.00    +0.000 A 
ATOM      2  C   UNL     1      -0.056  11.021  20.411  0.00  0.00    +0.000 A 
ATOM      3  C   UNL     1      -0.779  11.966  21.159  0.00  0.00    +0.000 A 
ATOM      4  C   UNL     1      -1.150  11.713  22.491  0.00  0.00    +0.000 A 
ATOM      5  C   UNL     1      -0.791  10.481  23.054  0.00  0.00    +0.000 A 
ATOM      6  C   UNL     1      -0.078   9.532  22.306  0.00  0.00    +0.000 A 
ENDROOT
BRANCH   1   8
ATOM      7  O   UNL     1       1.511   9.018  19.121  0.00  0.00    +0.000 OA
ATOM      8  C   UNL     1       1.083   8.752  20.242  0.00  0.00    +0.000 C 
ATOM      9  N   UNL     1       1.304   7.556  20.914  0.00  0.00    +0.000 N 
ATOM     10  H   UNL     1       1.011   7.432  21.875  0.00  0.00    +0.000 HD
BRANCH   9  11
ATOM     11  N   UNL     1       2.032   6.560  20.319  0.00  0.00    +0.000 NA
ATOM     12  C   UNL     1       1.664   5.346  20.597  0.00  0.00    +0.000 C 
BRANCH  12  13
ATOM     13  C   UNL     1       2.344   4.166  20.015  0.00  0.00    +0.000 A 
ATOM     14  C   UNL     1       1.623   2.996  19.740  0.00  0.00    +0.000 A 
ATOM     15  C   UNL     1       2.262   1.880  19.197  0.00  0.00    +0.000 A 
ATOM     16  C   UNL     1       3.625   1.939  18.928  0.00  0.00    +0.000 A 
ATOM     17  C   UNL     1       4.359   3.095  19.191  0.00  0.00    +0.000 A 
ATOM     18  C   UNL     1       3.715   4.207  19.735  0.00  0.00    +0.000 A 
BRANCH  16  19
ATOM     19  O   UNL     1       4.292   0.874  18.398  0.00  0.00    +0.000 OA
ATOM     20  H   UNL     1       5.100   1.188  17.956  0.00  0.00    +0.000 HD
ENDBRANCH  16  19
BRANCH  18  21
ATOM     21  O   UNL     1       4.440   5.339  19.999  0.00  0.00    +0.000 OA
ATOM     22  H   UNL     1       4.073   5.766  20.793  0.00  0.00    +0.000 HD
ENDBRANCH  18  21
ENDBRANCH  12  13
ENDBRANCH   9  11
ENDBRANCH   1   8
BRANCH   4  23
ATOM     23  C   UNL     1      -1.686  12.828  23.361  0.00  0.00    +0.000 C 
BRANCH  23  24
ATOM     24  N   UNL     1      -3.025  13.358  23.250  0.00  0.00    +0.000 N 
ATOM     25  C   UNL     1      -4.039  12.625  23.941  0.00  0.00    +0.000 C 
ATOM     26  O   UNL     1      -3.864  11.600  24.589  0.00  0.00    +0.000 OA
ATOM     27  C   UNL     1      -5.239  13.372  23.667  0.00  0.00    +0.000 A 
ATOM     28  C   UNL     1      -6.543  13.176  24.117  0.00  0.00    +0.000 A 
ATOM     29  C   UNL     1      -7.513  14.095  23.682  0.00  0.00    +0.000 A 
ATOM     30  C   UNL     1      -7.195  15.144  22.797  0.00  0.00    +0.000 A 
ATOM     31  C   UNL     1      -5.877  15.292  22.323  0.00  0.00    +0.000 A 
ATOM     32  C   UNL     1      -5.403  16.229  21.395  0.00  0.00    +0.000 A 
ATOM     33  C   UNL     1      -4.039  16.223  21.031  0.00  0.00    +0.000 A 
ATOM     34  C   UNL     1      -3.097  15.320  21.591  0.00  0.00    +0.000 A 
ATOM     35  C   UNL     1      -3.596  14.402  22.506  0.00  0.00    +0.000 A 
ATOM     36  C   UNL     1      -4.949  14.412  22.808  0.00  0.00    +0.000 A 
ENDBRANCH  23  24
ENDBRANCH   4  23
TORSDOF 7
ENDMDL
MODEL 4
REMARK VINA RESULT:      -8.5      1.551      1.886
REMARK  Name = 
REMARK  7 active torsions:
REMARK  status: ('A' for Active; 'I' for Inactive)
REMARK    1  A    between atoms: C_2  and  C_14
REMARK    2  A    between atoms: N_3  and  N_4
REMARK    3  A    between atoms: C_5  and  C_6
REMARK    4  A    between atoms: C_9  and  O_10
REMARK    5  A    between atoms: C_12  and  O_13
REMARK    6  A    between atoms: C_17  and  C_18
REMARK    7  A    between atoms: C_18  and  N_19
REMARK                            x       y       z     vdW  Elec       q    Type
REMARK                         _______ _______ _______ _____ _____    ______ ____
ROOT
ATOM      1  C   UNL     1       0.860   9.975  19.269  0.00  0.00    +0.000 A 
ATOM      2  C   UNL     1       0.024   9.910  20.389  0.00  0.00    +0.000 A 
ATOM      3  C   UNL     1      -0.678  11.050  20.817  0.00  0.00    +0.000 A 
ATOM      4  C   UNL     1      -0.579  12.270  20.124  0.00  0.00    +0.000 A 
ATOM      5  C   UNL     1       0.252  12.324  18.996  0.00  0.00    +0.000 A 
ATOM      6  C   UNL     1       0.960  11.189  18.573  0.00  0.00    +0.000 A 
ENDROOT
BRANCH   1   8
ATOM      7  O   UNL     1       2.051   8.823  17.599  0.00  0.00    +0.000 OA
ATOM      8  C   UNL     1       1.610   8.788  18.746  0.00  0.00    +0.000 C 
ATOM      9  N   UNL     1       1.779   7.729  19.631  0.00  0.00    +0.000 N 
ATOM     10  H   UNL     1       1.479   7.798  20.595  0.00  0.00    +0.000 HD
BRANCH   9  11
ATOM     11  N   UNL     1       2.463   6.610  19.236  0.00  0.00    +0.000 NA
ATOM     12  C   UNL     1       1.989   5.478  19.658  0.00  0.00    +0.000 C 
BRANCH  12  13
ATOM     13  C   UNL     1       2.612   4.182  19.301  0.00  0.00    +0.000 A 
ATOM     14  C   UNL     1       3.603   3.621  20.117  0.00  0.00    +0.000 A 
ATOM     15  C   UNL     1       4.196   2.404  19.781  0.00  0.00    +0.000 A 
ATOM     16  C   UNL     1       3.791   1.747  18.624  0.00  0.00    +0.000 A 
ATOM     17  C   UNL     1       2.803   2.285  17.801  0.00  0.00    +0.000 A 
ATOM     18  C   UNL     1       2.215   3.503  18.142  0.00  0.00    +0.000 A 
BRANCH  16  19
ATOM     19  O   UNL     1       4.343   0.555  18.254  0.00  0.00    +0.000 OA
ATOM     20  H   UNL     1       3.663  -0.141  18.299  0.00  0.00    +0.000 HD
ENDBRANCH  16  19
BRANCH  18  21
ATOM     21  O   UNL     1       1.251   4.034  17.327  0.00  0.00    +0.000 OA
ATOM     22  H   UNL     1       1.484   3.844  16.402  0.00  0.00    +0.000 HD
ENDBRANCH  18  21
ENDBRANCH  12  13
ENDBRANCH   9  11
ENDBRANCH   1   8
BRANCH   4  23
ATOM     23  C   UNL     1      -1.532  13.402  20.431  0.00  0.00    +0.000 C 
BRANCH  23  24
ATOM     24  N   UNL     1      -2.853  13.212  20.981  0.00  0.00    +0.000 N 
ATOM     25  C   UNL     1      -2.980  13.460  22.383  0.00  0.00    +0.000 C 
ATOM     26  O   UNL     1      -2.073  13.798  23.135  0.00  0.00    +0.000 OA
ATOM     27  C   UNL     1      -4.373  13.206  22.645  0.00  0.00    +0.000 A 
ATOM     28  C   UNL     1      -5.104  13.333  23.824  0.00  0.00    +0.000 A 
ATOM     29  C   UNL     1      -6.473  13.020  23.762  0.00  0.00    +0.000 A 
ATOM     30  C   UNL     1      -7.074  12.556  22.576  0.00  0.00    +0.000 A 
ATOM     31  C   UNL     1      -6.301  12.394  21.410  0.00  0.00    +0.000 A 
ATOM     32  C   UNL     1      -6.717  11.885  20.172  0.00  0.00    +0.000 A 
ATOM     33  C   UNL     1      -5.792  11.789  19.110  0.00  0.00    +0.000 A 
ATOM     34  C   UNL     1      -4.444  12.220  19.222  0.00  0.00    +0.000 A 
ATOM     35  C   UNL     1      -4.059  12.718  20.460  0.00  0.00    +0.000 A 
ATOM     36  C   UNL     1      -4.984  12.758  21.492  0.00  0.00    +0.000 A 
ENDBRANCH  23  24
ENDBRANCH   4  23
TORSDOF 7
ENDMDL
MODEL 5
REMARK VINA RESULT:      -8.5      2.792     12.073
REMARK  Name = 
REMARK  7 active torsions:
REMARK  status: ('A' for Active; 'I' for Inactive)
REMARK    1  A    between atoms: C_2  and  C_14
REMARK    2  A    between atoms: N_3  and  N_4
REMARK    3  A    between atoms: C_5  and  C_6
REMARK    4  A    between atoms: C_9  and  O_10
REMARK    5  A    between atoms: C_12  and  O_13
REMARK    6  A    between atoms: C_17  and  C_18
REMARK    7  A    between atoms: C_18  and  N_19
REMARK                            x       y       z     vdW  Elec       q    Type
REMARK                         _______ _______ _______ _____ _____    ______ ____
ROOT
ATOM      1  C   UNL     1       0.843   9.152  20.258  0.00  0.00    +0.000 A 
ATOM      2  C   UNL     1       1.532   8.914  19.064  0.00  0.00    +0.000 A 
ATOM      3  C   UNL     1       2.257   7.722  18.890  0.00  0.00    +0.000 A 
ATOM      4  C   UNL     1       2.289   6.735  19.891  0.00  0.00    +0.000 A 
ATOM      5  C   UNL     1       1.586   6.977  21.079  0.00  0.00    +0.000 A 
ATOM      6  C   UNL     1       0.869   8.170  21.258  0.00  0.00    +0.000 A 
ENDROOT
BRANCH   1   8
ATOM      7  O   UNL     1      -0.527  10.923  19.534  0.00  0.00    +0.000 OA
ATOM      8  C   UNL     1       0.028  10.389  20.492  0.00  0.00    +0.000 C 
ATOM      9  N   UNL     1      -0.061  10.825  21.808  0.00  0.00    +0.000 N 
ATOM     10  H   UNL     1       0.337  10.288  22.568  0.00  0.00    +0.000 HD
BRANCH   9  11
ATOM     11  N   UNL     1      -0.796  11.941  22.111  0.00  0.00    +0.000 NA
ATOM     12  C   UNL     1      -1.762  11.769  22.961  0.00  0.00    +0.000 C 
BRANCH  12  13
ATOM     13  C   UNL     1      -2.632  12.885  23.399  0.00  0.00    +0.000 A 
ATOM     14  C   UNL     1      -4.026  12.780  23.298  0.00  0.00    +0.000 A 
ATOM     15  C   UNL     1      -4.849  13.832  23.704  0.00  0.00    +0.000 A 
ATOM     16  C   UNL     1      -4.271  14.990  24.213  0.00  0.00    +0.000 A 
ATOM     17  C   UNL     1      -2.887  15.112  24.326  0.00  0.00    +0.000 A 
ATOM     18  C   UNL     1      -2.070  14.058  23.917  0.00  0.00    +0.000 A 
BRANCH  16  19
ATOM     19  O   UNL     1      -5.035  16.044  24.622  0.00  0.00    +0.000 OA
ATOM     20  H   UNL     1      -5.147  16.666  23.881  0.00  0.00    +0.000 HD
ENDBRANCH  16  19
BRANCH  18  21
ATOM     21  O   UNL     1      -0.710  14.184  24.021  0.00  0.00    +0.000 OA
ATOM     22  H   UNL     1      -0.505  14.690  24.827  0.00  0.00    +0.000 HD
ENDBRANCH  18  21
ENDBRANCH  12  13
ENDBRANCH   9  11
ENDBRANCH   1   8
BRANCH   4  23
ATOM     23  C   UNL     1       2.843   5.361  19.592  0.00  0.00    +0.000 C 
BRANCH  23  24
ATOM     24  N   UNL     1       3.849   5.103  18.589  0.00  0.00    +0.000 N 
ATOM     25  C   UNL     1       3.377   4.506  17.379  0.00  0.00    +0.000 C 
ATOM     26  O   UNL     1       2.217   4.192  17.142  0.00  0.00    +0.000 OA
ATOM     27  C   UNL     1       4.568   4.375  16.581  0.00  0.00    +0.000 A 
ATOM     28  C   UNL     1       4.732   3.910  15.278  0.00  0.00    +0.000 A 
ATOM     29  C   UNL     1       6.037   3.917  14.757  0.00  0.00    +0.000 A 
ATOM     30  C   UNL     1       7.140   4.334  15.528  0.00  0.00    +0.000 A 
ATOM     31  C   UNL     1       6.951   4.758  16.858  0.00  0.00    +0.000 A 
ATOM     32  C   UNL     1       7.934   5.140  17.781  0.00  0.00    +0.000 A 
ATOM     33  C   UNL     1       7.555   5.530  19.084  0.00  0.00    +0.000 A 
ATOM     34  C   UNL     1       6.200   5.591  19.505  0.00  0.00    +0.000 A 
ATOM     35  C   UNL     1       5.249   5.206  18.570  0.00  0.00    +0.000 A 
ATOM     36  C   UNL     1       5.661   4.788  17.314  0.00  0.00    +0.000 A 
ENDBRANCH  23  24
ENDBRANCH   4  23
TORSDOF 7
ENDMDL
MODEL 6
REMARK VINA RESULT:      -8.5      1.936      2.330
REMARK  Name = 
REMARK  7 active torsions:
REMARK  status: ('A' for Active; 'I' for Inactive)
REMARK    1  A    between atoms: C_2  and  C_14
REMARK    2  A    between atoms: N_3  and  N_4
REMARK    3  A    between atoms: C_5  and  C_6
REMARK    4  A    between atoms: C_9  and  O_10
REMARK    5  A    between atoms: C_12  and  O_13
REMARK    6  A    between atoms: C_17  and  C_18
REMARK    7  A    between atoms: C_18  and  N_19
REMARK                            x       y       z     vdW  Elec       q    Type
REMARK                         _______ _______ _______ _____ _____    ______ ____
ROOT
ATOM      1  C   UNL     1       0.605   9.409  21.055  0.00  0.00    +0.000 A 
ATOM      2  C   UNL     1      -0.030   9.406  22.301  0.00  0.00    +0.000 A 
ATOM      3  C   UNL     1      -0.637  10.576  22.790  0.00  0.00    +0.000 A 
ATOM      4  C   UNL     1      -0.645  11.763  22.037  0.00  0.00    +0.000 A 
ATOM      5  C   UNL     1      -0.017  11.755  20.784  0.00  0.00    +0.000 A 
ATOM      6  C   UNL     1       0.598  10.590  20.299  0.00  0.00    +0.000 A 
ENDROOT
BRANCH   1   8
ATOM      7  O   UNL     1       1.344   7.179  21.161  0.00  0.00    +0.000 OA
ATOM      8  C   UNL     1       1.243   8.188  20.466  0.00  0.00    +0.000 C 
ATOM      9  N   UNL     1       1.652   8.286  19.141  0.00  0.00    +0.000 N 
ATOM     10  H   UNL     1       1.453   9.111  18.591  0.00  0.00    +0.000 HD
BRANCH   9  11
ATOM     11  N   UNL     1       2.235   7.211  18.523  0.00  0.00    +0.000 NA
ATOM     12  C   UNL     1       3.424   7.410  18.043  0.00  0.00    +0.000 C 
BRANCH  12  13
ATOM     13  C   UNL     1       4.186   6.338  17.362  0.00  0.00    +0.000 A 
ATOM     14  C   UNL     1       4.925   6.617  16.205  0.00  0.00    +0.000 A 
ATOM     15  C   UNL     1       5.640   5.608  15.557  0.00  0.00    +0.000 A 
ATOM     16  C   UNL     1       5.615   4.318  16.075  0.00  0.00    +0.000 A 
ATOM     17  C   UNL     1       4.891   4.020  17.228  0.00  0.00    +0.000 A 
ATOM     18  C   UNL     1       4.177   5.033  17.870  0.00  0.00    +0.000 A 
BRANCH  16  19
ATOM     19  O   UNL     1       6.298   3.299  15.477  0.00  0.00    +0.000 OA
ATOM     20  H   UNL     1       7.252   3.486  15.516  0.00  0.00    +0.000 HD
ENDBRANCH  16  19
BRANCH  18  21
ATOM     21  O   UNL     1       3.459   4.736  18.998  0.00  0.00    +0.000 OA
ATOM     22  H   UNL     1       2.516   4.899  18.820  0.00  0.00    +0.000 HD
ENDBRANCH  18  21
ENDBRANCH  12  13
ENDBRANCH   9  11
ENDBRANCH   1   8
BRANCH   4  23
ATOM     23  C   UNL     1      -1.521  12.924  22.450  0.00  0.00    +0.000 C 
BRANCH  23  24
ATOM     24  N   UNL     1      -2.960  12.924  22.336  0.00  0.00    +0.000 N 
ATOM     25  C   UNL     1      -3.678  13.047  23.565  0.00  0.00    +0.000 C 
ATOM     26  O   UNL     1      -3.177  13.136  24.680  0.00  0.00    +0.000 OA
ATOM     27  C   UNL     1      -5.058  13.026  23.154  0.00  0.00    +0.000 A 
ATOM     28  C   UNL     1      -6.223  13.165  23.905  0.00  0.00    +0.000 A 
ATOM     29  C   UNL     1      -7.441  13.114  23.206  0.00  0.00    +0.000 A 
ATOM     30  C   UNL     1      -7.490  12.891  21.817  0.00  0.00    +0.000 A 
ATOM     31  C   UNL     1      -6.297  12.709  21.089  0.00  0.00    +0.000 A 
ATOM     32  C   UNL     1      -6.165  12.413  19.725  0.00  0.00    +0.000 A 
ATOM     33  C   UNL     1      -4.878  12.257  19.167  0.00  0.00    +0.000 A 
ATOM     34  C   UNL     1      -3.687  12.422  19.921  0.00  0.00    +0.000 A 
ATOM     35  C   UNL     1      -3.849  12.713  21.269  0.00  0.00    +0.000 A 
ATOM     36  C   UNL     1      -5.129  12.817  21.792  0.00  0.00    +0.000 A 
ENDBRANCH  23  24
ENDBRANCH   4  23
TORSDOF 7
ENDMDL
MODEL 7
REMARK VINA RESULT:      -8.5      1.800      2.352
REMARK  Name = 
REMARK  7 active torsions:
REMARK  status: ('A' for Active; 'I' for Inactive)
REMARK    1  A    between atoms: C_2  and  C_14
REMARK    2  A    between atoms: N_3  and  N_4
REMARK    3  A    between atoms: C_5  and  C_6
REMARK    4  A    between atoms: C_9  and  O_10
REMARK    5  A    between atoms: C_12  and  O_13
REMARK    6  A    between atoms: C_17  and  C_18
REMARK    7  A    between atoms: C_18  and  N_19
REMARK                            x       y       z     vdW  Elec       q    Type
REMARK                         _______ _______ _______ _____ _____    ______ ____
ROOT
ATOM      1  C   UNL     1       0.838  10.192  18.856  0.00  0.00    +0.000 A 
ATOM      2  C   UNL     1       1.419  11.350  19.383  0.00  0.00    +0.000 A 
ATOM      3  C   UNL     1       0.620  12.461  19.704  0.00  0.00    +0.000 A 
ATOM      4  C   UNL     1      -0.775  12.432  19.530  0.00  0.00    +0.000 A 
ATOM      5  C   UNL     1      -1.351  11.263  19.013  0.00  0.00    +0.000 A 
ATOM      6  C   UNL     1      -0.554  10.157  18.683  0.00  0.00    +0.000 A 
ENDROOT
BRANCH   1   8
ATOM      7  O   UNL     1       2.065   8.833  17.380  0.00  0.00    +0.000 OA
ATOM      8  C   UNL     1       1.631   8.965  18.522  0.00  0.00    +0.000 C 
ATOM      9  N   UNL     1       1.843   8.068  19.563  0.00  0.00    +0.000 N 
ATOM     10  H   UNL     1       1.545   8.279  20.506  0.00  0.00    +0.000 HD
BRANCH   9  11
ATOM     11  N   UNL     1       2.569   6.927  19.345  0.00  0.00    +0.000 NA
ATOM     12  C   UNL     1       1.889   5.822  19.315  0.00  0.00    +0.000 C 
BRANCH  12  13
ATOM     13  C   UNL     1       2.533   4.509  19.073  0.00  0.00    +0.000 A 
ATOM     14  C   UNL     1       3.623   4.099  19.853  0.00  0.00    +0.000 A 
ATOM     15  C   UNL     1       4.236   2.866  19.623  0.00  0.00    +0.000 A 
ATOM     16  C   UNL     1       3.751   2.043  18.612  0.00  0.00    +0.000 A 
ATOM     17  C   UNL     1       2.666   2.431  17.829  0.00  0.00    +0.000 A 
ATOM     18  C   UNL     1       2.059   3.666  18.062  0.00  0.00    +0.000 A 
BRANCH  16  19
ATOM     19  O   UNL     1       4.318   0.830  18.351  0.00  0.00    +0.000 OA
ATOM     20  H   UNL     1       5.288   0.915  18.381  0.00  0.00    +0.000 HD
ENDBRANCH  16  19
BRANCH  18  21
ATOM     21  O   UNL     1       0.997   4.048  17.285  0.00  0.00    +0.000 OA
ATOM     22  H   UNL     1       0.243   4.251  17.866  0.00  0.00    +0.000 HD
ENDBRANCH  18  21
ENDBRANCH  12  13
ENDBRANCH   9  11
ENDBRANCH   1   8
BRANCH   4  23
ATOM     23  C   UNL     1      -1.642  13.519  20.122  0.00  0.00    +0.000 C 
BRANCH  23  24
ATOM     24  N   UNL     1      -2.757  13.266  21.003  0.00  0.00    +0.000 N 
ATOM     25  C   UNL     1      -2.420  13.003  22.367  0.00  0.00    +0.000 C 
ATOM     26  O   UNL     1      -1.286  12.962  22.828  0.00  0.00    +0.000 OA
ATOM     27  C   UNL     1      -3.699  12.800  22.997  0.00  0.00    +0.000 A 
ATOM     28  C   UNL     1      -4.016  12.561  24.332  0.00  0.00    +0.000 A 
ATOM     29  C   UNL     1      -5.378  12.419  24.648  0.00  0.00    +0.000 A 
ATOM     30  C   UNL     1      -6.378  12.471  23.658  0.00  0.00    +0.000 A 
ATOM     31  C   UNL     1      -6.025  12.670  22.308  0.00  0.00    +0.000 A 
ATOM     32  C   UNL     1      -6.876  12.683  21.195  0.00  0.00    +0.000 A 
ATOM     33  C   UNL     1      -6.338  12.891  19.907  0.00  0.00    +0.000 A 
ATOM     34  C   UNL     1      -4.956  13.126  19.679  0.00  0.00    +0.000 A 
ATOM     35  C   UNL     1      -4.137  13.106  20.800  0.00  0.00    +0.000 A 
ATOM     36  C   UNL     1      -4.695  12.857  22.044  0.00  0.00    +0.000 A 
ENDBRANCH  23  24
ENDBRANCH   4  23
TORSDOF 7
ENDMDL
MODEL 8
REMARK VINA RESULT:      -8.5      2.320      3.216
REMARK  Name = 
REMARK  7 active torsions:
REMARK  status: ('A' for Active; 'I' for Inactive)
REMARK    1  A    between atoms: C_2  and  C_14
REMARK    2  A    between atoms: N_3  and  N_4
REMARK    3  A    between atoms: C_5  and  C_6
REMARK    4  A    between atoms: C_9  and  O_10
REMARK    5  A    between atoms: C_12  and  O_13
REMARK    6  A    between atoms: C_17  and  C_18
REMARK    7  A    between atoms: C_18  and  N_19
REMARK                            x       y       z     vdW  Elec       q    Type
REMARK                         _______ _______ _______ _____ _____    ______ ____
ROOT
ATOM      1  C   UNL     1       0.784   9.196  21.038  0.00  0.00    +0.000 A 
ATOM      2  C   UNL     1       0.001   9.113  22.194  0.00  0.00    +0.000 A 
ATOM      3  C   UNL     1      -0.569  10.271  22.749  0.00  0.00    +0.000 A 
ATOM      4  C   UNL     1      -0.390  11.531  22.150  0.00  0.00    +0.000 A 
ATOM      5  C   UNL     1       0.387  11.604  20.986  0.00  0.00    +0.000 A 
ATOM      6  C   UNL     1       0.964  10.450  20.436  0.00  0.00    +0.000 A 
ENDROOT
BRANCH   1   8
ATOM      7  O   UNL     1       1.431   6.935  21.004  0.00  0.00    +0.000 OA
ATOM      8  C   UNL     1       1.394   7.994  20.382  0.00  0.00    +0.000 C 
ATOM      9  N   UNL     1       1.851   8.170  19.081  0.00  0.00    +0.000 N 
ATOM     10  H   UNL     1       1.703   9.040  18.586  0.00  0.00    +0.000 HD
BRANCH   9  11
ATOM     11  N   UNL     1       2.411   7.119  18.404  0.00  0.00    +0.000 NA
ATOM     12  C   UNL     1       3.574   7.343  17.873  0.00  0.00    +0.000 C 
BRANCH  12  13
ATOM     13  C   UNL     1       4.311   6.297  17.125  0.00  0.00    +0.000 A 
ATOM     14  C   UNL     1       4.982   6.614  15.937  0.00  0.00    +0.000 A 
ATOM     15  C   UNL     1       5.672   5.631  15.226  0.00  0.00    +0.000 A 
ATOM     16  C   UNL     1       5.691   4.328  15.712  0.00  0.00    +0.000 A 
ATOM     17  C   UNL     1       5.034   3.993  16.895  0.00  0.00    +0.000 A 
ATOM     18  C   UNL     1       4.344   4.980  17.599  0.00  0.00    +0.000 A 
BRANCH  16  19
ATOM     19  O   UNL     1       6.352   3.334  15.052  0.00  0.00    +0.000 OA
ATOM     20  H   UNL     1       5.925   3.181  14.191  0.00  0.00    +0.000 HD
ENDBRANCH  16  19
BRANCH  18  21
ATOM     21  O   UNL     1       3.692   4.647  18.757  0.00  0.00    +0.000 OA
ATOM     22  H   UNL     1       4.220   3.981  19.231  0.00  0.00    +0.000 HD
ENDBRANCH  18  21
ENDBRANCH  12  13
ENDBRANCH   9  11
ENDBRANCH   1   8
BRANCH   4  23
ATOM     23  C   UNL     1      -1.217  12.714  22.598  0.00  0.00    +0.000 C 
BRANCH  23  24
ATOM     24  N   UNL     1      -2.628  12.855  22.330  0.00  0.00    +0.000 N 
ATOM     25  C   UNL     1      -2.964  13.356  21.034  0.00  0.00    +0.000 C 
ATOM     26  O   UNL     1      -2.165  13.681  20.164  0.00  0.00    +0.000 OA
ATOM     27  C   UNL     1      -4.404  13.381  21.046  0.00  0.00    +0.000 A 
ATOM     28  C   UNL     1      -5.306  13.725  20.041  0.00  0.00    +0.000 A 
ATOM     29  C   UNL     1      -6.673  13.635  20.353  0.00  0.00    +0.000 A 
ATOM     30  C   UNL     1      -7.117  13.256  21.635  0.00  0.00    +0.000 A 
ATOM     31  C   UNL     1      -6.182  12.957  22.646  0.00  0.00    +0.000 A 
ATOM     32  C   UNL     1      -6.444  12.630  23.983  0.00  0.00    +0.000 A 
ATOM     33  C   UNL     1      -5.370  12.367  24.861  0.00  0.00    +0.000 A 
ATOM     34  C   UNL     1      -4.013  12.382  24.443  0.00  0.00    +0.000 A 
ATOM     35  C   UNL     1      -3.784  12.710  23.114  0.00  0.00    +0.000 A 
ATOM     36  C   UNL     1      -4.861  13.004  22.291  0.00  0.00    +0.000 A 
ENDBRANCH  23  24
ENDBRANCH   4  23
TORSDOF 7
ENDMDL
MODEL 9
REMARK VINA RESULT:      -8.4      1.392      1.699
REMARK  Name = 
REMARK  7 active torsions:
REMARK  status: ('A' for Active; 'I' for Inactive)
REMARK    1  A    between atoms: C_2  and  C_14
REMARK    2  A    between atoms: N_3  and  N_4
REMARK    3  A    between atoms: C_5  and  C_6
REMARK    4  A    between atoms: C_9  and  O_10
REMARK    5  A    between atoms: C_12  and  O_13
REMARK    6  A    between atoms: C_17  and  C_18
REMARK    7  A    between atoms: C_18  and  N_19
REMARK                            x       y       z     vdW  Elec       q    Type
REMARK                         _______ _______ _______ _____ _____    ______ ____
ROOT
ATOM      1  C   UNL     1       0.412   9.629  20.714  0.00  0.00    +0.000 A 
ATOM      2  C   UNL     1       0.282  10.357  21.901  0.00  0.00    +0.000 A 
ATOM      3  C   UNL     1      -0.461  11.550  21.923  0.00  0.00    +0.000 A 
ATOM      4  C   UNL     1      -1.107  12.028  20.769  0.00  0.00    +0.000 A 
ATOM      5  C   UNL     1      -0.981  11.287  19.586  0.00  0.00    +0.000 A 
ATOM      6  C   UNL     1      -0.232  10.100  19.561  0.00  0.00    +0.000 A 
ENDROOT
BRANCH   1   8
ATOM      7  O   UNL     1       1.188   7.601  21.619  0.00  0.00    +0.000 OA
ATOM      8  C   UNL     1       1.165   8.335  20.634  0.00  0.00    +0.000 C 
ATOM      9  N   UNL     1       1.765   8.048  19.413  0.00  0.00    +0.000 N 
ATOM     10  H   UNL     1       1.628   8.645  18.608  0.00  0.00    +0.000 HD
BRANCH   9  11
ATOM     11  N   UNL     1       2.462   6.880  19.251  0.00  0.00    +0.000 NA
ATOM     12  C   UNL     1       1.746   5.816  19.052  0.00  0.00    +0.000 C 
BRANCH  12  13
ATOM     13  C   UNL     1       2.358   4.484  18.843  0.00  0.00    +0.000 A 
ATOM     14  C   UNL     1       3.520   4.349  18.071  0.00  0.00    +0.000 A 
ATOM     15  C   UNL     1       4.097   3.095  17.867  0.00  0.00    +0.000 A 
ATOM     16  C   UNL     1       3.507   1.974  18.442  0.00  0.00    +0.000 A 
ATOM     17  C   UNL     1       2.355   2.087  19.218  0.00  0.00    +0.000 A 
ATOM     18  C   UNL     1       1.782   3.344  19.416  0.00  0.00    +0.000 A 
BRANCH  16  19
ATOM     19  O   UNL     1       4.035   0.728  18.270  0.00  0.00    +0.000 OA
ATOM     20  H   UNL     1       4.675   0.549  18.981  0.00  0.00    +0.000 HD
ENDBRANCH  16  19
BRANCH  18  21
ATOM     21  O   UNL     1       0.645   3.451  20.172  0.00  0.00    +0.000 OA
ATOM     22  H   UNL     1       0.328   2.556  20.388  0.00  0.00    +0.000 HD
ENDBRANCH  18  21
ENDBRANCH  12  13
ENDBRANCH   9  11
ENDBRANCH   1   8
BRANCH   4  23
ATOM     23  C   UNL     1      -2.110  13.155  20.866  0.00  0.00    +0.000 C 
BRANCH  23  24
ATOM     24  N   UNL     1      -3.490  12.970  21.250  0.00  0.00    +0.000 N 
ATOM     25  C   UNL     1      -3.773  13.142  22.640  0.00  0.00    +0.000 C 
ATOM     26  O   UNL     1      -2.953  13.412  23.509  0.00  0.00    +0.000 OA
ATOM     27  C   UNL     1      -5.192  12.910  22.726  0.00  0.00    +0.000 A 
ATOM     28  C   UNL     1      -6.052  12.991  23.819  0.00  0.00    +0.000 A 
ATOM     29  C   UNL     1      -7.410  12.719  23.583  0.00  0.00    +0.000 A 
ATOM     30  C   UNL     1      -7.880  12.340  22.310  0.00  0.00    +0.000 A 
ATOM     31  C   UNL     1      -6.980  12.223  21.232  0.00  0.00    +0.000 A 
ATOM     32  C   UNL     1      -7.260  11.796  19.927  0.00  0.00    +0.000 A 
ATOM     33  C   UNL     1      -6.221  11.734  18.974  0.00  0.00    +0.000 A 
ATOM     34  C   UNL     1      -4.886  12.122  19.265  0.00  0.00    +0.000 A 
ATOM     35  C   UNL     1      -4.638  12.538  20.566  0.00  0.00    +0.000 A 
ATOM     36  C   UNL     1      -5.675  12.546  21.486  0.00  0.00    +0.000 A 
ENDBRANCH  23  24
ENDBRANCH   4  23
TORSDOF 7
ENDMDL
