MODEL 1
REMARK VINA RESULT:      -6.7      0.000      0.000
REMARK  Name = 
REMARK  3 active torsions:
REMARK  status: ('A' for Active; 'I' for Inactive)
REMARK    1  A    between atoms: C_1  and  C_2
REMARK    2  A    between atoms: C_4  and  C_5
REMARK    3  A    between atoms: C_5  and  N_6
REMARK                            x       y       z     vdW  Elec       q    Type
REMARK                         _______ _______ _______ _____ _____    ______ ____
ROOT
ATOM      1  N   UNL     1       2.906   5.582  18.835  0.00  0.00    +0.000 N 
ATOM      2  N   UNL     1       2.823   6.307  19.983  0.00  0.00    +0.000 NA
ATOM      3  C   UNL     1       2.319   5.449  20.878  0.00  0.00    +0.000 A 
ATOM      4  C   UNL     1       1.989   4.218  20.298  0.00  0.00    +0.000 A 
ATOM      5  C   UNL     1       2.338   4.343  18.968  0.00  0.00    +0.000 A 
ATOM      6  C   UNL     1       2.102   3.325  17.989  0.00  0.00    +0.000 C 
ATOM      7  O   UNL     1       2.409   3.385  16.804  0.00  0.00    +0.000 OA
ATOM      8  C   UNL     1       1.371   2.129  18.507  0.00  0.00    +0.000 C 
ATOM      9  C   UNL     1       1.047   2.008  19.808  0.00  0.00    +0.000 C 
ATOM     10  C   UNL     1       1.388   3.029  20.844  0.00  0.00    +0.000 C 
ATOM     11  O   UNL     1       1.151   2.847  22.031  0.00  0.00    +0.000 OA
ENDROOT
BRANCH   1  12
ATOM     12  C   UNL     1       3.403   6.222  17.622  0.00  0.00    +0.000 C 
BRANCH  12  16
ATOM     13  C   UNL     1       6.966   4.781  14.480  0.00  0.00    +0.000 C 
ATOM     14  C   UNL     1       6.309   5.099  15.775  0.00  0.00    +0.000 A 
ATOM     15  N   UNL     1       5.085   5.567  15.897  0.00  0.00    +0.000 NA
ATOM     16  C   UNL     1       4.765   5.739  17.238  0.00  0.00    +0.000 A 
ATOM     17  C   UNL     1       5.773   5.376  18.112  0.00  0.00    +0.000 A 
ATOM     18  S   UNL     1       7.149   4.838  17.250  0.00  0.00    +0.000 S 
ENDBRANCH  12  16
ENDBRANCH   1  12
TORSDOF 2
ENDMDL
MODEL 2
REMARK VINA RESULT:      -6.7      2.052      2.891
REMARK  Name = 
REMARK  3 active torsions:
REMARK  status: ('A' for Active; 'I' for Inactive)
REMARK    1  A    between atoms: C_1  and  C_2
REMARK    2  A    between atoms: C_4  and  C_5
REMARK    3  A    between atoms: C_5  and  N_6
REMARK                            x       y       z     vdW  Elec       q    Type
REMARK                         _______ _______ _______ _____ _____    ______ ____
ROOT
ATOM      1  N   UNL     1       3.906   4.207  17.505  0.00  0.00    +0.000 N 
ATOM      2  N   UNL     1       4.007   2.851  17.474  0.00  0.00    +0.000 NA
ATOM      3  C   UNL     1       3.141   2.435  18.404  0.00  0.00    +0.000 A 
ATOM      4  C   UNL     1       2.560   3.504  19.097  0.00  0.00    +0.000 A 
ATOM      5  C   UNL     1       3.103   4.638  18.527  0.00  0.00    +0.000 A 
ATOM      6  C   UNL     1       2.828   5.966  18.988  0.00  0.00    +0.000 C 
ATOM      7  O   UNL     1       3.272   6.999  18.503  0.00  0.00    +0.000 OA
ATOM      8  C   UNL     1       1.956   6.029  20.201  0.00  0.00    +0.000 C 
ATOM      9  C   UNL     1       1.419   4.919  20.742  0.00  0.00    +0.000 C 
ATOM     10  C   UNL     1       1.627   3.546  20.193  0.00  0.00    +0.000 C 
ATOM     11  O   UNL     1       1.055   2.571  20.662  0.00  0.00    +0.000 OA
ENDROOT
BRANCH   1  12
ATOM     12  C   UNL     1       4.744   5.005  16.616  0.00  0.00    +0.000 C 
BRANCH  12  16
ATOM     13  C   UNL     1       7.988   8.610  17.678  0.00  0.00    +0.000 C 
ATOM     14  C   UNL     1       7.324   7.281  17.747  0.00  0.00    +0.000 A 
ATOM     15  N   UNL     1       6.262   6.940  17.049  0.00  0.00    +0.000 NA
ATOM     16  C   UNL     1       5.902   5.627  17.328  0.00  0.00    +0.000 A 
ATOM     17  C   UNL     1       6.728   4.995  18.240  0.00  0.00    +0.000 A 
ATOM     18  S   UNL     1       7.954   6.060  18.776  0.00  0.00    +0.000 S 
ENDBRANCH  12  16
ENDBRANCH   1  12
TORSDOF 2
ENDMDL
MODEL 3
REMARK VINA RESULT:      -6.7      2.533      3.372
REMARK  Name = 
REMARK  3 active torsions:
REMARK  status: ('A' for Active; 'I' for Inactive)
REMARK    1  A    between atoms: C_1  and  C_2
REMARK    2  A    between atoms: C_4  and  C_5
REMARK    3  A    between atoms: C_5  and  N_6
REMARK                            x       y       z     vdW  Elec       q    Type
REMARK                         _______ _______ _______ _____ _____    ______ ____
ROOT
ATOM      1  N   UNL     1       5.483   5.605  17.774  0.00  0.00    +0.000 N 
ATOM      2  N   UNL     1       5.236   6.765  17.109  0.00  0.00    +0.000 NA
ATOM      3  C   UNL     1       4.152   7.265  17.711  0.00  0.00    +0.000 A 
ATOM      4  C   UNL     1       3.645   6.398  18.686  0.00  0.00    +0.000 A 
ATOM      5  C   UNL     1       4.498   5.312  18.679  0.00  0.00    +0.000 A 
ATOM      6  C   UNL     1       4.304   4.146  19.487  0.00  0.00    +0.000 C 
ATOM      7  O   UNL     1       5.042   3.169  19.526  0.00  0.00    +0.000 OA
ATOM      8  C   UNL     1       3.047   4.160  20.297  0.00  0.00    +0.000 C 
ATOM      9  C   UNL     1       2.228   5.229  20.310  0.00  0.00    +0.000 C 
ATOM     10  C   UNL     1       2.491   6.483  19.543  0.00  0.00    +0.000 C 
ATOM     11  O   UNL     1       1.767   7.465  19.644  0.00  0.00    +0.000 OA
ENDROOT
BRANCH   1  12
ATOM     12  C   UNL     1       6.606   4.770  17.359  0.00  0.00    +0.000 C 
BRANCH  12  16
ATOM     13  C   UNL     1       8.143   5.576  12.707  0.00  0.00    +0.000 C 
ATOM     14  C   UNL     1       7.369   4.971  13.824  0.00  0.00    +0.000 A 
ATOM     15  N   UNL     1       7.526   5.279  15.093  0.00  0.00    +0.000 NA
ATOM     16  C   UNL     1       6.639   4.553  15.880  0.00  0.00    +0.000 A 
ATOM     17  C   UNL     1       5.810   3.708  15.165  0.00  0.00    +0.000 A 
ATOM     18  S   UNL     1       6.158   3.800  13.493  0.00  0.00    +0.000 S 
ENDBRANCH  12  16
ENDBRANCH   1  12
TORSDOF 2
ENDMDL
MODEL 4
REMARK VINA RESULT:      -6.6      3.003      4.327
REMARK  Name = 
REMARK  3 active torsions:
REMARK  status: ('A' for Active; 'I' for Inactive)
REMARK    1  A    between atoms: C_1  and  C_2
REMARK    2  A    between atoms: C_4  and  C_5
REMARK    3  A    between atoms: C_5  and  N_6
REMARK                            x       y       z     vdW  Elec       q    Type
REMARK                         _______ _______ _______ _____ _____    ______ ____
ROOT
ATOM      1  N   UNL     1       3.908   5.735  18.118  0.00  0.00    +0.000 N 
ATOM      2  N   UNL     1       5.080   5.934  18.778  0.00  0.00    +0.000 NA
ATOM      3  C   UNL     1       5.323   4.764  19.378  0.00  0.00    +0.000 A 
ATOM      4  C   UNL     1       4.278   3.851  19.191  0.00  0.00    +0.000 A 
ATOM      5  C   UNL     1       3.355   4.516  18.410  0.00  0.00    +0.000 A 
ATOM      6  C   UNL     1       2.088   3.964  18.037  0.00  0.00    +0.000 C 
ATOM      7  O   UNL     1       1.247   4.510  17.332  0.00  0.00    +0.000 OA
ATOM      8  C   UNL     1       1.803   2.621  18.628  0.00  0.00    +0.000 C 
ATOM      9  C   UNL     1       2.714   1.972  19.377  0.00  0.00    +0.000 C 
ATOM     10  C   UNL     1       4.074   2.511  19.677  0.00  0.00    +0.000 C 
ATOM     11  O   UNL     1       4.906   1.856  20.292  0.00  0.00    +0.000 OA
ENDROOT
BRANCH   1  12
ATOM     12  C   UNL     1       3.321   6.835  17.359  0.00  0.00    +0.000 C 
BRANCH  12  16
ATOM     13  C   UNL     1       1.055   8.315  21.521  0.00  0.00    +0.000 C 
ATOM     14  C   UNL     1       1.535   8.363  20.114  0.00  0.00    +0.000 A 
ATOM     15  N   UNL     1       2.272   7.434  19.544  0.00  0.00    +0.000 NA
ATOM     16  C   UNL     1       2.534   7.768  18.221  0.00  0.00    +0.000 A 
ATOM     17  C   UNL     1       1.964   8.962  17.816  0.00  0.00    +0.000 A 
ATOM     18  S   UNL     1       1.113   9.689  19.109  0.00  0.00    +0.000 S 
ENDBRANCH  12  16
ENDBRANCH   1  12
TORSDOF 2
ENDMDL
MODEL 5
REMARK VINA RESULT:      -6.5      1.937      2.375
REMARK  Name = 
REMARK  3 active torsions:
REMARK  status: ('A' for Active; 'I' for Inactive)
REMARK    1  A    between atoms: C_1  and  C_2
REMARK    2  A    between atoms: C_4  and  C_5
REMARK    3  A    between atoms: C_5  and  N_6
REMARK                            x       y       z     vdW  Elec       q    Type
REMARK                         _______ _______ _______ _____ _____    ______ ____
ROOT
ATOM      1  N   UNL     1       3.926   3.208  18.078  0.00  0.00    +0.000 N 
ATOM      2  N   UNL     1       5.056   2.899  18.769  0.00  0.00    +0.000 NA
ATOM      3  C   UNL     1       4.620   2.614  20.001  0.00  0.00    +0.000 A 
ATOM      4  C   UNL     1       3.243   2.830  20.134  0.00  0.00    +0.000 A 
ATOM      5  C   UNL     1       2.824   3.255  18.890  0.00  0.00    +0.000 A 
ATOM      6  C   UNL     1       1.480   3.655  18.601  0.00  0.00    +0.000 C 
ATOM      7  O   UNL     1       1.060   4.022  17.510  0.00  0.00    +0.000 OA
ATOM      8  C   UNL     1       0.568   3.651  19.785  0.00  0.00    +0.000 C 
ATOM      9  C   UNL     1       0.980   3.222  20.992  0.00  0.00    +0.000 C 
ATOM     10  C   UNL     1       2.356   2.708  21.262  0.00  0.00    +0.000 C 
ATOM     11  O   UNL     1       2.671   2.248  22.352  0.00  0.00    +0.000 OA
ENDROOT
BRANCH   1  12
ATOM     12  C   UNL     1       4.032   3.599  16.676  0.00  0.00    +0.000 C 
BRANCH  12  16
ATOM     13  C   UNL     1       7.446   7.151  17.291  0.00  0.00    +0.000 C 
ATOM     14  C   UNL     1       6.784   5.953  16.708  0.00  0.00    +0.000 A 
ATOM     15  N   UNL     1       5.662   5.429  17.154  0.00  0.00    +0.000 NA
ATOM     16  C   UNL     1       5.302   4.331  16.381  0.00  0.00    +0.000 A 
ATOM     17  C   UNL     1       6.174   4.058  15.344  0.00  0.00    +0.000 A 
ATOM     18  S   UNL     1       7.475   5.168  15.347  0.00  0.00    +0.000 S 
ENDBRANCH  12  16
ENDBRANCH   1  12
TORSDOF 2
ENDMDL
MODEL 6
REMARK VINA RESULT:      -6.5      1.148      1.594
REMARK  Name = 
REMARK  3 active torsions:
REMARK  status: ('A' for Active; 'I' for Inactive)
REMARK    1  A    between atoms: C_1  and  C_2
REMARK    2  A    between atoms: C_4  and  C_5
REMARK    3  A    between atoms: C_5  and  N_6
REMARK                            x       y       z     vdW  Elec       q    Type
REMARK                         _______ _______ _______ _____ _____    ______ ____
ROOT
ATOM      1  N   UNL     1       2.648   5.729  18.935  0.00  0.00    +0.000 N 
ATOM      2  N   UNL     1       2.287   6.432  20.042  0.00  0.00    +0.000 NA
ATOM      3  C   UNL     1       1.859   5.499  20.899  0.00  0.00    +0.000 A 
ATOM      4  C   UNL     1       1.849   4.223  20.324  0.00  0.00    +0.000 A 
ATOM      5  C   UNL     1       2.323   4.403  19.040  0.00  0.00    +0.000 A 
ATOM      6  C   UNL     1       2.411   3.351  18.073  0.00  0.00    +0.000 C 
ATOM      7  O   UNL     1       2.840   3.462  16.931  0.00  0.00    +0.000 OA
ATOM      8  C   UNL     1       1.873   2.037  18.541  0.00  0.00    +0.000 C 
ATOM      9  C   UNL     1       1.426   1.866  19.799  0.00  0.00    +0.000 C 
ATOM     10  C   UNL     1       1.432   2.942  20.834  0.00  0.00    +0.000 C 
ATOM     11  O   UNL     1       1.096   2.726  21.991  0.00  0.00    +0.000 OA
ENDROOT
BRANCH   1  12
ATOM     12  C   UNL     1       3.152   6.447  17.768  0.00  0.00    +0.000 C 
BRANCH  12  16
ATOM     13  C   UNL     1       7.870   5.707  19.122  0.00  0.00    +0.000 C 
ATOM     14  C   UNL     1       6.703   5.897  18.221  0.00  0.00    +0.000 A 
ATOM     15  N   UNL     1       5.460   6.041  18.629  0.00  0.00    +0.000 NA
ATOM     16  C   UNL     1       4.612   6.218  17.543  0.00  0.00    +0.000 A 
ATOM     17  C   UNL     1       5.254   6.214  16.318  0.00  0.00    +0.000 A 
ATOM     18  S   UNL     1       6.933   5.961  16.521  0.00  0.00    +0.000 S 
ENDBRANCH  12  16
ENDBRANCH   1  12
TORSDOF 2
ENDMDL
MODEL 7
REMARK VINA RESULT:      -6.5      2.217      2.627
REMARK  Name = 
REMARK  3 active torsions:
REMARK  status: ('A' for Active; 'I' for Inactive)
REMARK    1  A    between atoms: C_1  and  C_2
REMARK    2  A    between atoms: C_4  and  C_5
REMARK    3  A    between atoms: C_5  and  N_6
REMARK                            x       y       z     vdW  Elec       q    Type
REMARK                         _______ _______ _______ _____ _____    ______ ____
ROOT
ATOM      1  N   UNL     1       5.059   5.082  18.606  0.00  0.00    +0.000 N 
ATOM      2  N   UNL     1       4.594   6.284  18.171  0.00  0.00    +0.000 NA
ATOM      3  C   UNL     1       3.446   6.453  18.836  0.00  0.00    +0.000 A 
ATOM      4  C   UNL     1       3.121   5.336  19.616  0.00  0.00    +0.000 A 
ATOM      5  C   UNL     1       4.157   4.446  19.417  0.00  0.00    +0.000 A 
ATOM      6  C   UNL     1       4.191   3.130  19.981  0.00  0.00    +0.000 C 
ATOM      7  O   UNL     1       5.095   2.315  19.846  0.00  0.00    +0.000 OA
ATOM      8  C   UNL     1       2.965   2.759  20.753  0.00  0.00    +0.000 C 
ATOM      9  C   UNL     1       1.966   3.638  20.955  0.00  0.00    +0.000 C 
ATOM     10  C   UNL     1       1.984   5.043  20.450  0.00  0.00    +0.000 C 
ATOM     11  O   UNL     1       1.095   5.839  20.724  0.00  0.00    +0.000 OA
ENDROOT
BRANCH   1  12
ATOM     12  C   UNL     1       6.308   4.561  18.060  0.00  0.00    +0.000 C 
BRANCH  12  16
ATOM     13  C   UNL     1       7.920   5.369  13.434  0.00  0.00    +0.000 C 
ATOM     14  C   UNL     1       7.052   4.857  14.527  0.00  0.00    +0.000 A 
ATOM     15  N   UNL     1       7.285   5.032  15.810  0.00  0.00    +0.000 NA
ATOM     16  C   UNL     1       6.277   4.450  16.569  0.00  0.00    +0.000 A 
ATOM     17  C   UNL     1       5.282   3.848  15.820  0.00  0.00    +0.000 A 
ATOM     18  S   UNL     1       5.620   3.988  14.150  0.00  0.00    +0.000 S 
ENDBRANCH  12  16
ENDBRANCH   1  12
TORSDOF 2
ENDMDL
MODEL 8
REMARK VINA RESULT:      -6.5      3.041      6.215
REMARK  Name = 
REMARK  3 active torsions:
REMARK  status: ('A' for Active; 'I' for Inactive)
REMARK    1  A    between atoms: C_1  and  C_2
REMARK    2  A    between atoms: C_4  and  C_5
REMARK    3  A    between atoms: C_5  and  N_6
REMARK                            x       y       z     vdW  Elec       q    Type
REMARK                         _______ _______ _______ _____ _____    ______ ____
ROOT
ATOM      1  N   UNL     1       5.046   3.595  18.189  0.00  0.00    +0.000 N 
ATOM      2  N   UNL     1       4.432   3.144  17.062  0.00  0.00    +0.000 NA
ATOM      3  C   UNL     1       5.066   3.775  16.067  0.00  0.00    +0.000 A 
ATOM      4  C   UNL     1       6.010   4.692  16.544  0.00  0.00    +0.000 A 
ATOM      5  C   UNL     1       5.948   4.589  17.919  0.00  0.00    +0.000 A 
ATOM      6  C   UNL     1       6.710   5.411  18.811  0.00  0.00    +0.000 C 
ATOM      7  O   UNL     1       6.700   5.343  20.034  0.00  0.00    +0.000 OA
ATOM      8  C   UNL     1       7.533   6.458  18.131  0.00  0.00    +0.000 C 
ATOM      9  C   UNL     1       7.599   6.544  16.790  0.00  0.00    +0.000 C 
ATOM     10  C   UNL     1       6.881   5.616  15.865  0.00  0.00    +0.000 C 
ATOM     11  O   UNL     1       7.031   5.671  14.651  0.00  0.00    +0.000 OA
ENDROOT
BRANCH   1  12
ATOM     12  C   UNL     1       4.585   3.121  19.490  0.00  0.00    +0.000 C 
BRANCH  12  16
ATOM     13  C   UNL     1       1.439   6.730  20.805  0.00  0.00    +0.000 C 
ATOM     14  C   UNL     1       1.911   5.362  20.463  0.00  0.00    +0.000 A 
ATOM     15  N   UNL     1       3.141   5.065  20.102  0.00  0.00    +0.000 NA
ATOM     16  C   UNL     1       3.259   3.700  19.870  0.00  0.00    +0.000 A 
ATOM     17  C   UNL     1       2.093   2.987  20.079  0.00  0.00    +0.000 A 
ATOM     18  S   UNL     1       0.825   4.035  20.545  0.00  0.00    +0.000 S 
ENDBRANCH  12  16
ENDBRANCH   1  12
TORSDOF 2
ENDMDL
MODEL 9
REMARK VINA RESULT:      -6.4      1.878      2.700
REMARK  Name = 
REMARK  3 active torsions:
REMARK  status: ('A' for Active; 'I' for Inactive)
REMARK    1  A    between atoms: C_1  and  C_2
REMARK    2  A    between atoms: C_4  and  C_5
REMARK    3  A    between atoms: C_5  and  N_6
REMARK                            x       y       z     vdW  Elec       q    Type
REMARK                         _______ _______ _______ _____ _____    ______ ____
ROOT
ATOM      1  N   UNL     1       3.296   3.291  17.698  0.00  0.00    +0.000 N 
ATOM      2  N   UNL     1       3.753   2.034  17.944  0.00  0.00    +0.000 NA
ATOM      3  C   UNL     1       3.404   1.800  19.213  0.00  0.00    +0.000 A 
ATOM      4  C   UNL     1       2.817   2.921  19.812  0.00  0.00    +0.000 A 
ATOM      5  C   UNL     1       2.798   3.886  18.826  0.00  0.00    +0.000 A 
ATOM      6  C   UNL     1       2.337   5.226  19.037  0.00  0.00    +0.000 C 
ATOM      7  O   UNL     1       2.285   6.108  18.188  0.00  0.00    +0.000 OA
ATOM      8  C   UNL     1       1.943   5.527  20.447  0.00  0.00    +0.000 C 
ATOM      9  C   UNL     1       1.951   4.576  21.400  0.00  0.00    +0.000 C 
ATOM     10  C   UNL     1       2.335   3.155  21.149  0.00  0.00    +0.000 C 
ATOM     11  O   UNL     1       2.251   2.300  22.021  0.00  0.00    +0.000 OA
ENDROOT
BRANCH   1  12
ATOM     12  C   UNL     1       3.528   3.890  16.387  0.00  0.00    +0.000 C 
BRANCH  12  16
ATOM     13  C   UNL     1       7.372   6.871  17.381  0.00  0.00    +0.000 C 
ATOM     14  C   UNL     1       6.597   5.783  16.727  0.00  0.00    +0.000 A 
ATOM     15  N   UNL     1       5.365   5.448  17.046  0.00  0.00    +0.000 NA
ATOM     16  C   UNL     1       4.922   4.410  16.236  0.00  0.00    +0.000 A 
ATOM     17  C   UNL     1       5.848   3.988  15.299  0.00  0.00    +0.000 A 
ATOM     18  S   UNL     1       7.300   4.880  15.447  0.00  0.00    +0.000 S 
ENDBRANCH  12  16
ENDBRANCH   1  12
TORSDOF 2
ENDMDL
