MODEL 1
REMARK VINA RESULT:      -7.4      0.000      0.000
REMARK  Name = 
REMARK  10 active torsions:
REMARK  status: ('A' for Active; 'I' for Inactive)
REMARK    1  A    between atoms: C_1  and  C_2
REMARK    2  A    between atoms: C_2  and  O_3
REMARK    3  A    between atoms: O_3  and  C_4
REMARK    4  A    between atoms: C_6  and  N_7
REMARK    5  A    between atoms: C_8  and  C_10
REMARK    6  A    between atoms: C_10  and  C_11
REMARK    7  A    between atoms: C_13  and  C_14
REMARK    8  A    between atoms: C_13  and  O_15
REMARK    9  A    between atoms: C_19  and  C_20
REMARK   10  A    between atoms: N_22  and  C_23
REMARK                            x       y       z     vdW  Elec       q    Type
REMARK                         _______ _______ _______ _____ _____    ______ ____
ROOT
ATOM      1  C   UNL     1       2.002   7.333  20.019  0.00  0.00    +0.000 A 
ATOM      2  C   UNL     1       1.205   8.298  20.673  0.00  0.00    +0.000 A 
ATOM      3  C   UNL     1       0.773   9.476  20.054  0.00  0.00    +0.000 A 
ATOM      4  C   UNL     1       1.181   9.686  18.737  0.00  0.00    +0.000 A 
ATOM      5  F   UNL     1       0.815  10.806  18.097  0.00  0.00    +0.000 F 
ATOM      6  C   UNL     1       1.946   8.736  18.053  0.00  0.00    +0.000 A 
ATOM      7  C   UNL     1       2.370   7.545  18.680  0.00  0.00    +0.000 A 
ENDROOT
BRANCH   3   8
ATOM      8  N   UNL     1      -0.036  10.453  20.723  0.00  0.00    +0.000 N 
ATOM      9  C   UNL     1       0.430  11.687  21.150  0.00  0.00    +0.000 C 
ATOM     10  O   UNL     1       1.614  12.023  21.065  0.00  0.00    +0.000 OA
ATOM     11  H   UNL     1      -0.977  10.142  20.962  0.00  0.00    +0.000 HD
BRANCH   9  12
ATOM     12  C   UNL     1      -0.528  12.662  21.787  0.00  0.00    +0.000 C 
ATOM     13  C   UNL     1      -1.230  12.250  22.881  0.00  0.00    +0.000 C 
ATOM     14  C   UNL     1      -2.219  13.069  23.668  0.00  0.00    +0.000 C 
BRANCH  12  15
ATOM     15  C   UNL     1      -0.679  13.975  21.255  0.00  0.00    +0.000 C 
ATOM     16  N   UNL     1      -0.785  15.047  20.841  0.00  0.00    +0.000 NA
ENDBRANCH  12  15
BRANCH  13  17
ATOM     17  O   UNL     1      -1.119  10.978  23.436  0.00  0.00    +0.000 OA
ATOM     18  H   UNL     1      -1.959  10.486  23.308  0.00  0.00    +0.000 HD
ENDBRANCH  13  17
ENDBRANCH   9  12
ENDBRANCH   3   8
BRANCH   7  19
ATOM     19  C   UNL     1       3.216   6.619  17.846  0.00  0.00    +0.000 C 
ATOM     20  O   UNL     1       2.777   5.500  17.589  0.00  0.00    +0.000 OA
ATOM     21  N   UNL     1       4.489   7.036  17.484  0.00  0.00    +0.000 N 
ATOM     22  H   UNL     1       4.895   7.769  18.060  0.00  0.00    +0.000 HD
BRANCH  21  23
ATOM     23  C   UNL     1       5.380   6.161  16.808  0.00  0.00    +0.000 A 
ATOM     24  C   UNL     1       5.421   6.111  15.408  0.00  0.00    +0.000 A 
ATOM     25  F   UNL     1       4.669   6.946  14.673  0.00  0.00    +0.000 F 
ATOM     26  C   UNL     1       6.302   5.261  14.736  0.00  0.00    +0.000 A 
ATOM     27  C   UNL     1       7.155   4.433  15.459  0.00  0.00    +0.000 A 
ATOM     28  C   UNL     1       7.130   4.469  16.855  0.00  0.00    +0.000 A 
ATOM     29  C   UNL     1       6.257   5.337  17.526  0.00  0.00    +0.000 A 
ATOM     30 BR   UNL     1       6.210   5.260  19.424  0.00  0.00    +0.000 Br
ENDBRANCH  21  23
ENDBRANCH   7  19
BRANCH   1  31
ATOM     31  O   UNL     1       2.433   6.192  20.654  0.00  0.00    +0.000 OA
BRANCH  31  33
ATOM     32  C   UNL     1       2.188   3.919  21.383  0.00  0.00    +0.000 C 
ATOM     33  C   UNL     1       1.512   5.092  20.707  0.00  0.00    +0.000 C 
ENDBRANCH  31  33
ENDBRANCH   1  31
TORSDOF 8
ENDMDL
MODEL 2
REMARK VINA RESULT:      -7.3      3.355      8.851
REMARK  Name = 
REMARK  10 active torsions:
REMARK  status: ('A' for Active; 'I' for Inactive)
REMARK    1  A    between atoms: C_1  and  C_2
REMARK    2  A    between atoms: C_2  and  O_3
REMARK    3  A    between atoms: O_3  and  C_4
REMARK    4  A    between atoms: C_6  and  N_7
REMARK    5  A    between atoms: C_8  and  C_10
REMARK    6  A    between atoms: C_10  and  C_11
REMARK    7  A    between atoms: C_13  and  C_14
REMARK    8  A    between atoms: C_13  and  O_15
REMARK    9  A    between atoms: C_19  and  C_20
REMARK   10  A    between atoms: N_22  and  C_23
REMARK                            x       y       z     vdW  Elec       q    Type
REMARK                         _______ _______ _______ _____ _____    ______ ____
ROOT
ATOM      1  C   UNL     1       0.983   9.800  21.053  0.00  0.00    +0.000 A 
ATOM      2  C   UNL     1       1.530   8.509  21.218  0.00  0.00    +0.000 A 
ATOM      3  C   UNL     1       1.968   7.723  20.147  0.00  0.00    +0.000 A 
ATOM      4  C   UNL     1       1.824   8.260  18.868  0.00  0.00    +0.000 A 
ATOM      5  F   UNL     1       2.207   7.546  17.799  0.00  0.00    +0.000 F 
ATOM      6  C   UNL     1       1.312   9.547  18.673  0.00  0.00    +0.000 A 
ATOM      7  C   UNL     1       0.882  10.338  19.759  0.00  0.00    +0.000 A 
ENDROOT
BRANCH   3   8
ATOM      8  N   UNL     1       2.523   6.413  20.322  0.00  0.00    +0.000 N 
ATOM      9  C   UNL     1       1.766   5.257  20.430  0.00  0.00    +0.000 C 
ATOM     10  O   UNL     1       0.533   5.263  20.471  0.00  0.00    +0.000 OA
ATOM     11  H   UNL     1       3.532   6.389  20.463  0.00  0.00    +0.000 HD
BRANCH   9  12
ATOM     12  C   UNL     1       2.461   3.923  20.547  0.00  0.00    +0.000 C 
ATOM     13  C   UNL     1       3.512   3.672  19.715  0.00  0.00    +0.000 C 
ATOM     14  C   UNL     1       4.344   2.417  19.682  0.00  0.00    +0.000 C 
BRANCH  12  15
ATOM     15  C   UNL     1       2.028   2.967  21.511  0.00  0.00    +0.000 C 
ATOM     16  N   UNL     1       1.701   2.188  22.297  0.00  0.00    +0.000 NA
ENDBRANCH  12  15
BRANCH  13  17
ATOM     17  O   UNL     1       3.971   4.571  18.758  0.00  0.00    +0.000 OA
ATOM     18  H   UNL     1       3.494   5.425  18.849  0.00  0.00    +0.000 HD
ENDBRANCH  13  17
ENDBRANCH   9  12
ENDBRANCH   3   8
BRANCH   7  19
ATOM     19  C   UNL     1       0.320  11.692  19.413  0.00  0.00    +0.000 C 
ATOM     20  O   UNL     1      -0.476  11.773  18.480  0.00  0.00    +0.000 OA
ATOM     21  N   UNL     1       0.797  12.798  20.102  0.00  0.00    +0.000 N 
ATOM     22  H   UNL     1       1.705  12.686  20.545  0.00  0.00    +0.000 HD
BRANCH  21  23
ATOM     23  C   UNL     1       0.402  14.113  19.737  0.00  0.00    +0.000 A 
ATOM     24  C   UNL     1      -0.829  14.639  20.153  0.00  0.00    +0.000 A 
ATOM     25  F   UNL     1      -1.630  13.937  20.971  0.00  0.00    +0.000 F 
ATOM     26  C   UNL     1      -1.221  15.934  19.806  0.00  0.00    +0.000 A 
ATOM     27  C   UNL     1      -0.386  16.725  19.024  0.00  0.00    +0.000 A 
ATOM     28  C   UNL     1       0.846  16.220  18.600  0.00  0.00    +0.000 A 
ATOM     29  C   UNL     1       1.242  14.925  18.964  0.00  0.00    +0.000 A 
ATOM     30 BR   UNL     1       2.885  14.270  18.269  0.00  0.00    +0.000 Br
ENDBRANCH  21  23
ENDBRANCH   7  19
BRANCH   1  31
ATOM     31  O   UNL     1       0.539  10.547  22.119  0.00  0.00    +0.000 OA
BRANCH  31  33
ATOM     32  C   UNL     1      -1.517  11.246  23.139  0.00  0.00    +0.000 C 
ATOM     33  C   UNL     1      -0.627  10.068  22.805  0.00  0.00    +0.000 C 
ENDBRANCH  31  33
ENDBRANCH   1  31
TORSDOF 8
ENDMDL
MODEL 3
REMARK VINA RESULT:      -7.2      1.109      1.422
REMARK  Name = 
REMARK  10 active torsions:
REMARK  status: ('A' for Active; 'I' for Inactive)
REMARK    1  A    between atoms: C_1  and  C_2
REMARK    2  A    between atoms: C_2  and  O_3
REMARK    3  A    between atoms: O_3  and  C_4
REMARK    4  A    between atoms: C_6  and  N_7
REMARK    5  A    between atoms: C_8  and  C_10
REMARK    6  A    between atoms: C_10  and  C_11
REMARK    7  A    between atoms: C_13  and  C_14
REMARK    8  A    between atoms: C_13  and  O_15
REMARK    9  A    between atoms: C_19  and  C_20
REMARK   10  A    between atoms: N_22  and  C_23
REMARK                            x       y       z     vdW  Elec       q    Type
REMARK                         _______ _______ _______ _____ _____    ______ ____
ROOT
ATOM      1  C   UNL     1       1.975   7.289  20.012  0.00  0.00    +0.000 A 
ATOM      2  C   UNL     1       1.175   8.245  20.677  0.00  0.00    +0.000 A 
ATOM      3  C   UNL     1       0.735   9.427  20.071  0.00  0.00    +0.000 A 
ATOM      4  C   UNL     1       1.140   9.651  18.755  0.00  0.00    +0.000 A 
ATOM      5  F   UNL     1       0.767  10.776  18.127  0.00  0.00    +0.000 F 
ATOM      6  C   UNL     1       1.907   8.712  18.060  0.00  0.00    +0.000 A 
ATOM      7  C   UNL     1       2.339   7.517  18.674  0.00  0.00    +0.000 A 
ENDROOT
BRANCH   3   8
ATOM      8  N   UNL     1      -0.076  10.392  20.751  0.00  0.00    +0.000 N 
ATOM      9  C   UNL     1       0.416  11.553  21.328  0.00  0.00    +0.000 C 
ATOM     10  O   UNL     1       1.620  11.818  21.380  0.00  0.00    +0.000 OA
ATOM     11  H   UNL     1      -1.052  10.123  20.876  0.00  0.00    +0.000 HD
BRANCH   9  12
ATOM     12  C   UNL     1      -0.542  12.530  21.964  0.00  0.00    +0.000 C 
ATOM     13  C   UNL     1      -0.332  13.861  21.757  0.00  0.00    +0.000 C 
ATOM     14  C   UNL     1      -1.176  14.990  22.287  0.00  0.00    +0.000 C 
BRANCH  12  15
ATOM     15  C   UNL     1      -1.635  12.060  22.747  0.00  0.00    +0.000 C 
ATOM     16  N   UNL     1      -2.516  11.698  23.399  0.00  0.00    +0.000 NA
ENDBRANCH  12  15
BRANCH  13  17
ATOM     17  O   UNL     1       0.721  14.369  21.002  0.00  0.00    +0.000 OA
ATOM     18  H   UNL     1       1.571  13.999  21.326  0.00  0.00    +0.000 HD
ENDBRANCH  13  17
ENDBRANCH   9  12
ENDBRANCH   3   8
BRANCH   7  19
ATOM     19  C   UNL     1       3.187   6.604  17.829  0.00  0.00    +0.000 C 
ATOM     20  O   UNL     1       2.752   5.486  17.559  0.00  0.00    +0.000 OA
ATOM     21  N   UNL     1       4.459   7.028  17.472  0.00  0.00    +0.000 N 
ATOM     22  H   UNL     1       4.863   7.755  18.057  0.00  0.00    +0.000 HD
BRANCH  21  23
ATOM     23  C   UNL     1       5.352   6.164  16.786  0.00  0.00    +0.000 A 
ATOM     24  C   UNL     1       5.401   6.139  15.385  0.00  0.00    +0.000 A 
ATOM     25  F   UNL     1       4.655   6.989  14.661  0.00  0.00    +0.000 F 
ATOM     26  C   UNL     1       6.284   5.299  14.703  0.00  0.00    +0.000 A 
ATOM     27  C   UNL     1       7.132   4.457  15.416  0.00  0.00    +0.000 A 
ATOM     28  C   UNL     1       7.099   4.468  16.813  0.00  0.00    +0.000 A 
ATOM     29  C   UNL     1       6.223   5.325  17.493  0.00  0.00    +0.000 A 
ATOM     30 BR   UNL     1       6.165   5.213  19.390  0.00  0.00    +0.000 Br
ENDBRANCH  21  23
ENDBRANCH   7  19
BRANCH   1  31
ATOM     31  O   UNL     1       2.414   6.144  20.635  0.00  0.00    +0.000 OA
BRANCH  31  33
ATOM     32  C   UNL     1       2.196   3.755  20.616  0.00  0.00    +0.000 C 
ATOM     33  C   UNL     1       1.467   5.073  20.762  0.00  0.00    +0.000 C 
ENDBRANCH  31  33
ENDBRANCH   1  31
TORSDOF 8
ENDMDL
MODEL 4
REMARK VINA RESULT:      -7.2      1.391      1.436
REMARK  Name = 
REMARK  10 active torsions:
REMARK  status: ('A' for Active; 'I' for Inactive)
REMARK    1  A    between atoms: C_1  and  C_2
REMARK    2  A    between atoms: C_2  and  O_3
REMARK    3  A    between atoms: O_3  and  C_4
REMARK    4  A    between atoms: C_6  and  N_7
REMARK    5  A    between atoms: C_8  and  C_10
REMARK    6  A    between atoms: C_10  and  C_11
REMARK    7  A    between atoms: C_13  and  C_14
REMARK    8  A    between atoms: C_13  and  O_15
REMARK    9  A    between atoms: C_19  and  C_20
REMARK   10  A    between atoms: N_22  and  C_23
REMARK                            x       y       z     vdW  Elec       q    Type
REMARK                         _______ _______ _______ _____ _____    ______ ____
ROOT
ATOM      1  C   UNL     1       1.985   7.704  19.739  0.00  0.00    +0.000 A 
ATOM      2  C   UNL     1       1.044   8.471  20.460  0.00  0.00    +0.000 A 
ATOM      3  C   UNL     1       0.520   9.679  19.987  0.00  0.00    +0.000 A 
ATOM      4  C   UNL     1       0.984  10.127  18.751  0.00  0.00    +0.000 A 
ATOM      5  F   UNL     1       0.533  11.289  18.252  0.00  0.00    +0.000 F 
ATOM      6  C   UNL     1       1.893   9.377  17.998  0.00  0.00    +0.000 A 
ATOM      7  C   UNL     1       2.410   8.155  18.478  0.00  0.00    +0.000 A 
ENDROOT
BRANCH   3   8
ATOM      8  N   UNL     1      -0.435  10.453  20.724  0.00  0.00    +0.000 N 
ATOM      9  C   UNL     1      -0.133  11.631  21.389  0.00  0.00    +0.000 C 
ATOM     10  O   UNL     1       1.015  12.078  21.475  0.00  0.00    +0.000 OA
ATOM     11  H   UNL     1      -1.356  10.026  20.816  0.00  0.00    +0.000 HD
BRANCH   9  12
ATOM     12  C   UNL     1      -1.233  12.396  22.080  0.00  0.00    +0.000 C 
ATOM     13  C   UNL     1      -1.933  11.765  23.066  0.00  0.00    +0.000 C 
ATOM     14  C   UNL     1      -3.052  12.354  23.883  0.00  0.00    +0.000 C 
BRANCH  12  15
ATOM     15  C   UNL     1      -1.516  13.743  21.710  0.00  0.00    +0.000 C 
ATOM     16  N   UNL     1      -1.735  14.829  21.387  0.00  0.00    +0.000 NA
ENDBRANCH  12  15
BRANCH  13  17
ATOM     17  O   UNL     1      -1.695  10.452  23.461  0.00  0.00    +0.000 OA
ATOM     18  H   UNL     1      -2.527  10.050  23.795  0.00  0.00    +0.000 HD
ENDBRANCH  13  17
ENDBRANCH   9  12
ENDBRANCH   3   8
BRANCH   7  19
ATOM     19  C   UNL     1       3.406   7.459  17.588  0.00  0.00    +0.000 C 
ATOM     20  O   UNL     1       3.455   7.782  16.402  0.00  0.00    +0.000 OA
ATOM     21  N   UNL     1       4.156   6.423  18.123  0.00  0.00    +0.000 N 
ATOM     22  H   UNL     1       3.771   5.981  18.954  0.00  0.00    +0.000 HD
BRANCH  21  23
ATOM     23  C   UNL     1       5.018   5.646  17.305  0.00  0.00    +0.000 A 
ATOM     24  C   UNL     1       6.272   6.133  16.908  0.00  0.00    +0.000 A 
ATOM     25  F   UNL     1       6.717   7.318  17.358  0.00  0.00    +0.000 F 
ATOM     26  C   UNL     1       7.130   5.371  16.112  0.00  0.00    +0.000 A 
ATOM     27  C   UNL     1       6.740   4.105  15.687  0.00  0.00    +0.000 A 
ATOM     28  C   UNL     1       5.495   3.601  16.073  0.00  0.00    +0.000 A 
ATOM     29  C   UNL     1       4.645   4.362  16.886  0.00  0.00    +0.000 A 
ATOM     30 BR   UNL     1       2.928   3.652  17.288  0.00  0.00    +0.000 Br
ENDBRANCH  21  23
ENDBRANCH   7  19
BRANCH   1  31
ATOM     31  O   UNL     1       2.502   6.530  20.234  0.00  0.00    +0.000 OA
BRANCH  31  33
ATOM     32  C   UNL     1       2.293   4.339  21.190  0.00  0.00    +0.000 C 
ATOM     33  C   UNL     1       1.573   5.463  20.476  0.00  0.00    +0.000 C 
ENDBRANCH  31  33
ENDBRANCH   1  31
TORSDOF 8
ENDMDL
MODEL 5
REMARK VINA RESULT:      -7.1      2.723      4.191
REMARK  Name = 
REMARK  10 active torsions:
REMARK  status: ('A' for Active; 'I' for Inactive)
REMARK    1  A    between atoms: C_1  and  C_2
REMARK    2  A    between atoms: C_2  and  O_3
REMARK    3  A    between atoms: O_3  and  C_4
REMARK    4  A    between atoms: C_6  and  N_7
REMARK    5  A    between atoms: C_8  and  C_10
REMARK    6  A    between atoms: C_10  and  C_11
REMARK    7  A    between atoms: C_13  and  C_14
REMARK    8  A    between atoms: C_13  and  O_15
REMARK    9  A    between atoms: C_19  and  C_20
REMARK   10  A    between atoms: N_22  and  C_23
REMARK                            x       y       z     vdW  Elec       q    Type
REMARK                         _______ _______ _______ _____ _____    ______ ____
ROOT
ATOM      1  C   UNL     1       1.113  10.592  19.752  0.00  0.00    +0.000 A 
ATOM      2  C   UNL     1       0.450  11.371  20.725  0.00  0.00    +0.000 A 
ATOM      3  C   UNL     1      -0.210  10.817  21.828  0.00  0.00    +0.000 A 
ATOM      4  C   UNL     1      -0.211   9.427  21.930  0.00  0.00    +0.000 A 
ATOM      5  F   UNL     1      -0.844   8.835  22.955  0.00  0.00    +0.000 F 
ATOM      6  C   UNL     1       0.461   8.628  20.999  0.00  0.00    +0.000 A 
ATOM      7  C   UNL     1       1.132   9.194  19.895  0.00  0.00    +0.000 A 
ENDROOT
BRANCH   3   8
ATOM      8  N   UNL     1      -0.881  11.614  22.812  0.00  0.00    +0.000 N 
ATOM      9  C   UNL     1      -2.084  12.268  22.594  0.00  0.00    +0.000 C 
ATOM     10  O   UNL     1      -2.646  12.290  21.496  0.00  0.00    +0.000 OA
ATOM     11  H   UNL     1      -0.361  11.758  23.677  0.00  0.00    +0.000 HD
BRANCH   9  12
ATOM     12  C   UNL     1      -2.731  13.028  23.725  0.00  0.00    +0.000 C 
ATOM     13  C   UNL     1      -2.081  14.120  24.219  0.00  0.00    +0.000 C 
ATOM     14  C   UNL     1      -2.562  15.018  25.329  0.00  0.00    +0.000 C 
BRANCH  12  15
ATOM     15  C   UNL     1      -3.989  12.609  24.246  0.00  0.00    +0.000 C 
ATOM     16  N   UNL     1      -5.000  12.246  24.669  0.00  0.00    +0.000 NA
ENDBRANCH  12  15
BRANCH  13  17
ATOM     17  O   UNL     1      -0.852  14.567  23.745  0.00  0.00    +0.000 OA
ATOM     18  H   UNL     1      -0.683  14.190  22.854  0.00  0.00    +0.000 HD
ENDBRANCH  13  17
ENDBRANCH   9  12
ENDBRANCH   3   8
BRANCH   7  19
ATOM     19  C   UNL     1       1.788   8.225  18.947  0.00  0.00    +0.000 C 
ATOM     20  O   UNL     1       1.554   8.335  17.745  0.00  0.00    +0.000 OA
ATOM     21  N   UNL     1       2.551   7.196  19.481  0.00  0.00    +0.000 N 
ATOM     22  H   UNL     1       2.358   6.958  20.450  0.00  0.00    +0.000 HD
BRANCH  21  23
ATOM     23  C   UNL     1       3.090   6.179  18.649  0.00  0.00    +0.000 A 
ATOM     24  C   UNL     1       4.064   6.474  17.685  0.00  0.00    +0.000 A 
ATOM     25  F   UNL     1       4.564   7.715  17.578  0.00  0.00    +0.000 F 
ATOM     26  C   UNL     1       4.605   5.477  16.870  0.00  0.00    +0.000 A 
ATOM     27  C   UNL     1       4.171   4.162  17.001  0.00  0.00    +0.000 A 
ATOM     28  C   UNL     1       3.202   3.847  17.956  0.00  0.00    +0.000 A 
ATOM     29  C   UNL     1       2.673   4.848  18.784  0.00  0.00    +0.000 A 
ATOM     30 BR   UNL     1       1.289   4.363  19.992  0.00  0.00    +0.000 Br
ENDBRANCH  21  23
ENDBRANCH   7  19
BRANCH   1  31
ATOM     31  O   UNL     1       1.736  11.157  18.665  0.00  0.00    +0.000 OA
BRANCH  31  33
ATOM     32  C   UNL     1       2.813  13.297  18.516  0.00  0.00    +0.000 C 
ATOM     33  C   UNL     1       1.497  12.554  18.434  0.00  0.00    +0.000 C 
ENDBRANCH  31  33
ENDBRANCH   1  31
TORSDOF 8
ENDMDL
MODEL 6
REMARK VINA RESULT:      -7.1      3.122      9.614
REMARK  Name = 
REMARK  10 active torsions:
REMARK  status: ('A' for Active; 'I' for Inactive)
REMARK    1  A    between atoms: C_1  and  C_2
REMARK    2  A    between atoms: C_2  and  O_3
REMARK    3  A    between atoms: O_3  and  C_4
REMARK    4  A    between atoms: C_6  and  N_7
REMARK    5  A    between atoms: C_8  and  C_10
REMARK    6  A    between atoms: C_10  and  C_11
REMARK    7  A    between atoms: C_13  and  C_14
REMARK    8  A    between atoms: C_13  and  O_15
REMARK    9  A    between atoms: C_19  and  C_20
REMARK   10  A    between atoms: N_22  and  C_23
REMARK                            x       y       z     vdW  Elec       q    Type
REMARK                         _______ _______ _______ _____ _____    ______ ____
ROOT
ATOM      1  C   UNL     1       1.533   9.617  18.692  0.00  0.00    +0.000 A 
ATOM      2  C   UNL     1       2.065   8.512  17.991  0.00  0.00    +0.000 A 
ATOM      3  C   UNL     1       2.293   7.268  18.588  0.00  0.00    +0.000 A 
ATOM      4  C   UNL     1       1.989   7.152  19.944  0.00  0.00    +0.000 A 
ATOM      5  F   UNL     1       2.205   5.989  20.578  0.00  0.00    +0.000 F 
ATOM      6  C   UNL     1       1.435   8.218  20.659  0.00  0.00    +0.000 A 
ATOM      7  C   UNL     1       1.198   9.467  20.048  0.00  0.00    +0.000 A 
ENDROOT
BRANCH   3   8
ATOM      8  N   UNL     1       2.834   6.150  17.871  0.00  0.00    +0.000 N 
ATOM      9  C   UNL     1       4.163   6.039  17.493  0.00  0.00    +0.000 C 
ATOM     10  O   UNL     1       4.988   6.940  17.668  0.00  0.00    +0.000 OA
ATOM     11  H   UNL     1       2.146   5.465  17.561  0.00  0.00    +0.000 HD
BRANCH   9  12
ATOM     12  C   UNL     1       4.633   4.787  16.796  0.00  0.00    +0.000 C 
ATOM     13  C   UNL     1       5.439   4.924  15.704  0.00  0.00    +0.000 C 
ATOM     14  C   UNL     1       6.025   3.806  14.882  0.00  0.00    +0.000 C 
BRANCH  12  15
ATOM     15  C   UNL     1       4.247   3.505  17.282  0.00  0.00    +0.000 C 
ATOM     16  N   UNL     1       3.910   2.475  17.678  0.00  0.00    +0.000 NA
ENDBRANCH  12  15
BRANCH  13  17
ATOM     17  O   UNL     1       5.842   6.153  15.191  0.00  0.00    +0.000 OA
ATOM     18  H   UNL     1       6.055   6.060  14.237  0.00  0.00    +0.000 HD
ENDBRANCH  13  17
ENDBRANCH   9  12
ENDBRANCH   3   8
BRANCH   7  19
ATOM     19  C   UNL     1       0.628  10.544  20.934  0.00  0.00    +0.000 C 
ATOM     20  O   UNL     1       1.291  10.918  21.900  0.00  0.00    +0.000 OA
ATOM     21  N   UNL     1      -0.657  10.997  20.676  0.00  0.00    +0.000 N 
ATOM     22  H   UNL     1      -1.249  10.369  20.139  0.00  0.00    +0.000 HD
BRANCH  21  23
ATOM     23  C   UNL     1      -1.297  11.917  21.549  0.00  0.00    +0.000 A 
ATOM     24  C   UNL     1      -1.763  11.513  22.808  0.00  0.00    +0.000 A 
ATOM     25  F   UNL     1      -1.545  10.263  23.248  0.00  0.00    +0.000 F 
ATOM     26  C   UNL     1      -2.384  12.413  23.677  0.00  0.00    +0.000 A 
ATOM     27  C   UNL     1      -2.561  13.739  23.292  0.00  0.00    +0.000 A 
ATOM     28  C   UNL     1      -2.103  14.161  22.042  0.00  0.00    +0.000 A 
ATOM     29  C   UNL     1      -1.464  13.258  21.180  0.00  0.00    +0.000 A 
ATOM     30 BR   UNL     1      -0.957  13.880  19.458  0.00  0.00    +0.000 Br
ENDBRANCH  21  23
ENDBRANCH   7  19
BRANCH   1  31
ATOM     31  O   UNL     1       1.337  10.838  18.090  0.00  0.00    +0.000 OA
BRANCH  31  33
ATOM     32  C   UNL     1       2.411  12.872  18.772  0.00  0.00    +0.000 C 
ATOM     33  C   UNL     1       2.501  11.652  17.881  0.00  0.00    +0.000 C 
ENDBRANCH  31  33
ENDBRANCH   1  31
TORSDOF 8
ENDMDL
MODEL 7
REMARK VINA RESULT:      -7.1      1.292      1.324
REMARK  Name = 
REMARK  10 active torsions:
REMARK  status: ('A' for Active; 'I' for Inactive)
REMARK    1  A    between atoms: C_1  and  C_2
REMARK    2  A    between atoms: C_2  and  O_3
REMARK    3  A    between atoms: O_3  and  C_4
REMARK    4  A    between atoms: C_6  and  N_7
REMARK    5  A    between atoms: C_8  and  C_10
REMARK    6  A    between atoms: C_10  and  C_11
REMARK    7  A    between atoms: C_13  and  C_14
REMARK    8  A    between atoms: C_13  and  O_15
REMARK    9  A    between atoms: C_19  and  C_20
REMARK   10  A    between atoms: N_22  and  C_23
REMARK                            x       y       z     vdW  Elec       q    Type
REMARK                         _______ _______ _______ _____ _____    ______ ____
ROOT
ATOM      1  C   UNL     1       2.193   7.618  19.644  0.00  0.00    +0.000 A 
ATOM      2  C   UNL     1       1.266   8.388  20.381  0.00  0.00    +0.000 A 
ATOM      3  C   UNL     1       0.720   9.585  19.907  0.00  0.00    +0.000 A 
ATOM      4  C   UNL     1       1.147  10.022  18.654  0.00  0.00    +0.000 A 
ATOM      5  F   UNL     1       0.674  11.174  18.154  0.00  0.00    +0.000 F 
ATOM      6  C   UNL     1       2.041   9.269  17.886  0.00  0.00    +0.000 A 
ATOM      7  C   UNL     1       2.580   8.057  18.366  0.00  0.00    +0.000 A 
ENDROOT
BRANCH   3   8
ATOM      8  N   UNL     1      -0.220  10.362  20.661  0.00  0.00    +0.000 N 
ATOM      9  C   UNL     1       0.100  11.530  21.335  0.00  0.00    +0.000 C 
ATOM     10  O   UNL     1       1.253  11.964  21.416  0.00  0.00    +0.000 OA
ATOM     11  H   UNL     1      -1.145   9.943  20.757  0.00  0.00    +0.000 HD
BRANCH   9  12
ATOM     12  C   UNL     1      -0.987  12.299  22.044  0.00  0.00    +0.000 C 
ATOM     13  C   UNL     1      -1.704  11.655  23.009  0.00  0.00    +0.000 C 
ATOM     14  C   UNL     1      -2.814  12.245  23.838  0.00  0.00    +0.000 C 
BRANCH  12  15
ATOM     15  C   UNL     1      -1.239  13.661  21.711  0.00  0.00    +0.000 C 
ATOM     16  N   UNL     1      -1.454  14.757  21.419  0.00  0.00    +0.000 NA
ENDBRANCH  12  15
BRANCH  13  17
ATOM     17  O   UNL     1      -1.497  10.327  23.368  0.00  0.00    +0.000 OA
ATOM     18  H   UNL     1      -0.576  10.210  23.689  0.00  0.00    +0.000 HD
ENDBRANCH  13  17
ENDBRANCH   9  12
ENDBRANCH   3   8
BRANCH   7  19
ATOM     19  C   UNL     1       3.557   7.358  17.458  0.00  0.00    +0.000 C 
ATOM     20  O   UNL     1       3.573   7.667  16.268  0.00  0.00    +0.000 OA
ATOM     21  N   UNL     1       4.328   6.332  17.985  0.00  0.00    +0.000 N 
ATOM     22  H   UNL     1       3.968   5.897  18.830  0.00  0.00    +0.000 HD
BRANCH  21  23
ATOM     23  C   UNL     1       5.174   5.552  17.153  0.00  0.00    +0.000 A 
ATOM     24  C   UNL     1       4.722   4.351  16.588  0.00  0.00    +0.000 A 
ATOM     25  F   UNL     1       3.452   3.951  16.760  0.00  0.00    +0.000 F 
ATOM     26  C   UNL     1       5.544   3.583  15.760  0.00  0.00    +0.000 A 
ATOM     27  C   UNL     1       6.844   4.001  15.491  0.00  0.00    +0.000 A 
ATOM     28  C   UNL     1       7.312   5.195  16.044  0.00  0.00    +0.000 A 
ATOM     29  C   UNL     1       6.478   5.972  16.861  0.00  0.00    +0.000 A 
ATOM     30 BR   UNL     1       7.216   7.532  17.656  0.00  0.00    +0.000 Br
ENDBRANCH  21  23
ENDBRANCH   7  19
BRANCH   1  31
ATOM     31  O   UNL     1       2.732   6.454  20.139  0.00  0.00    +0.000 OA
BRANCH  31  33
ATOM     32  C   UNL     1       2.527   4.100  20.552  0.00  0.00    +0.000 C 
ATOM     33  C   UNL     1       1.809   5.432  20.543  0.00  0.00    +0.000 C 
ENDBRANCH  31  33
ENDBRANCH   1  31
TORSDOF 8
ENDMDL
MODEL 8
REMARK VINA RESULT:      -7.0      3.054      8.963
REMARK  Name = 
REMARK  10 active torsions:
REMARK  status: ('A' for Active; 'I' for Inactive)
REMARK    1  A    between atoms: C_1  and  C_2
REMARK    2  A    between atoms: C_2  and  O_3
REMARK    3  A    between atoms: O_3  and  C_4
REMARK    4  A    between atoms: C_6  and  N_7
REMARK    5  A    between atoms: C_8  and  C_10
REMARK    6  A    between atoms: C_10  and  C_11
REMARK    7  A    between atoms: C_13  and  C_14
REMARK    8  A    between atoms: C_13  and  O_15
REMARK    9  A    between atoms: C_19  and  C_20
REMARK   10  A    between atoms: N_22  and  C_23
REMARK                            x       y       z     vdW  Elec       q    Type
REMARK                         _______ _______ _______ _____ _____    ______ ____
ROOT
ATOM      1  C   UNL     1       0.684   9.018  20.269  0.00  0.00    +0.000 A 
ATOM      2  C   UNL     1       1.395   7.797  20.257  0.00  0.00    +0.000 A 
ATOM      3  C   UNL     1       2.317   7.461  19.261  0.00  0.00    +0.000 A 
ATOM      4  C   UNL     1       2.507   8.387  18.236  0.00  0.00    +0.000 A 
ATOM      5  F   UNL     1       3.364   8.113  17.241  0.00  0.00    +0.000 F 
ATOM      6  C   UNL     1       1.841   9.617  18.233  0.00  0.00    +0.000 A 
ATOM      7  C   UNL     1       0.919   9.953  19.247  0.00  0.00    +0.000 A 
ENDROOT
BRANCH   3   8
ATOM      8  N   UNL     1       3.035   6.220  19.255  0.00  0.00    +0.000 N 
ATOM      9  C   UNL     1       2.711   5.139  18.450  0.00  0.00    +0.000 C 
ATOM     10  O   UNL     1       1.715   5.119  17.722  0.00  0.00    +0.000 OA
ATOM     11  H   UNL     1       3.761   6.140  19.966  0.00  0.00    +0.000 HD
BRANCH   9  12
ATOM     12  C   UNL     1       3.577   3.905  18.481  0.00  0.00    +0.000 C 
ATOM     13  C   UNL     1       2.961   2.688  18.463  0.00  0.00    +0.000 C 
ATOM     14  C   UNL     1       3.641   1.344  18.473  0.00  0.00    +0.000 C 
BRANCH  12  15
ATOM     15  C   UNL     1       4.996   4.022  18.520  0.00  0.00    +0.000 C 
ATOM     16  N   UNL     1       6.144   4.141  18.544  0.00  0.00    +0.000 NA
ENDBRANCH  12  15
BRANCH  13  17
ATOM     17  O   UNL     1       1.580   2.522  18.427  0.00  0.00    +0.000 OA
ATOM     18  H   UNL     1       1.171   3.254  17.915  0.00  0.00    +0.000 HD
ENDBRANCH  13  17
ENDBRANCH   9  12
ENDBRANCH   3   8
BRANCH   7  19
ATOM     19  C   UNL     1       0.243  11.293  19.113  0.00  0.00    +0.000 C 
ATOM     20  O   UNL     1      -0.539  11.462  18.179  0.00  0.00    +0.000 OA
ATOM     21  N   UNL     1       0.604  12.303  19.992  0.00  0.00    +0.000 N 
ATOM     22  H   UNL     1       1.509  12.196  20.442  0.00  0.00    +0.000 HD
BRANCH  21  23
ATOM     23  C   UNL     1       0.098  13.622  19.838  0.00  0.00    +0.000 A 
ATOM     24  C   UNL     1      -1.134  13.993  20.394  0.00  0.00    +0.000 A 
ATOM     25  F   UNL     1      -1.829  13.128  21.151  0.00  0.00    +0.000 F 
ATOM     26  C   UNL     1      -1.633  15.290  20.256  0.00  0.00    +0.000 A 
ATOM     27  C   UNL     1      -0.907  16.240  19.545  0.00  0.00    +0.000 A 
ATOM     28  C   UNL     1       0.323  15.891  18.984  0.00  0.00    +0.000 A 
ATOM     29  C   UNL     1       0.829  14.592  19.140  0.00  0.00    +0.000 A 
ATOM     30 BR   UNL     1       2.461  14.163  18.267  0.00  0.00    +0.000 Br
ENDBRANCH  21  23
ENDBRANCH   7  19
BRANCH   1  31
ATOM     31  O   UNL     1      -0.234   9.318  21.247  0.00  0.00    +0.000 OA
BRANCH  31  33
ATOM     32  C   UNL     1      -0.758  10.453  23.295  0.00  0.00    +0.000 C 
ATOM     33  C   UNL     1       0.285   9.656  22.542  0.00  0.00    +0.000 C 
ENDBRANCH  31  33
ENDBRANCH   1  31
TORSDOF 8
ENDMDL
MODEL 9
REMARK VINA RESULT:      -7.0      3.588      8.860
REMARK  Name = 
REMARK  10 active torsions:
REMARK  status: ('A' for Active; 'I' for Inactive)
REMARK    1  A    between atoms: C_1  and  C_2
REMARK    2  A    between atoms: C_2  and  O_3
REMARK    3  A    between atoms: O_3  and  C_4
REMARK    4  A    between atoms: C_6  and  N_7
REMARK    5  A    between atoms: C_8  and  C_10
REMARK    6  A    between atoms: C_10  and  C_11
REMARK    7  A    between atoms: C_13  and  C_14
REMARK    8  A    between atoms: C_13  and  O_15
REMARK    9  A    between atoms: C_19  and  C_20
REMARK   10  A    between atoms: N_22  and  C_23
REMARK                            x       y       z     vdW  Elec       q    Type
REMARK                         _______ _______ _______ _____ _____    ______ ____
ROOT
ATOM      1  C   UNL     1       0.909   9.968  20.974  0.00  0.00    +0.000 A 
ATOM      2  C   UNL     1       1.472   8.685  21.149  0.00  0.00    +0.000 A 
ATOM      3  C   UNL     1       1.937   7.904  20.085  0.00  0.00    +0.000 A 
ATOM      4  C   UNL     1       1.806   8.439  18.804  0.00  0.00    +0.000 A 
ATOM      5  F   UNL     1       2.216   7.730  17.742  0.00  0.00    +0.000 F 
ATOM      6  C   UNL     1       1.280   9.718  18.600  0.00  0.00    +0.000 A 
ATOM      7  C   UNL     1       0.822  10.504  19.678  0.00  0.00    +0.000 A 
ENDROOT
BRANCH   3   8
ATOM      8  N   UNL     1       2.508   6.602  20.269  0.00  0.00    +0.000 N 
ATOM      9  C   UNL     1       1.764   5.440  20.406  0.00  0.00    +0.000 C 
ATOM     10  O   UNL     1       0.531   5.436  20.467  0.00  0.00    +0.000 OA
ATOM     11  H   UNL     1       3.519   6.589  20.395  0.00  0.00    +0.000 HD
BRANCH   9  12
ATOM     12  C   UNL     1       2.473   4.115  20.531  0.00  0.00    +0.000 C 
ATOM     13  C   UNL     1       3.530   3.872  19.703  0.00  0.00    +0.000 C 
ATOM     14  C   UNL     1       4.375   2.627  19.678  0.00  0.00    +0.000 C 
BRANCH  12  15
ATOM     15  C   UNL     1       2.047   3.159  21.497  0.00  0.00    +0.000 C 
ATOM     16  N   UNL     1       1.681   2.398  22.284  0.00  0.00    +0.000 NA
ENDBRANCH  12  15
BRANCH  13  17
ATOM     17  O   UNL     1       3.982   4.773  18.744  0.00  0.00    +0.000 OA
ATOM     18  H   UNL     1       3.584   4.558  17.873  0.00  0.00    +0.000 HD
ENDBRANCH  13  17
ENDBRANCH   9  12
ENDBRANCH   3   8
BRANCH   7  19
ATOM     19  C   UNL     1       0.247  11.850  19.323  0.00  0.00    +0.000 C 
ATOM     20  O   UNL     1      -0.460  11.937  18.321  0.00  0.00    +0.000 OA
ATOM     21  N   UNL     1       0.616  12.947  20.088  0.00  0.00    +0.000 N 
ATOM     22  H   UNL     1       1.481  12.849  20.613  0.00  0.00    +0.000 HD
BRANCH  21  23
ATOM     23  C   UNL     1       0.210  14.259  19.729  0.00  0.00    +0.000 A 
ATOM     24  C   UNL     1       0.989  15.047  18.869  0.00  0.00    +0.000 A 
ATOM     25  F   UNL     1       2.101  14.547  18.307  0.00  0.00    +0.000 F 
ATOM     26  C   UNL     1       0.592  16.335  18.503  0.00  0.00    +0.000 A 
ATOM     27  C   UNL     1      -0.594  16.863  19.002  0.00  0.00    +0.000 A 
ATOM     28  C   UNL     1      -1.386  16.094  19.858  0.00  0.00    +0.000 A 
ATOM     29  C   UNL     1      -0.992  14.795  20.210  0.00  0.00    +0.000 A 
ATOM     30 BR   UNL     1      -2.068  13.846  21.456  0.00  0.00    +0.000 Br
ENDBRANCH  21  23
ENDBRANCH   7  19
BRANCH   1  31
ATOM     31  O   UNL     1       0.438  10.709  22.033  0.00  0.00    +0.000 OA
BRANCH  31  33
ATOM     32  C   UNL     1      -1.588  10.902  23.303  0.00  0.00    +0.000 C 
ATOM     33  C   UNL     1      -0.396  10.027  22.981  0.00  0.00    +0.000 C 
ENDBRANCH  31  33
ENDBRANCH   1  31
TORSDOF 8
ENDMDL
