MODEL 1
REMARK VINA RESULT:      -6.8      0.000      0.000
REMARK  Name = 
REMARK  4 active torsions:
REMARK  status: ('A' for Active; 'I' for Inactive)
REMARK    1  A    between atoms: C_1  and  O_2
REMARK    2  A    between atoms: O_2  and  C_3
REMARK    3  A    between atoms: C_5  and  N_6
REMARK    4  A    between atoms: C_7  and  C_9
REMARK                            x       y       z     vdW  Elec       q    Type
REMARK                         _______ _______ _______ _____ _____    ______ ____
ROOT
ATOM      1  C   UNL     1       4.432   4.386  17.886  0.00  0.00    +0.000 A 
ATOM      2  C   UNL     1       4.864   4.022  16.547  0.00  0.00    +0.000 A 
ATOM      3  C   UNL     1       6.073   4.045  15.948  0.00  0.00    +0.000 A 
ATOM      4  C   UNL     1       7.295   4.465  16.595  0.00  0.00    +0.000 A 
ATOM      5  C   UNL     1       7.538   4.886  17.839  0.00  0.00    +0.000 A 
ATOM      6  C   UNL     1       6.642   5.067  18.982  0.00  0.00    +0.000 A 
ATOM      7  O   UNL     1       7.110   5.470  20.045  0.00  0.00    +0.000 OA
ATOM      8  C   UNL     1       5.200   4.807  18.902  0.00  0.00    +0.000 A 
ENDROOT
BRANCH   3   9
ATOM      9  N   UNL     1       6.112   3.647  14.611  0.00  0.00    +0.000 N 
ATOM     10  C   UNL     1       6.694   4.255  13.503  0.00  0.00    +0.000 C 
ATOM     11  O   UNL     1       7.368   5.282  13.510  0.00  0.00    +0.000 OA
ATOM     12  H   UNL     1       5.586   2.807  14.385  0.00  0.00    +0.000 HD
BRANCH  10  13
ATOM     13  C   UNL     1       6.531   3.501  12.193  0.00  0.00    +0.000 C 
ATOM     14 CL   UNL     1       4.827   3.234  11.777  0.00  0.00    +0.000 Cl
ENDBRANCH  10  13
ENDBRANCH   3   9
BRANCH   1  16
ATOM     15  C   UNL     1       2.494   2.954  17.782  0.00  0.00    +0.000 C 
ATOM     16  O   UNL     1       3.053   4.251  17.993  0.00  0.00    +0.000 OA
ENDBRANCH   1  16
TORSDOF 3
ENDMDL
MODEL 2
REMARK VINA RESULT:      -6.5      1.019      1.019
REMARK  Name = 
REMARK  4 active torsions:
REMARK  status: ('A' for Active; 'I' for Inactive)
REMARK    1  A    between atoms: C_1  and  O_2
REMARK    2  A    between atoms: O_2  and  C_3
REMARK    3  A    between atoms: C_5  and  N_6
REMARK    4  A    between atoms: C_7  and  C_9
REMARK                            x       y       z     vdW  Elec       q    Type
REMARK                         _______ _______ _______ _____ _____    ______ ____
ROOT
ATOM      1  C   UNL     1       4.528   5.427  17.662  0.00  0.00    +0.000 A 
ATOM      2  C   UNL     1       4.895   4.824  16.391  0.00  0.00    +0.000 A 
ATOM      3  C   UNL     1       6.066   4.352  15.918  0.00  0.00    +0.000 A 
ATOM      4  C   UNL     1       7.302   4.340  16.668  0.00  0.00    +0.000 A 
ATOM      5  C   UNL     1       7.587   4.736  17.911  0.00  0.00    +0.000 A 
ATOM      6  C   UNL     1       6.737   5.325  18.947  0.00  0.00    +0.000 A 
ATOM      7  O   UNL     1       7.237   5.609  20.034  0.00  0.00    +0.000 OA
ATOM      8  C   UNL     1       5.314   5.611  18.732  0.00  0.00    +0.000 A 
ENDROOT
BRANCH   3   9
ATOM      9  N   UNL     1       6.058   3.865  14.610  0.00  0.00    +0.000 N 
ATOM     10  C   UNL     1       6.698   4.332  13.467  0.00  0.00    +0.000 C 
ATOM     11  O   UNL     1       7.477   5.280  13.408  0.00  0.00    +0.000 OA
ATOM     12  H   UNL     1       5.445   3.072  14.439  0.00  0.00    +0.000 HD
BRANCH  10  13
ATOM     13  C   UNL     1       6.451   3.514  12.209  0.00  0.00    +0.000 C 
ATOM     14 CL   UNL     1       4.724   3.368  11.829  0.00  0.00    +0.000 Cl
ENDBRANCH  10  13
ENDBRANCH   3   9
BRANCH   1  16
ATOM     15  C   UNL     1       2.508   5.932  18.880  0.00  0.00    +0.000 C 
ATOM     16  O   UNL     1       3.194   5.820  17.633  0.00  0.00    +0.000 OA
ENDBRANCH   1  16
TORSDOF 3
ENDMDL
MODEL 3
REMARK VINA RESULT:      -6.4      3.061      5.289
REMARK  Name = 
REMARK  4 active torsions:
REMARK  status: ('A' for Active; 'I' for Inactive)
REMARK    1  A    between atoms: C_1  and  O_2
REMARK    2  A    between atoms: O_2  and  C_3
REMARK    3  A    between atoms: C_5  and  N_6
REMARK    4  A    between atoms: C_7  and  C_9
REMARK                            x       y       z     vdW  Elec       q    Type
REMARK                         _______ _______ _______ _____ _____    ______ ____
ROOT
ATOM      1  C   UNL     1       6.455   5.006  18.462  0.00  0.00    +0.000 A 
ATOM      2  C   UNL     1       5.111   4.457  18.525  0.00  0.00    +0.000 A 
ATOM      3  C   UNL     1       4.238   4.090  17.566  0.00  0.00    +0.000 A 
ATOM      4  C   UNL     1       4.506   4.163  16.147  0.00  0.00    +0.000 A 
ATOM      5  C   UNL     1       5.588   4.559  15.471  0.00  0.00    +0.000 A 
ATOM      6  C   UNL     1       6.881   5.060  15.941  0.00  0.00    +0.000 A 
ATOM      7  O   UNL     1       7.736   5.363  15.111  0.00  0.00    +0.000 OA
ATOM      8  C   UNL     1       7.190   5.234  17.365  0.00  0.00    +0.000 A 
ENDROOT
BRANCH   3   9
ATOM      9  N   UNL     1       2.994   3.626  18.000  0.00  0.00    +0.000 N 
ATOM     10  C   UNL     1       2.582   2.349  18.365  0.00  0.00    +0.000 C 
ATOM     11  O   UNL     1       3.293   1.349  18.432  0.00  0.00    +0.000 OA
ATOM     12  H   UNL     1       2.244   4.312  18.000  0.00  0.00    +0.000 HD
BRANCH  10  13
ATOM     13  C   UNL     1       1.129   2.238  18.799  0.00  0.00    +0.000 C 
ATOM     14 CL   UNL     1       0.721   3.390  20.085  0.00  0.00    +0.000 Cl
ENDBRANCH  10  13
ENDBRANCH   3   9
BRANCH   1  16
ATOM     15  C   UNL     1       8.262   5.737  19.885  0.00  0.00    +0.000 C 
ATOM     16  O   UNL     1       6.912   5.291  19.744  0.00  0.00    +0.000 OA
ENDBRANCH   1  16
TORSDOF 3
ENDMDL
MODEL 4
REMARK VINA RESULT:      -6.4      3.170      5.410
REMARK  Name = 
REMARK  4 active torsions:
REMARK  status: ('A' for Active; 'I' for Inactive)
REMARK    1  A    between atoms: C_1  and  O_2
REMARK    2  A    between atoms: O_2  and  C_3
REMARK    3  A    between atoms: C_5  and  N_6
REMARK    4  A    between atoms: C_7  and  C_9
REMARK                            x       y       z     vdW  Elec       q    Type
REMARK                         _______ _______ _______ _____ _____    ______ ____
ROOT
ATOM      1  C   UNL     1       6.387   5.080  18.600  0.00  0.00    +0.000 A 
ATOM      2  C   UNL     1       5.134   4.370  18.794  0.00  0.00    +0.000 A 
ATOM      3  C   UNL     1       4.247   3.845  17.923  0.00  0.00    +0.000 A 
ATOM      4  C   UNL     1       4.397   3.879  16.486  0.00  0.00    +0.000 A 
ATOM      5  C   UNL     1       5.364   4.374  15.709  0.00  0.00    +0.000 A 
ATOM      6  C   UNL     1       6.613   5.058  16.052  0.00  0.00    +0.000 A 
ATOM      7  O   UNL     1       7.357   5.424  15.144  0.00  0.00    +0.000 OA
ATOM      8  C   UNL     1       7.001   5.343  17.438  0.00  0.00    +0.000 A 
ENDROOT
BRANCH   3   9
ATOM      9  N   UNL     1       3.111   3.251  18.475  0.00  0.00    +0.000 N 
ATOM     10  C   UNL     1       1.761   3.471  18.222  0.00  0.00    +0.000 C 
ATOM     11  O   UNL     1       1.297   4.232  17.376  0.00  0.00    +0.000 OA
ATOM     12  H   UNL     1       3.281   2.586  19.226  0.00  0.00    +0.000 HD
BRANCH  10  13
ATOM     13  C   UNL     1       0.803   2.608  19.027  0.00  0.00    +0.000 C 
ATOM     14 CL   UNL     1       1.129   2.686  20.770  0.00  0.00    +0.000 Cl
ENDBRANCH  10  13
ENDBRANCH   3   9
BRANCH   1  16
ATOM     15  C   UNL     1       8.298   5.747  19.912  0.00  0.00    +0.000 C 
ATOM     16  O   UNL     1       6.896   5.487  19.828  0.00  0.00    +0.000 OA
ENDBRANCH   1  16
TORSDOF 3
ENDMDL
MODEL 5
REMARK VINA RESULT:      -6.3      2.924      4.412
REMARK  Name = 
REMARK  4 active torsions:
REMARK  status: ('A' for Active; 'I' for Inactive)
REMARK    1  A    between atoms: C_1  and  O_2
REMARK    2  A    between atoms: O_2  and  C_3
REMARK    3  A    between atoms: C_5  and  N_6
REMARK    4  A    between atoms: C_7  and  C_9
REMARK                            x       y       z     vdW  Elec       q    Type
REMARK                         _______ _______ _______ _____ _____    ______ ____
ROOT
ATOM      1  C   UNL     1       2.591   5.507  20.026  0.00  0.00    +0.000 A 
ATOM      2  C   UNL     1       3.633   5.192  19.064  0.00  0.00    +0.000 A 
ATOM      3  C   UNL     1       4.354   4.074  18.844  0.00  0.00    +0.000 A 
ATOM      4  C   UNL     1       4.201   2.845  19.591  0.00  0.00    +0.000 A 
ATOM      5  C   UNL     1       3.377   2.513  20.587  0.00  0.00    +0.000 A 
ATOM      6  C   UNL     1       2.338   3.287  21.271  0.00  0.00    +0.000 A 
ATOM      7  O   UNL     1       1.697   2.751  22.173  0.00  0.00    +0.000 OA
ATOM      8  C   UNL     1       2.047   4.685  20.935  0.00  0.00    +0.000 A 
ENDROOT
BRANCH   3   9
ATOM      9  N   UNL     1       5.316   4.141  17.835  0.00  0.00    +0.000 N 
ATOM     10  C   UNL     1       6.640   4.565  17.873  0.00  0.00    +0.000 C 
ATOM     11  O   UNL     1       7.258   4.922  18.874  0.00  0.00    +0.000 OA
ATOM     12  H   UNL     1       4.993   3.897  16.902  0.00  0.00    +0.000 HD
BRANCH  10  13
ATOM     13  C   UNL     1       7.384   4.480  16.550  0.00  0.00    +0.000 C 
ATOM     14 CL   UNL     1       6.316   4.750  15.159  0.00  0.00    +0.000 Cl
ENDBRANCH  10  13
ENDBRANCH   3   9
BRANCH   1  16
ATOM     15  C   UNL     1       2.459   7.479  18.643  0.00  0.00    +0.000 C 
ATOM     16  O   UNL     1       2.210   6.838  19.895  0.00  0.00    +0.000 OA
ENDBRANCH   1  16
TORSDOF 3
ENDMDL
MODEL 6
REMARK VINA RESULT:      -6.3      3.547      5.120
REMARK  Name = 
REMARK  4 active torsions:
REMARK  status: ('A' for Active; 'I' for Inactive)
REMARK    1  A    between atoms: C_1  and  O_2
REMARK    2  A    between atoms: O_2  and  C_3
REMARK    3  A    between atoms: C_5  and  N_6
REMARK    4  A    between atoms: C_7  and  C_9
REMARK                            x       y       z     vdW  Elec       q    Type
REMARK                         _______ _______ _______ _____ _____    ______ ____
ROOT
ATOM      1  C   UNL     1       2.071   4.714  19.983  0.00  0.00    +0.000 A 
ATOM      2  C   UNL     1       3.472   4.684  19.601  0.00  0.00    +0.000 A 
ATOM      3  C   UNL     1       4.198   3.796  18.890  0.00  0.00    +0.000 A 
ATOM      4  C   UNL     1       3.660   2.592  18.299  0.00  0.00    +0.000 A 
ATOM      5  C   UNL     1       2.423   2.090  18.284  0.00  0.00    +0.000 A 
ATOM      6  C   UNL     1       1.177   2.593  18.868  0.00  0.00    +0.000 A 
ATOM      7  O   UNL     1       0.145   1.943  18.713  0.00  0.00    +0.000 OA
ATOM      8  C   UNL     1       1.117   3.834  19.648  0.00  0.00    +0.000 A 
ENDROOT
BRANCH   3   9
ATOM      9  N   UNL     1       5.557   4.078  18.745  0.00  0.00    +0.000 N 
ATOM     10  C   UNL     1       6.292   4.439  17.620  0.00  0.00    +0.000 C 
ATOM     11  O   UNL     1       5.841   4.646  16.496  0.00  0.00    +0.000 OA
ATOM     12  H   UNL     1       6.126   3.946  19.578  0.00  0.00    +0.000 HD
BRANCH  10  13
ATOM     13  C   UNL     1       7.773   4.676  17.865  0.00  0.00    +0.000 C 
ATOM     14 CL   UNL     1       8.062   5.869  19.148  0.00  0.00    +0.000 Cl
ENDBRANCH  10  13
ENDBRANCH   3   9
BRANCH   1  16
ATOM     15  C   UNL     1       2.026   7.114  20.224  0.00  0.00    +0.000 C 
ATOM     16  O   UNL     1       1.823   5.819  20.791  0.00  0.00    +0.000 OA
ENDBRANCH   1  16
TORSDOF 3
ENDMDL
MODEL 7
REMARK VINA RESULT:      -6.2      3.791      5.308
REMARK  Name = 
REMARK  4 active torsions:
REMARK  status: ('A' for Active; 'I' for Inactive)
REMARK    1  A    between atoms: C_1  and  O_2
REMARK    2  A    between atoms: O_2  and  C_3
REMARK    3  A    between atoms: C_5  and  N_6
REMARK    4  A    between atoms: C_7  and  C_9
REMARK                            x       y       z     vdW  Elec       q    Type
REMARK                         _______ _______ _______ _____ _____    ______ ____
ROOT
ATOM      1  C   UNL     1       1.940   5.003  19.839  0.00  0.00    +0.000 A 
ATOM      2  C   UNL     1       3.191   5.265  19.148  0.00  0.00    +0.000 A 
ATOM      3  C   UNL     1       3.866   4.576  18.205  0.00  0.00    +0.000 A 
ATOM      4  C   UNL     1       3.419   3.326  17.632  0.00  0.00    +0.000 A 
ATOM      5  C   UNL     1       2.321   2.598  17.846  0.00  0.00    +0.000 A 
ATOM      6  C   UNL     1       1.185   2.817  18.744  0.00  0.00    +0.000 A 
ATOM      7  O   UNL     1       0.275   1.990  18.762  0.00  0.00    +0.000 OA
ATOM      8  C   UNL     1       1.101   3.976  19.640  0.00  0.00    +0.000 A 
ENDROOT
BRANCH   3   9
ATOM      9  N   UNL     1       5.081   5.121  17.786  0.00  0.00    +0.000 N 
ATOM     10  C   UNL     1       6.256   5.362  18.490  0.00  0.00    +0.000 C 
ATOM     11  O   UNL     1       6.470   5.068  19.664  0.00  0.00    +0.000 OA
ATOM     12  H   UNL     1       5.107   5.453  16.825  0.00  0.00    +0.000 HD
BRANCH  10  13
ATOM     13  C   UNL     1       7.386   5.968  17.674  0.00  0.00    +0.000 C 
ATOM     14 CL   UNL     1       8.170   7.323  18.510  0.00  0.00    +0.000 Cl
ENDBRANCH  10  13
ENDBRANCH   3   9
BRANCH   1  16
ATOM     15  C   UNL     1       1.846   7.352  20.380  0.00  0.00    +0.000 C 
ATOM     16  O   UNL     1       1.706   5.991  20.789  0.00  0.00    +0.000 OA
ENDBRANCH   1  16
TORSDOF 3
ENDMDL
MODEL 8
REMARK VINA RESULT:      -6.2      3.332      5.790
REMARK  Name = 
REMARK  4 active torsions:
REMARK  status: ('A' for Active; 'I' for Inactive)
REMARK    1  A    between atoms: C_1  and  O_2
REMARK    2  A    between atoms: O_2  and  C_3
REMARK    3  A    between atoms: C_5  and  N_6
REMARK    4  A    between atoms: C_7  and  C_9
REMARK                            x       y       z     vdW  Elec       q    Type
REMARK                         _______ _______ _______ _____ _____    ______ ____
ROOT
ATOM      1  C   UNL     1       6.895   5.709  17.984  0.00  0.00    +0.000 A 
ATOM      2  C   UNL     1       5.797   5.074  18.693  0.00  0.00    +0.000 A 
ATOM      3  C   UNL     1       4.736   4.359  18.266  0.00  0.00    +0.000 A 
ATOM      4  C   UNL     1       4.471   4.042  16.880  0.00  0.00    +0.000 A 
ATOM      5  C   UNL     1       5.145   4.328  15.764  0.00  0.00    +0.000 A 
ATOM      6  C   UNL     1       6.392   5.067  15.559  0.00  0.00    +0.000 A 
ATOM      7  O   UNL     1       6.824   5.198  14.415  0.00  0.00    +0.000 OA
ATOM      8  C   UNL     1       7.137   5.678  16.666  0.00  0.00    +0.000 A 
ENDROOT
BRANCH   3   9
ATOM      9  N   UNL     1       3.843   3.923  19.246  0.00  0.00    +0.000 N 
ATOM     10  C   UNL     1       3.912   2.838  20.115  0.00  0.00    +0.000 C 
ATOM     11  O   UNL     1       4.853   2.055  20.224  0.00  0.00    +0.000 OA
ATOM     12  H   UNL     1       2.970   4.440  19.309  0.00  0.00    +0.000 HD
BRANCH  10  13
ATOM     13  C   UNL     1       2.732   2.694  21.062  0.00  0.00    +0.000 C 
ATOM     14 CL   UNL     1       1.410   3.809  20.666  0.00  0.00    +0.000 Cl
ENDBRANCH  10  13
ENDBRANCH   3   9
BRANCH   1  16
ATOM     15  C   UNL     1       8.249   7.649  18.457  0.00  0.00    +0.000 C 
ATOM     16  O   UNL     1       7.703   6.398  18.881  0.00  0.00    +0.000 OA
ENDBRANCH   1  16
TORSDOF 3
ENDMDL
MODEL 9
REMARK VINA RESULT:      -6.2      3.247      5.231
REMARK  Name = 
REMARK  4 active torsions:
REMARK  status: ('A' for Active; 'I' for Inactive)
REMARK    1  A    between atoms: C_1  and  O_2
REMARK    2  A    between atoms: O_2  and  C_3
REMARK    3  A    between atoms: C_5  and  N_6
REMARK    4  A    between atoms: C_7  and  C_9
REMARK                            x       y       z     vdW  Elec       q    Type
REMARK                         _______ _______ _______ _____ _____    ______ ____
ROOT
ATOM      1  C   UNL     1       5.745   4.278  15.800  0.00  0.00    +0.000 A 
ATOM      2  C   UNL     1       4.661   3.818  16.652  0.00  0.00    +0.000 A 
ATOM      3  C   UNL     1       4.133   4.312  17.791  0.00  0.00    +0.000 A 
ATOM      4  C   UNL     1       4.580   5.525  18.438  0.00  0.00    +0.000 A 
ATOM      5  C   UNL     1       5.528   6.405  18.108  0.00  0.00    +0.000 A 
ATOM      6  C   UNL     1       6.449   6.441  16.970  0.00  0.00    +0.000 A 
ATOM      7  O   UNL     1       7.246   7.374  16.881  0.00  0.00    +0.000 OA
ATOM      8  C   UNL     1       6.473   5.395  15.942  0.00  0.00    +0.000 A 
ENDROOT
BRANCH   3   9
ATOM      9  N   UNL     1       3.099   3.573  18.368  0.00  0.00    +0.000 N 
ATOM     10  C   UNL     1       1.730   3.588  18.123  0.00  0.00    +0.000 C 
ATOM     11  O   UNL     1       1.155   4.250  17.263  0.00  0.00    +0.000 OA
ATOM     12  H   UNL     1       3.369   2.960  19.134  0.00  0.00    +0.000 HD
BRANCH  10  13
ATOM     13  C   UNL     1       0.914   2.616  18.960  0.00  0.00    +0.000 C 
ATOM     14 CL   UNL     1       1.132   2.877  20.701  0.00  0.00    +0.000 Cl
ENDBRANCH  10  13
ENDBRANCH   3   9
BRANCH   1  16
ATOM     15  C   UNL     1       6.299   3.889  13.485  0.00  0.00    +0.000 C 
ATOM     16  O   UNL     1       5.958   3.368  14.770  0.00  0.00    +0.000 OA
ENDBRANCH   1  16
TORSDOF 3
ENDMDL
