MODEL 1
REMARK VINA RESULT:      -8.7      0.000      0.000
REMARK  Name = 
REMARK  10 active torsions:
REMARK  status: ('A' for Active; 'I' for Inactive)
REMARK    1  A    between atoms: C_1  and  C_2
REMARK    2  A    between atoms: C_7  and  C_8
REMARK    3  A    between atoms: C_8  and  O_9
REMARK    4  A    between atoms: O_9  and  C_10
REMARK    5  A    between atoms: C_13  and  S_14
REMARK    6  A    between atoms: S_14  and  N_17
REMARK    7  A    between atoms: C_21  and  C_22
REMARK    8  A    between atoms: C_21  and  O_23
REMARK    9  A    between atoms: C_24  and  C_25
REMARK   10  A    between atoms: N_27  and  O_28
REMARK                            x       y       z     vdW  Elec       q    Type
REMARK                         _______ _______ _______ _____ _____    ______ ____
ROOT
ATOM      1  S   UNL     1       5.086   4.293  18.361  0.00  0.00    +0.000 S 
ATOM      2  O   UNL     1       4.939   3.505  17.150  0.00  0.00    +0.000 OA
ATOM      3  O   UNL     1       5.627   3.688  19.562  0.00  0.00    +0.000 OA
ENDROOT
BRANCH   1   4
ATOM      4  N   UNL     1       3.525   4.835  18.775  0.00  0.00    +0.000 NA
ATOM      5  C   UNL     1       2.525   5.072  17.728  0.00  0.00    +0.000 C 
ATOM      6  C   UNL     1       1.627   3.850  17.547  0.00  0.00    +0.000 C 
ATOM      7  C   UNL     1       1.233   3.075  18.819  0.00  0.00    +0.000 C 
ATOM      8  C   UNL     1       2.269   3.081  19.965  0.00  0.00    +0.000 C 
ATOM      9  C   UNL     1       1.645   2.563  21.269  0.00  0.00    +0.000 C 
ATOM     10  C   UNL     1       2.911   4.477  20.101  0.00  0.00    +0.000 C 
BRANCH  10  11
ATOM     11  C   UNL     1       1.880   5.536  20.561  0.00  0.00    +0.000 C 
ATOM     12  O   UNL     1       0.681   5.322  20.750  0.00  0.00    +0.000 OA
ATOM     13  N   UNL     1       2.372   6.804  20.774  0.00  0.00    +0.000 N 
ATOM     14  H   UNL     1       3.161   7.147  20.236  0.00  0.00    +0.000 HD
BRANCH  13  15
ATOM     15  O   UNL     1       1.370   7.759  21.083  0.00  0.00    +0.000 OA
ATOM     16  H   UNL     1       1.866   8.604  21.086  0.00  0.00    +0.000 HD
ENDBRANCH  13  15
ENDBRANCH  10  11
BRANCH   8  17
ATOM     17  O   UNL     1       3.302   2.133  19.636  0.00  0.00    +0.000 OA
ATOM     18  H   UNL     1       3.611   1.723  20.469  0.00  0.00    +0.000 HD
ENDBRANCH   8  17
ENDBRANCH   1   4
BRANCH   1  22
ATOM     19  C   UNL     1       7.809   8.003  17.690  0.00  0.00    +0.000 A 
ATOM     20  C   UNL     1       6.650   7.819  16.935  0.00  0.00    +0.000 A 
ATOM     21  C   UNL     1       5.847   6.674  17.110  0.00  0.00    +0.000 A 
ATOM     22  C   UNL     1       6.227   5.647  17.980  0.00  0.00    +0.000 A 
ATOM     23  C   UNL     1       7.392   5.828  18.741  0.00  0.00    +0.000 A 
ATOM     24  C   UNL     1       8.173   6.996  18.591  0.00  0.00    +0.000 A 
BRANCH  19  25
ATOM     25  O   UNL     1       8.641   9.097  17.620  0.00  0.00    +0.000 OA
BRANCH  25  26
ATOM     26  C   UNL     1       8.608   9.991  18.742  0.00  0.00    +0.000 C 
BRANCH  26  33
ATOM     27  C   UNL     1       7.784  12.477  17.239  0.00  0.00    +0.000 C 
ATOM     28  C   UNL     1       9.132  12.351  17.888  0.00  0.00    +0.000 A 
ATOM     29  N   UNL     1       9.916  13.461  17.810  0.00  0.00    +0.000 NA
ATOM     30  C   UNL     1      11.114  13.438  18.428  0.00  0.00    +0.000 A 
ATOM     31  C   UNL     1      11.586  12.345  19.124  0.00  0.00    +0.000 A 
ATOM     32  C   UNL     1      10.781  11.209  19.192  0.00  0.00    +0.000 A 
ATOM     33  C   UNL     1       9.522  11.190  18.569  0.00  0.00    +0.000 A 
ENDBRANCH  26  33
ENDBRANCH  25  26
ENDBRANCH  19  25
ENDBRANCH   1  22
TORSDOF 8
ENDMDL
MODEL 2
REMARK VINA RESULT:      -8.5      5.332      7.639
REMARK  Name = 
REMARK  10 active torsions:
REMARK  status: ('A' for Active; 'I' for Inactive)
REMARK    1  A    between atoms: C_1  and  C_2
REMARK    2  A    between atoms: C_7  and  C_8
REMARK    3  A    between atoms: C_8  and  O_9
REMARK    4  A    between atoms: O_9  and  C_10
REMARK    5  A    between atoms: C_13  and  S_14
REMARK    6  A    between atoms: S_14  and  N_17
REMARK    7  A    between atoms: C_21  and  C_22
REMARK    8  A    between atoms: C_21  and  O_23
REMARK    9  A    between atoms: C_24  and  C_25
REMARK   10  A    between atoms: N_27  and  O_28
REMARK                            x       y       z     vdW  Elec       q    Type
REMARK                         _______ _______ _______ _____ _____    ______ ____
ROOT
ATOM      1  S   UNL     1       3.546   5.886  18.607  0.00  0.00    +0.000 S 
ATOM      2  O   UNL     1       3.749   5.829  17.171  0.00  0.00    +0.000 OA
ATOM      3  O   UNL     1       4.684   5.925  19.503  0.00  0.00    +0.000 OA
ENDROOT
BRANCH   1   4
ATOM      4  N   UNL     1       2.672   4.484  19.025  0.00  0.00    +0.000 NA
ATOM      5  C   UNL     1       1.819   3.823  18.032  0.00  0.00    +0.000 C 
ATOM      6  C   UNL     1       2.566   2.681  17.348  0.00  0.00    +0.000 C 
ATOM      7  C   UNL     1       3.512   1.838  18.225  0.00  0.00    +0.000 C 
ATOM      8  C   UNL     1       4.188   2.579  19.399  0.00  0.00    +0.000 C 
ATOM      9  C   UNL     1       4.838   1.584  20.372  0.00  0.00    +0.000 C 
ATOM     10  C   UNL     1       3.188   3.539  20.075  0.00  0.00    +0.000 C 
BRANCH  10  11
ATOM     11  C   UNL     1       2.039   2.769  20.770  0.00  0.00    +0.000 C 
ATOM     12  O   UNL     1       1.177   2.107  20.188  0.00  0.00    +0.000 OA
ATOM     13  N   UNL     1       2.006   2.843  22.144  0.00  0.00    +0.000 N 
ATOM     14  H   UNL     1       2.349   3.670  22.623  0.00  0.00    +0.000 HD
BRANCH  13  15
ATOM     15  O   UNL     1       0.873   2.217  22.722  0.00  0.00    +0.000 OA
ATOM     16  H   UNL     1       1.212   1.902  23.585  0.00  0.00    +0.000 HD
ENDBRANCH  13  15
ENDBRANCH  10  11
BRANCH   8  17
ATOM     17  O   UNL     1       5.278   3.355  18.866  0.00  0.00    +0.000 OA
ATOM     18  H   UNL     1       6.109   2.866  19.037  0.00  0.00    +0.000 HD
ENDBRANCH   8  17
ENDBRANCH   1   4
BRANCH   1  22
ATOM     19  C   UNL     1       0.853   9.598  19.383  0.00  0.00    +0.000 A 
ATOM     20  C   UNL     1       1.471   9.407  18.147  0.00  0.00    +0.000 A 
ATOM     21  C   UNL     1       2.319   8.304  17.925  0.00  0.00    +0.000 A 
ATOM     22  C   UNL     1       2.639   7.415  18.956  0.00  0.00    +0.000 A 
ATOM     23  C   UNL     1       2.019   7.603  20.201  0.00  0.00    +0.000 A 
ATOM     24  C   UNL     1       1.138   8.688  20.408  0.00  0.00    +0.000 A 
BRANCH  19  25
ATOM     25  O   UNL     1      -0.016  10.620  19.692  0.00  0.00    +0.000 OA
BRANCH  25  26
ATOM     26  C   UNL     1      -0.414  11.464  18.602  0.00  0.00    +0.000 C 
BRANCH  26  33
ATOM     27  C   UNL     1      -2.806  12.670  19.994  0.00  0.00    +0.000 C 
ATOM     28  C   UNL     1      -2.950  11.790  18.786  0.00  0.00    +0.000 A 
ATOM     29  N   UNL     1      -4.223  11.640  18.330  0.00  0.00    +0.000 NA
ATOM     30  C   UNL     1      -4.417  10.914  17.210  0.00  0.00    +0.000 A 
ATOM     31  C   UNL     1      -3.391  10.310  16.513  0.00  0.00    +0.000 A 
ATOM     32  C   UNL     1      -2.091  10.461  16.993  0.00  0.00    +0.000 A 
ATOM     33  C   UNL     1      -1.841  11.214  18.151  0.00  0.00    +0.000 A 
ENDBRANCH  26  33
ENDBRANCH  25  26
ENDBRANCH  19  25
ENDBRANCH   1  22
TORSDOF 8
ENDMDL
MODEL 3
REMARK VINA RESULT:      -8.5      4.672      7.925
REMARK  Name = 
REMARK  10 active torsions:
REMARK  status: ('A' for Active; 'I' for Inactive)
REMARK    1  A    between atoms: C_1  and  C_2
REMARK    2  A    between atoms: C_7  and  C_8
REMARK    3  A    between atoms: C_8  and  O_9
REMARK    4  A    between atoms: O_9  and  C_10
REMARK    5  A    between atoms: C_13  and  S_14
REMARK    6  A    between atoms: S_14  and  N_17
REMARK    7  A    between atoms: C_21  and  C_22
REMARK    8  A    between atoms: C_21  and  O_23
REMARK    9  A    between atoms: C_24  and  C_25
REMARK   10  A    between atoms: N_27  and  O_28
REMARK                            x       y       z     vdW  Elec       q    Type
REMARK                         _______ _______ _______ _____ _____    ______ ____
ROOT
ATOM      1  S   UNL     1       0.834   9.051  21.075  0.00  0.00    +0.000 S 
ATOM      2  O   UNL     1      -0.492   8.552  21.393  0.00  0.00    +0.000 OA
ATOM      3  O   UNL     1       1.711   9.513  22.131  0.00  0.00    +0.000 OA
ENDROOT
BRANCH   1   4
ATOM      4  N   UNL     1       0.610  10.385  20.038  0.00  0.00    +0.000 NA
ATOM      5  C   UNL     1      -0.498  10.394  19.077  0.00  0.00    +0.000 C 
ATOM      6  C   UNL     1      -1.706  11.133  19.648  0.00  0.00    +0.000 C 
ATOM      7  C   UNL     1      -1.424  12.384  20.501  0.00  0.00    +0.000 C 
ATOM      8  C   UNL     1      -0.104  12.374  21.303  0.00  0.00    +0.000 C 
ATOM      9  C   UNL     1       0.216  13.775  21.845  0.00  0.00    +0.000 C 
ATOM     10  C   UNL     1       1.033  11.766  20.457  0.00  0.00    +0.000 C 
BRANCH  10  11
ATOM     11  C   UNL     1       1.377  12.656  19.238  0.00  0.00    +0.000 C 
ATOM     12  O   UNL     1       0.953  13.799  19.054  0.00  0.00    +0.000 OA
ATOM     13  N   UNL     1       2.228  12.104  18.308  0.00  0.00    +0.000 N 
ATOM     14  H   UNL     1       2.238  11.101  18.151  0.00  0.00    +0.000 HD
BRANCH  13  15
ATOM     15  O   UNL     1       2.420  12.914  17.160  0.00  0.00    +0.000 OA
ATOM     16  H   UNL     1       2.937  13.669  17.508  0.00  0.00    +0.000 HD
ENDBRANCH  13  15
ENDBRANCH  10  11
BRANCH   8  17
ATOM     17  O   UNL     1      -0.298  11.551  22.469  0.00  0.00    +0.000 OA
ATOM     18  H   UNL     1      -1.250  11.330  22.527  0.00  0.00    +0.000 HD
ENDBRANCH   8  17
ENDBRANCH   1   4
BRANCH   1  22
ATOM     19  C   UNL     1       2.784   5.451  18.868  0.00  0.00    +0.000 A 
ATOM     20  C   UNL     1       2.248   5.302  20.147  0.00  0.00    +0.000 A 
ATOM     21  C   UNL     1       1.694   6.402  20.832  0.00  0.00    +0.000 A 
ATOM     22  C   UNL     1       1.739   7.692  20.293  0.00  0.00    +0.000 A 
ATOM     23  C   UNL     1       2.278   7.846  19.006  0.00  0.00    +0.000 A 
ATOM     24  C   UNL     1       2.797   6.734  18.306  0.00  0.00    +0.000 A 
BRANCH  19  25
ATOM     25  O   UNL     1       3.317   4.439  18.103  0.00  0.00    +0.000 OA
BRANCH  25  26
ATOM     26  C   UNL     1       4.723   4.198  18.262  0.00  0.00    +0.000 C 
BRANCH  26  33
ATOM     27  C   UNL     1       7.577   5.182  18.292  0.00  0.00    +0.000 C 
ATOM     28  C   UNL     1       6.847   4.902  17.010  0.00  0.00    +0.000 A 
ATOM     29  N   UNL     1       7.586   5.055  15.878  0.00  0.00    +0.000 NA
ATOM     30  C   UNL     1       7.010   4.758  14.696  0.00  0.00    +0.000 A 
ATOM     31  C   UNL     1       5.709   4.318  14.578  0.00  0.00    +0.000 A 
ATOM     32  C   UNL     1       4.955   4.173  15.741  0.00  0.00    +0.000 A 
ATOM     33  C   UNL     1       5.515   4.464  16.995  0.00  0.00    +0.000 A 
ENDBRANCH  26  33
ENDBRANCH  25  26
ENDBRANCH  19  25
ENDBRANCH   1  22
TORSDOF 8
ENDMDL
MODEL 4
REMARK VINA RESULT:      -8.4      1.861      2.730
REMARK  Name = 
REMARK  10 active torsions:
REMARK  status: ('A' for Active; 'I' for Inactive)
REMARK    1  A    between atoms: C_1  and  C_2
REMARK    2  A    between atoms: C_7  and  C_8
REMARK    3  A    between atoms: C_8  and  O_9
REMARK    4  A    between atoms: O_9  and  C_10
REMARK    5  A    between atoms: C_13  and  S_14
REMARK    6  A    between atoms: S_14  and  N_17
REMARK    7  A    between atoms: C_21  and  C_22
REMARK    8  A    between atoms: C_21  and  O_23
REMARK    9  A    between atoms: C_24  and  C_25
REMARK   10  A    between atoms: N_27  and  O_28
REMARK                            x       y       z     vdW  Elec       q    Type
REMARK                         _______ _______ _______ _____ _____    ______ ____
ROOT
ATOM      1  S   UNL     1       4.542   5.172  17.525  0.00  0.00    +0.000 S 
ATOM      2  O   UNL     1       3.423   6.027  17.172  0.00  0.00    +0.000 OA
ATOM      3  O   UNL     1       4.948   4.101  16.638  0.00  0.00    +0.000 OA
ENDROOT
BRANCH   1   4
ATOM      4  N   UNL     1       4.129   4.424  18.999  0.00  0.00    +0.000 NA
ATOM      5  C   UNL     1       3.592   5.222  20.107  0.00  0.00    +0.000 C 
ATOM      6  C   UNL     1       2.066   5.187  20.112  0.00  0.00    +0.000 C 
ATOM      7  C   UNL     1       1.394   3.852  19.736  0.00  0.00    +0.000 C 
ATOM      8  C   UNL     1       2.161   2.967  18.728  0.00  0.00    +0.000 C 
ATOM      9  C   UNL     1       1.567   1.552  18.681  0.00  0.00    +0.000 C 
ATOM     10  C   UNL     1       3.672   2.991  19.035  0.00  0.00    +0.000 C 
BRANCH  10  11
ATOM     11  C   UNL     1       3.989   2.321  20.394  0.00  0.00    +0.000 C 
ATOM     12  O   UNL     1       3.253   2.341  21.383  0.00  0.00    +0.000 OA
ATOM     13  N   UNL     1       5.191   1.654  20.473  0.00  0.00    +0.000 N 
ATOM     14  H   UNL     1       5.988   1.963  19.925  0.00  0.00    +0.000 HD
BRANCH  13  15
ATOM     15  O   UNL     1       5.483   1.157  21.768  0.00  0.00    +0.000 OA
ATOM     16  H   UNL     1       5.580   1.973  22.300  0.00  0.00    +0.000 HD
ENDBRANCH  13  15
ENDBRANCH  10  11
BRANCH   8  17
ATOM     17  O   UNL     1       1.953   3.510  17.411  0.00  0.00    +0.000 OA
ATOM     18  H   UNL     1       2.343   2.889  16.763  0.00  0.00    +0.000 HD
ENDBRANCH   8  17
ENDBRANCH   1   4
BRANCH   1  22
ATOM     19  C   UNL     1       8.099   8.091  18.205  0.00  0.00    +0.000 A 
ATOM     20  C   UNL     1       7.060   8.417  17.332  0.00  0.00    +0.000 A 
ATOM     21  C   UNL     1       6.003   7.516  17.095  0.00  0.00    +0.000 A 
ATOM     22  C   UNL     1       6.002   6.235  17.656  0.00  0.00    +0.000 A 
ATOM     23  C   UNL     1       7.045   5.902  18.534  0.00  0.00    +0.000 A 
ATOM     24  C   UNL     1       8.083   6.824  18.800  0.00  0.00    +0.000 A 
BRANCH  19  25
ATOM     25  O   UNL     1       9.156   8.910  18.530  0.00  0.00    +0.000 OA
BRANCH  25  26
ATOM     26  C   UNL     1       9.058  10.273  18.091  0.00  0.00    +0.000 C 
BRANCH  26  33
ATOM     27  C   UNL     1      10.635  12.726  17.308  0.00  0.00    +0.000 C 
ATOM     28  C   UNL     1      10.318  12.409  18.741  0.00  0.00    +0.000 A 
ATOM     29  N   UNL     1      10.728  13.342  19.644  0.00  0.00    +0.000 NA
ATOM     30  C   UNL     1      10.420  13.151  20.942  0.00  0.00    +0.000 A 
ATOM     31  C   UNL     1       9.719  12.055  21.399  0.00  0.00    +0.000 A 
ATOM     32  C   UNL     1       9.310  11.100  20.471  0.00  0.00    +0.000 A 
ATOM     33  C   UNL     1       9.603  11.260  19.107  0.00  0.00    +0.000 A 
ENDBRANCH  26  33
ENDBRANCH  25  26
ENDBRANCH  19  25
ENDBRANCH   1  22
TORSDOF 8
ENDMDL
MODEL 5
REMARK VINA RESULT:      -8.3      1.834      2.735
REMARK  Name = 
REMARK  10 active torsions:
REMARK  status: ('A' for Active; 'I' for Inactive)
REMARK    1  A    between atoms: C_1  and  C_2
REMARK    2  A    between atoms: C_7  and  C_8
REMARK    3  A    between atoms: C_8  and  O_9
REMARK    4  A    between atoms: O_9  and  C_10
REMARK    5  A    between atoms: C_13  and  S_14
REMARK    6  A    between atoms: S_14  and  N_17
REMARK    7  A    between atoms: C_21  and  C_22
REMARK    8  A    between atoms: C_21  and  O_23
REMARK    9  A    between atoms: C_24  and  C_25
REMARK   10  A    between atoms: N_27  and  O_28
REMARK                            x       y       z     vdW  Elec       q    Type
REMARK                         _______ _______ _______ _____ _____    ______ ____
ROOT
ATOM      1  S   UNL     1       4.463   5.295  17.516  0.00  0.00    +0.000 S 
ATOM      2  O   UNL     1       3.369   6.202  17.218  0.00  0.00    +0.000 OA
ATOM      3  O   UNL     1       4.806   4.237  16.587  0.00  0.00    +0.000 OA
ENDROOT
BRANCH   1   4
ATOM      4  N   UNL     1       4.059   4.517  18.978  0.00  0.00    +0.000 NA
ATOM      5  C   UNL     1       3.529   5.293  20.104  0.00  0.00    +0.000 C 
ATOM      6  C   UNL     1       2.003   5.259  20.118  0.00  0.00    +0.000 C 
ATOM      7  C   UNL     1       1.328   3.932  19.720  0.00  0.00    +0.000 C 
ATOM      8  C   UNL     1       2.088   3.068  18.689  0.00  0.00    +0.000 C 
ATOM      9  C   UNL     1       1.492   1.655  18.617  0.00  0.00    +0.000 C 
ATOM     10  C   UNL     1       3.601   3.085  18.987  0.00  0.00    +0.000 C 
BRANCH  10  11
ATOM     11  C   UNL     1       3.926   2.387  20.330  0.00  0.00    +0.000 C 
ATOM     12  O   UNL     1       3.181   2.360  21.312  0.00  0.00    +0.000 OA
ATOM     13  N   UNL     1       5.144   1.751  20.401  0.00  0.00    +0.000 N 
ATOM     14  H   UNL     1       5.937   2.096  19.869  0.00  0.00    +0.000 HD
BRANCH  13  15
ATOM     15  O   UNL     1       5.440   1.227  21.685  0.00  0.00    +0.000 OA
ATOM     16  H   UNL     1       5.312   2.000  22.273  0.00  0.00    +0.000 HD
ENDBRANCH  13  15
ENDBRANCH  10  11
BRANCH   8  17
ATOM     17  O   UNL     1       1.872   3.638  17.384  0.00  0.00    +0.000 OA
ATOM     18  H   UNL     1       2.040   4.600  17.444  0.00  0.00    +0.000 HD
ENDBRANCH   8  17
ENDBRANCH   1   4
BRANCH   1  22
ATOM     19  C   UNL     1       8.140   8.063  18.185  0.00  0.00    +0.000 A 
ATOM     20  C   UNL     1       7.105   8.441  17.330  0.00  0.00    +0.000 A 
ATOM     21  C   UNL     1       6.010   7.585  17.096  0.00  0.00    +0.000 A 
ATOM     22  C   UNL     1       5.966   6.298  17.641  0.00  0.00    +0.000 A 
ATOM     23  C   UNL     1       7.006   5.913  18.502  0.00  0.00    +0.000 A 
ATOM     24  C   UNL     1       8.082   6.790  18.765  0.00  0.00    +0.000 A 
BRANCH  19  25
ATOM     25  O   UNL     1       9.233   8.835  18.506  0.00  0.00    +0.000 OA
BRANCH  25  26
ATOM     26  C   UNL     1       9.008   9.888  19.455  0.00  0.00    +0.000 C 
BRANCH  26  33
ATOM     27  C   UNL     1       9.487  12.121  21.429  0.00  0.00    +0.000 C 
ATOM     28  C   UNL     1       9.947  12.209  20.003  0.00  0.00    +0.000 A 
ATOM     29  N   UNL     1      10.654  13.330  19.692  0.00  0.00    +0.000 NA
ATOM     30  C   UNL     1      11.152  13.443  18.444  0.00  0.00    +0.000 A 
ATOM     31  C   UNL     1      10.973  12.485  17.469  0.00  0.00    +0.000 A 
ATOM     32  C   UNL     1      10.240  11.345  17.792  0.00  0.00    +0.000 A 
ATOM     33  C   UNL     1       9.708  11.181  19.081  0.00  0.00    +0.000 A 
ENDBRANCH  26  33
ENDBRANCH  25  26
ENDBRANCH  19  25
ENDBRANCH   1  22
TORSDOF 8
ENDMDL
MODEL 6
REMARK VINA RESULT:      -8.3      0.639      1.325
REMARK  Name = 
REMARK  10 active torsions:
REMARK  status: ('A' for Active; 'I' for Inactive)
REMARK    1  A    between atoms: C_1  and  C_2
REMARK    2  A    between atoms: C_7  and  C_8
REMARK    3  A    between atoms: C_8  and  O_9
REMARK    4  A    between atoms: O_9  and  C_10
REMARK    5  A    between atoms: C_13  and  S_14
REMARK    6  A    between atoms: S_14  and  N_17
REMARK    7  A    between atoms: C_21  and  C_22
REMARK    8  A    between atoms: C_21  and  O_23
REMARK    9  A    between atoms: C_24  and  C_25
REMARK   10  A    between atoms: N_27  and  O_28
REMARK                            x       y       z     vdW  Elec       q    Type
REMARK                         _______ _______ _______ _____ _____    ______ ____
ROOT
ATOM      1  S   UNL     1       5.125   4.348  18.437  0.00  0.00    +0.000 S 
ATOM      2  O   UNL     1       5.019   3.523  17.247  0.00  0.00    +0.000 OA
ATOM      3  O   UNL     1       5.640   3.787  19.670  0.00  0.00    +0.000 OA
ENDROOT
BRANCH   1   4
ATOM      4  N   UNL     1       3.547   4.884  18.794  0.00  0.00    +0.000 NA
ATOM      5  C   UNL     1       2.562   5.043  17.719  0.00  0.00    +0.000 C 
ATOM      6  C   UNL     1       1.690   3.796  17.592  0.00  0.00    +0.000 C 
ATOM      7  C   UNL     1       1.287   3.087  18.900  0.00  0.00    +0.000 C 
ATOM      8  C   UNL     1       2.302   3.177  20.061  0.00  0.00    +0.000 C 
ATOM      9  C   UNL     1       1.664   2.722  21.381  0.00  0.00    +0.000 C 
ATOM     10  C   UNL     1       2.916   4.590  20.127  0.00  0.00    +0.000 C 
BRANCH  10  11
ATOM     11  C   UNL     1       1.860   5.654  20.510  0.00  0.00    +0.000 C 
ATOM     12  O   UNL     1       0.671   5.421  20.739  0.00  0.00    +0.000 OA
ATOM     13  N   UNL     1       2.313   6.951  20.599  0.00  0.00    +0.000 N 
ATOM     14  H   UNL     1       3.083   7.268  20.018  0.00  0.00    +0.000 HD
BRANCH  13  15
ATOM     15  O   UNL     1       1.286   7.898  20.840  0.00  0.00    +0.000 OA
ATOM     16  H   UNL     1       1.101   8.254  19.946  0.00  0.00    +0.000 HD
ENDBRANCH  13  15
ENDBRANCH  10  11
BRANCH   8  17
ATOM     17  O   UNL     1       3.357   2.231  19.803  0.00  0.00    +0.000 OA
ATOM     18  H   UNL     1       4.159   2.734  19.554  0.00  0.00    +0.000 HD
ENDBRANCH   8  17
ENDBRANCH   1   4
BRANCH   1  22
ATOM     19  C   UNL     1       7.835   8.063  17.738  0.00  0.00    +0.000 A 
ATOM     20  C   UNL     1       6.672   7.873  16.990  0.00  0.00    +0.000 A 
ATOM     21  C   UNL     1       5.872   6.728  17.174  0.00  0.00    +0.000 A 
ATOM     22  C   UNL     1       6.260   5.704  18.045  0.00  0.00    +0.000 A 
ATOM     23  C   UNL     1       7.429   5.891  18.798  0.00  0.00    +0.000 A 
ATOM     24  C   UNL     1       8.207   7.059  18.640  0.00  0.00    +0.000 A 
BRANCH  19  25
ATOM     25  O   UNL     1       8.664   9.159  17.659  0.00  0.00    +0.000 OA
BRANCH  25  26
ATOM     26  C   UNL     1       8.896   9.866  18.886  0.00  0.00    +0.000 C 
BRANCH  26  33
ATOM     27  C   UNL     1      10.858  11.572  20.420  0.00  0.00    +0.000 C 
ATOM     28  C   UNL     1       9.937  12.155  19.388  0.00  0.00    +0.000 A 
ATOM     29  N   UNL     1      10.104  13.484  19.148  0.00  0.00    +0.000 NA
ATOM     30  C   UNL     1       9.353  14.058  18.187  0.00  0.00    +0.000 A 
ATOM     31  C   UNL     1       8.419  13.366  17.444  0.00  0.00    +0.000 A 
ATOM     32  C   UNL     1       8.246  12.008  17.702  0.00  0.00    +0.000 A 
ATOM     33  C   UNL     1       9.012  11.367  18.689  0.00  0.00    +0.000 A 
ENDBRANCH  26  33
ENDBRANCH  25  26
ENDBRANCH  19  25
ENDBRANCH   1  22
TORSDOF 8
ENDMDL
MODEL 7
REMARK VINA RESULT:      -8.3      5.275      7.337
REMARK  Name = 
REMARK  10 active torsions:
REMARK  status: ('A' for Active; 'I' for Inactive)
REMARK    1  A    between atoms: C_1  and  C_2
REMARK    2  A    between atoms: C_7  and  C_8
REMARK    3  A    between atoms: C_8  and  O_9
REMARK    4  A    between atoms: O_9  and  C_10
REMARK    5  A    between atoms: C_13  and  S_14
REMARK    6  A    between atoms: S_14  and  N_17
REMARK    7  A    between atoms: C_21  and  C_22
REMARK    8  A    between atoms: C_21  and  O_23
REMARK    9  A    between atoms: C_24  and  C_25
REMARK   10  A    between atoms: N_27  and  O_28
REMARK                            x       y       z     vdW  Elec       q    Type
REMARK                         _______ _______ _______ _____ _____    ______ ____
ROOT
ATOM      1  S   UNL     1       3.586   5.921  18.560  0.00  0.00    +0.000 S 
ATOM      2  O   UNL     1       3.823   5.839  17.130  0.00  0.00    +0.000 OA
ATOM      3  O   UNL     1       4.702   5.956  19.483  0.00  0.00    +0.000 OA
ENDROOT
BRANCH   1   4
ATOM      4  N   UNL     1       2.680   4.539  18.977  0.00  0.00    +0.000 NA
ATOM      5  C   UNL     1       1.839   3.878  17.973  0.00  0.00    +0.000 C 
ATOM      6  C   UNL     1       2.583   2.714  17.323  0.00  0.00    +0.000 C 
ATOM      7  C   UNL     1       3.495   1.869  18.234  0.00  0.00    +0.000 C 
ATOM      8  C   UNL     1       4.156   2.616  19.413  0.00  0.00    +0.000 C 
ATOM      9  C   UNL     1       4.766   1.625  20.414  0.00  0.00    +0.000 C 
ATOM     10  C   UNL     1       3.156   3.601  20.051  0.00  0.00    +0.000 C 
BRANCH  10  11
ATOM     11  C   UNL     1       1.979   2.860  20.730  0.00  0.00    +0.000 C 
ATOM     12  O   UNL     1       1.002   2.394  20.140  0.00  0.00    +0.000 OA
ATOM     13  N   UNL     1       2.060   2.721  22.097  0.00  0.00    +0.000 N 
ATOM     14  H   UNL     1       2.535   3.420  22.658  0.00  0.00    +0.000 HD
BRANCH  13  15
ATOM     15  O   UNL     1       0.906   2.137  22.679  0.00  0.00    +0.000 OA
ATOM     16  H   UNL     1       0.765   2.682  23.481  0.00  0.00    +0.000 HD
ENDBRANCH  13  15
ENDBRANCH  10  11
BRANCH   8  17
ATOM     17  O   UNL     1       5.271   3.367  18.894  0.00  0.00    +0.000 OA
ATOM     18  H   UNL     1       6.057   2.785  18.906  0.00  0.00    +0.000 HD
ENDBRANCH   8  17
ENDBRANCH   1   4
BRANCH   1  22
ATOM     19  C   UNL     1       0.936   9.689  19.203  0.00  0.00    +0.000 A 
ATOM     20  C   UNL     1       1.607   9.482  17.997  0.00  0.00    +0.000 A 
ATOM     21  C   UNL     1       2.442   8.361  17.816  0.00  0.00    +0.000 A 
ATOM     22  C   UNL     1       2.695   7.469  18.863  0.00  0.00    +0.000 A 
ATOM     23  C   UNL     1       2.023   7.674  20.078  0.00  0.00    +0.000 A 
ATOM     24  C   UNL     1       1.155   8.777  20.242  0.00  0.00    +0.000 A 
BRANCH  19  25
ATOM     25  O   UNL     1       0.075  10.730  19.469  0.00  0.00    +0.000 OA
BRANCH  25  26
ATOM     26  C   UNL     1       0.361  11.504  20.643  0.00  0.00    +0.000 C 
BRANCH  26  33
ATOM     27  C   UNL     1      -0.493  10.074  23.161  0.00  0.00    +0.000 C 
ATOM     28  C   UNL     1      -1.271  11.229  22.600  0.00  0.00    +0.000 A 
ATOM     29  N   UNL     1      -2.339  11.624  23.347  0.00  0.00    +0.000 NA
ATOM     30  C   UNL     1      -3.044  12.696  22.933  0.00  0.00    +0.000 A 
ATOM     31  C   UNL     1      -2.742  13.404  21.789  0.00  0.00    +0.000 A 
ATOM     32  C   UNL     1      -1.654  12.988  21.025  0.00  0.00    +0.000 A 
ATOM     33  C   UNL     1      -0.886  11.880  21.420  0.00  0.00    +0.000 A 
ENDBRANCH  26  33
ENDBRANCH  25  26
ENDBRANCH  19  25
ENDBRANCH   1  22
TORSDOF 8
ENDMDL
MODEL 8
REMARK VINA RESULT:      -8.3      5.289      7.694
REMARK  Name = 
REMARK  10 active torsions:
REMARK  status: ('A' for Active; 'I' for Inactive)
REMARK    1  A    between atoms: C_1  and  C_2
REMARK    2  A    between atoms: C_7  and  C_8
REMARK    3  A    between atoms: C_8  and  O_9
REMARK    4  A    between atoms: O_9  and  C_10
REMARK    5  A    between atoms: C_13  and  S_14
REMARK    6  A    between atoms: S_14  and  N_17
REMARK    7  A    between atoms: C_21  and  C_22
REMARK    8  A    between atoms: C_21  and  O_23
REMARK    9  A    between atoms: C_24  and  C_25
REMARK   10  A    between atoms: N_27  and  O_28
REMARK                            x       y       z     vdW  Elec       q    Type
REMARK                         _______ _______ _______ _____ _____    ______ ____
ROOT
ATOM      1  S   UNL     1       3.601   5.871  18.573  0.00  0.00    +0.000 S 
ATOM      2  O   UNL     1       3.872   5.766  17.150  0.00  0.00    +0.000 OA
ATOM      3  O   UNL     1       4.696   5.924  19.521  0.00  0.00    +0.000 OA
ENDROOT
BRANCH   1   4
ATOM      4  N   UNL     1       2.690   4.493  18.992  0.00  0.00    +0.000 NA
ATOM      5  C   UNL     1       1.863   3.821  17.983  0.00  0.00    +0.000 C 
ATOM      6  C   UNL     1       2.617   2.650  17.356  0.00  0.00    +0.000 C 
ATOM      7  C   UNL     1       3.515   1.815  18.289  0.00  0.00    +0.000 C 
ATOM      8  C   UNL     1       4.159   2.575  19.469  0.00  0.00    +0.000 C 
ATOM      9  C   UNL     1       4.755   1.594  20.490  0.00  0.00    +0.000 C 
ATOM     10  C   UNL     1       3.150   3.566  20.083  0.00  0.00    +0.000 C 
BRANCH  10  11
ATOM     11  C   UNL     1       1.963   2.832  20.752  0.00  0.00    +0.000 C 
ATOM     12  O   UNL     1       1.050   2.266  20.148  0.00  0.00    +0.000 OA
ATOM     13  N   UNL     1       1.958   2.822  22.128  0.00  0.00    +0.000 N 
ATOM     14  H   UNL     1       2.363   3.592  22.650  0.00  0.00    +0.000 HD
BRANCH  13  15
ATOM     15  O   UNL     1       0.794   2.237  22.689  0.00  0.00    +0.000 OA
ATOM     16  H   UNL     1       0.403   2.974  23.201  0.00  0.00    +0.000 HD
ENDBRANCH  13  15
ENDBRANCH  10  11
BRANCH   8  17
ATOM     17  O   UNL     1       5.281   3.320  18.959  0.00  0.00    +0.000 OA
ATOM     18  H   UNL     1       5.908   2.685  18.558  0.00  0.00    +0.000 HD
ENDBRANCH   8  17
ENDBRANCH   1   4
BRANCH   1  22
ATOM     19  C   UNL     1       0.927   9.640  19.097  0.00  0.00    +0.000 A 
ATOM     20  C   UNL     1       1.617   9.411  17.906  0.00  0.00    +0.000 A 
ATOM     21  C   UNL     1       2.459   8.290  17.762  0.00  0.00    +0.000 A 
ATOM     22  C   UNL     1       2.700   7.420  18.831  0.00  0.00    +0.000 A 
ATOM     23  C   UNL     1       2.008   7.647  20.030  0.00  0.00    +0.000 A 
ATOM     24  C   UNL     1       1.134   8.750  20.158  0.00  0.00    +0.000 A 
BRANCH  19  25
ATOM     25  O   UNL     1       0.058  10.682  19.328  0.00  0.00    +0.000 OA
BRANCH  25  26
ATOM     26  C   UNL     1      -0.847  11.000  18.261  0.00  0.00    +0.000 C 
BRANCH  26  33
ATOM     27  C   UNL     1      -3.496  10.388  16.948  0.00  0.00    +0.000 C 
ATOM     28  C   UNL     1      -3.393  11.275  18.155  0.00  0.00    +0.000 A 
ATOM     29  N   UNL     1      -4.582  11.717  18.649  0.00  0.00    +0.000 NA
ATOM     30  C   UNL     1      -4.566  12.466  19.770  0.00  0.00    +0.000 A 
ATOM     31  C   UNL     1      -3.407  12.813  20.432  0.00  0.00    +0.000 A 
ATOM     32  C   UNL     1      -2.194  12.364  19.914  0.00  0.00    +0.000 A 
ATOM     33  C   UNL     1      -2.162  11.575  18.753  0.00  0.00    +0.000 A 
ENDBRANCH  26  33
ENDBRANCH  25  26
ENDBRANCH  19  25
ENDBRANCH   1  22
TORSDOF 8
ENDMDL
MODEL 9
REMARK VINA RESULT:      -8.2      0.957      1.501
REMARK  Name = 
REMARK  10 active torsions:
REMARK  status: ('A' for Active; 'I' for Inactive)
REMARK    1  A    between atoms: C_1  and  C_2
REMARK    2  A    between atoms: C_7  and  C_8
REMARK    3  A    between atoms: C_8  and  O_9
REMARK    4  A    between atoms: O_9  and  C_10
REMARK    5  A    between atoms: C_13  and  S_14
REMARK    6  A    between atoms: S_14  and  N_17
REMARK    7  A    between atoms: C_21  and  C_22
REMARK    8  A    between atoms: C_21  and  O_23
REMARK    9  A    between atoms: C_24  and  C_25
REMARK   10  A    between atoms: N_27  and  O_28
REMARK                            x       y       z     vdW  Elec       q    Type
REMARK                         _______ _______ _______ _____ _____    ______ ____
ROOT
ATOM      1  S   UNL     1       5.245   4.440  18.087  0.00  0.00    +0.000 S 
ATOM      2  O   UNL     1       5.184   4.084  16.681  0.00  0.00    +0.000 OA
ATOM      3  O   UNL     1       5.830   3.524  19.045  0.00  0.00    +0.000 OA
ENDROOT
BRANCH   1   4
ATOM      4  N   UNL     1       3.635   4.677  18.593  0.00  0.00    +0.000 NA
ATOM      5  C   UNL     1       2.530   4.505  17.644  0.00  0.00    +0.000 C 
ATOM      6  C   UNL     1       1.942   3.100  17.743  0.00  0.00    +0.000 C 
ATOM      7  C   UNL     1       1.845   2.479  19.150  0.00  0.00    +0.000 C 
ATOM      8  C   UNL     1       2.933   2.908  20.158  0.00  0.00    +0.000 C 
ATOM      9  C   UNL     1       2.553   2.487  21.585  0.00  0.00    +0.000 C 
ATOM     10  C   UNL     1       3.229   4.415  20.017  0.00  0.00    +0.000 C 
BRANCH  10  11
ATOM     11  C   UNL     1       2.012   5.277  20.435  0.00  0.00    +0.000 C 
ATOM     12  O   UNL     1       0.866   4.853  20.594  0.00  0.00    +0.000 OA
ATOM     13  N   UNL     1       2.262   6.614  20.644  0.00  0.00    +0.000 N 
ATOM     14  H   UNL     1       2.993   7.089  20.123  0.00  0.00    +0.000 HD
BRANCH  13  15
ATOM     15  O   UNL     1       1.097   7.376  20.913  0.00  0.00    +0.000 OA
ATOM     16  H   UNL     1       1.300   8.241  20.499  0.00  0.00    +0.000 HD
ENDBRANCH  13  15
ENDBRANCH  10  11
BRANCH   8  17
ATOM     17  O   UNL     1       4.136   2.176  19.853  0.00  0.00    +0.000 OA
ATOM     18  H   UNL     1       4.804   2.815  19.532  0.00  0.00    +0.000 HD
ENDBRANCH   8  17
ENDBRANCH   1   4
BRANCH   1  22
ATOM     19  C   UNL     1       8.070   8.135  18.073  0.00  0.00    +0.000 A 
ATOM     20  C   UNL     1       8.343   7.027  18.876  0.00  0.00    +0.000 A 
ATOM     21  C   UNL     1       7.466   5.925  18.911  0.00  0.00    +0.000 A 
ATOM     22  C   UNL     1       6.254   5.939  18.213  0.00  0.00    +0.000 A 
ATOM     23  C   UNL     1       5.975   7.051  17.403  0.00  0.00    +0.000 A 
ATOM     24  C   UNL     1       6.876   8.137  17.340  0.00  0.00    +0.000 A 
BRANCH  19  25
ATOM     25  O   UNL     1       8.875   9.244  17.942  0.00  0.00    +0.000 OA
BRANCH  25  26
ATOM     26  C   UNL     1       9.041  10.047  19.119  0.00  0.00    +0.000 C 
BRANCH  26  33
ATOM     27  C   UNL     1       9.720  12.021  21.301  0.00  0.00    +0.000 C 
ATOM     28  C   UNL     1      10.271  12.153  19.910  0.00  0.00    +0.000 A 
ATOM     29  N   UNL     1      11.148  13.178  19.731  0.00  0.00    +0.000 NA
ATOM     30  C   UNL     1      11.729  13.316  18.523  0.00  0.00    +0.000 A 
ATOM     31  C   UNL     1      11.471  12.476  17.460  0.00  0.00    +0.000 A 
ATOM     32  C   UNL     1      10.565  11.434  17.648  0.00  0.00    +0.000 A 
ATOM     33  C   UNL     1       9.940  11.248  18.892  0.00  0.00    +0.000 A 
ENDBRANCH  26  33
ENDBRANCH  25  26
ENDBRANCH  19  25
ENDBRANCH   1  22
TORSDOF 8
ENDMDL
