MODEL 1
REMARK VINA RESULT:      -7.8      0.000      0.000
REMARK  Name = 
REMARK  4 active torsions:
REMARK  status: ('A' for Active; 'I' for Inactive)
REMARK    1  A    between atoms: C_1  and  O_2
REMARK    2  A    between atoms: O_2  and  C_3
REMARK    3  A    between atoms: C_6  and  N_7
REMARK    4  A    between atoms: C_13  and  C_14
REMARK                            x       y       z     vdW  Elec       q    Type
REMARK                         _______ _______ _______ _____ _____    ______ ____
ROOT
ATOM      1  N   UNL     1       3.732   5.081  17.728  0.00  0.00    +0.000 N 
ATOM      2  C   UNL     1       3.546   3.730  17.994  0.00  0.00    +0.000 C 
ATOM      3  O   UNL     1       2.758   3.217  18.774  0.00  0.00    +0.000 OA
ATOM      4  N   UNL     1       4.374   3.026  17.180  0.00  0.00    +0.000 N 
ATOM      5  C   UNL     1       5.134   3.855  16.414  0.00  0.00    +0.000 C 
ATOM      6  O   UNL     1       5.942   3.478  15.579  0.00  0.00    +0.000 OA
ATOM      7  C   UNL     1       4.838   5.306  16.816  0.00  0.00    +0.000 C 
ATOM      8  H   UNL     1       4.395   2.021  17.134  0.00  0.00    +0.000 HD
ENDROOT
BRANCH   1  12
ATOM      9  C   UNL     1       1.774   8.246  19.687  0.00  0.00    +0.000 A 
ATOM     10  C   UNL     1       2.046   7.058  20.367  0.00  0.00    +0.000 A 
ATOM     11  C   UNL     1       2.677   5.996  19.715  0.00  0.00    +0.000 A 
ATOM     12  C   UNL     1       3.067   6.130  18.383  0.00  0.00    +0.000 A 
ATOM     13  C   UNL     1       2.800   7.318  17.700  0.00  0.00    +0.000 A 
ATOM     14  C   UNL     1       2.127   8.364  18.343  0.00  0.00    +0.000 A 
BRANCH   9  16
ATOM     15  C   UNL     1       1.148   9.015  21.832  0.00  0.00    +0.000 C 
ATOM     16  O   UNL     1       1.129   9.203  20.422  0.00  0.00    +0.000 OA
ENDBRANCH   9  16
ENDBRANCH   1  12
BRANCH   7  17
ATOM     17  C   UNL     1       6.043   5.955  17.479  0.00  0.00    +0.000 A 
ATOM     18  C   UNL     1       6.690   5.313  18.544  0.00  0.00    +0.000 A 
ATOM     19  C   UNL     1       7.793   5.906  19.164  0.00  0.00    +0.000 A 
ATOM     20  C   UNL     1       8.266   7.141  18.728  0.00  0.00    +0.000 A 
ATOM     21  C   UNL     1       7.641   7.789  17.668  0.00  0.00    +0.000 A 
ATOM     22  C   UNL     1       6.537   7.202  17.048  0.00  0.00    +0.000 A 
ENDBRANCH   7  17
TORSDOF 3
ENDMDL
MODEL 2
REMARK VINA RESULT:      -7.8      0.059      1.054
REMARK  Name = 
REMARK  4 active torsions:
REMARK  status: ('A' for Active; 'I' for Inactive)
REMARK    1  A    between atoms: C_1  and  O_2
REMARK    2  A    between atoms: O_2  and  C_3
REMARK    3  A    between atoms: C_6  and  N_7
REMARK    4  A    between atoms: C_13  and  C_14
REMARK                            x       y       z     vdW  Elec       q    Type
REMARK                         _______ _______ _______ _____ _____    ______ ____
ROOT
ATOM      1  N   UNL     1       3.734   5.118  17.708  0.00  0.00    +0.000 N 
ATOM      2  C   UNL     1       3.534   3.770  17.979  0.00  0.00    +0.000 C 
ATOM      3  O   UNL     1       2.733   3.267  18.753  0.00  0.00    +0.000 OA
ATOM      4  N   UNL     1       4.365   3.055  17.178  0.00  0.00    +0.000 N 
ATOM      5  C   UNL     1       5.140   3.874  16.416  0.00  0.00    +0.000 C 
ATOM      6  O   UNL     1       5.954   3.487  15.591  0.00  0.00    +0.000 OA
ATOM      7  C   UNL     1       4.851   5.330  16.808  0.00  0.00    +0.000 C 
ATOM      8  H   UNL     1       4.379   2.050  17.137  0.00  0.00    +0.000 HD
ENDROOT
BRANCH   1  12
ATOM      9  C   UNL     1       1.779   8.308  19.630  0.00  0.00    +0.000 A 
ATOM     10  C   UNL     1       2.022   7.117  20.314  0.00  0.00    +0.000 A 
ATOM     11  C   UNL     1       2.652   6.046  19.675  0.00  0.00    +0.000 A 
ATOM     12  C   UNL     1       3.070   6.175  18.351  0.00  0.00    +0.000 A 
ATOM     13  C   UNL     1       2.832   7.368  17.663  0.00  0.00    +0.000 A 
ATOM     14  C   UNL     1       2.160   8.421  18.293  0.00  0.00    +0.000 A 
BRANCH   9  16
ATOM     15  C   UNL     1       1.089   9.065  21.759  0.00  0.00    +0.000 C 
ATOM     16  O   UNL     1       1.132   9.273  20.352  0.00  0.00    +0.000 OA
ENDBRANCH   9  16
ENDBRANCH   1  12
BRANCH   7  17
ATOM     17  C   UNL     1       6.054   5.973  17.481  0.00  0.00    +0.000 A 
ATOM     18  C   UNL     1       6.520   7.221  17.045  0.00  0.00    +0.000 A 
ATOM     19  C   UNL     1       7.629   7.815  17.653  0.00  0.00    +0.000 A 
ATOM     20  C   UNL     1       8.282   7.176  18.704  0.00  0.00    +0.000 A 
ATOM     21  C   UNL     1       7.828   5.942  19.155  0.00  0.00    +0.000 A 
ATOM     22  C   UNL     1       6.723   5.344  18.549  0.00  0.00    +0.000 A 
ENDBRANCH   7  17
TORSDOF 3
ENDMDL
MODEL 3
REMARK VINA RESULT:      -7.7      0.535      1.238
REMARK  Name = 
REMARK  4 active torsions:
REMARK  status: ('A' for Active; 'I' for Inactive)
REMARK    1  A    between atoms: C_1  and  O_2
REMARK    2  A    between atoms: O_2  and  C_3
REMARK    3  A    between atoms: C_6  and  N_7
REMARK    4  A    between atoms: C_13  and  C_14
REMARK                            x       y       z     vdW  Elec       q    Type
REMARK                         _______ _______ _______ _____ _____    ______ ____
ROOT
ATOM      1  N   UNL     1       3.752   5.121  17.717  0.00  0.00    +0.000 N 
ATOM      2  C   UNL     1       3.554   3.776  17.999  0.00  0.00    +0.000 C 
ATOM      3  O   UNL     1       2.758   3.279  18.782  0.00  0.00    +0.000 OA
ATOM      4  N   UNL     1       4.382   3.054  17.200  0.00  0.00    +0.000 N 
ATOM      5  C   UNL     1       5.152   3.867  16.427  0.00  0.00    +0.000 C 
ATOM      6  O   UNL     1       5.962   3.473  15.601  0.00  0.00    +0.000 OA
ATOM      7  C   UNL     1       4.865   5.326  16.808  0.00  0.00    +0.000 C 
ATOM      8  H   UNL     1       4.395   2.049  17.167  0.00  0.00    +0.000 HD
ENDROOT
BRANCH   1  12
ATOM      9  C   UNL     1       1.738   8.280  19.628  0.00  0.00    +0.000 A 
ATOM     10  C   UNL     1       2.144   8.406  18.298  0.00  0.00    +0.000 A 
ATOM     11  C   UNL     1       2.832   7.368  17.665  0.00  0.00    +0.000 A 
ATOM     12  C   UNL     1       3.091   6.184  18.354  0.00  0.00    +0.000 A 
ATOM     13  C   UNL     1       2.683   6.052  19.683  0.00  0.00    +0.000 A 
ATOM     14  C   UNL     1       2.033   7.111  20.328  0.00  0.00    +0.000 A 
BRANCH   9  16
ATOM     15  C   UNL     1       0.371  10.163  19.212  0.00  0.00    +0.000 C 
ATOM     16  O   UNL     1       1.097   9.372  20.147  0.00  0.00    +0.000 OA
ENDBRANCH   9  16
ENDBRANCH   1  12
BRANCH   7  17
ATOM     17  C   UNL     1       6.070   5.975  17.469  0.00  0.00    +0.000 A 
ATOM     18  C   UNL     1       6.715   5.336  18.537  0.00  0.00    +0.000 A 
ATOM     19  C   UNL     1       7.819   5.929  19.155  0.00  0.00    +0.000 A 
ATOM     20  C   UNL     1       8.295   7.162  18.715  0.00  0.00    +0.000 A 
ATOM     21  C   UNL     1       7.673   7.806  17.651  0.00  0.00    +0.000 A 
ATOM     22  C   UNL     1       6.568   7.219  17.033  0.00  0.00    +0.000 A 
ENDBRANCH   7  17
TORSDOF 3
ENDMDL
MODEL 4
REMARK VINA RESULT:      -7.6      0.170      1.496
REMARK  Name = 
REMARK  4 active torsions:
REMARK  status: ('A' for Active; 'I' for Inactive)
REMARK    1  A    between atoms: C_1  and  O_2
REMARK    2  A    between atoms: O_2  and  C_3
REMARK    3  A    between atoms: C_6  and  N_7
REMARK    4  A    between atoms: C_13  and  C_14
REMARK                            x       y       z     vdW  Elec       q    Type
REMARK                         _______ _______ _______ _____ _____    ______ ____
ROOT
ATOM      1  N   UNL     1       3.702   5.104  17.712  0.00  0.00    +0.000 N 
ATOM      2  C   UNL     1       3.565   3.742  17.945  0.00  0.00    +0.000 C 
ATOM      3  O   UNL     1       2.820   3.183  18.736  0.00  0.00    +0.000 OA
ATOM      4  N   UNL     1       4.387   3.086  17.085  0.00  0.00    +0.000 N 
ATOM      5  C   UNL     1       5.094   3.959  16.318  0.00  0.00    +0.000 C 
ATOM      6  O   UNL     1       5.885   3.631  15.446  0.00  0.00    +0.000 OA
ATOM      7  C   UNL     1       4.768   5.389  16.770  0.00  0.00    +0.000 C 
ATOM      8  H   UNL     1       4.437   2.084  17.009  0.00  0.00    +0.000 HD
ENDROOT
BRANCH   1  12
ATOM      9  C   UNL     1       1.648   8.103  19.829  0.00  0.00    +0.000 A 
ATOM     10  C   UNL     1       2.031   8.313  18.503  0.00  0.00    +0.000 A 
ATOM     11  C   UNL     1       2.732   7.329  17.802  0.00  0.00    +0.000 A 
ATOM     12  C   UNL     1       3.027   6.114  18.418  0.00  0.00    +0.000 A 
ATOM     13  C   UNL     1       2.643   5.897  19.743  0.00  0.00    +0.000 A 
ATOM     14  C   UNL     1       1.980   6.903  20.457  0.00  0.00    +0.000 A 
BRANCH   9  16
ATOM     15  C   UNL     1       0.950   9.127  21.841  0.00  0.00    +0.000 C 
ATOM     16  O   UNL     1       0.992   9.148  20.419  0.00  0.00    +0.000 OA
ENDBRANCH   9  16
ENDBRANCH   1  12
BRANCH   7  17
ATOM     17  C   UNL     1       5.974   6.057  17.411  0.00  0.00    +0.000 A 
ATOM     18  C   UNL     1       6.359   7.345  17.014  0.00  0.00    +0.000 A 
ATOM     19  C   UNL     1       7.471   7.963  17.592  0.00  0.00    +0.000 A 
ATOM     20  C   UNL     1       8.208   7.308  18.576  0.00  0.00    +0.000 A 
ATOM     21  C   UNL     1       7.836   6.034  18.989  0.00  0.00    +0.000 A 
ATOM     22  C   UNL     1       6.728   5.412  18.411  0.00  0.00    +0.000 A 
ENDBRANCH   7  17
TORSDOF 3
ENDMDL
MODEL 5
REMARK VINA RESULT:      -7.4      2.237      4.261
REMARK  Name = 
REMARK  4 active torsions:
REMARK  status: ('A' for Active; 'I' for Inactive)
REMARK    1  A    between atoms: C_1  and  O_2
REMARK    2  A    between atoms: O_2  and  C_3
REMARK    3  A    between atoms: C_6  and  N_7
REMARK    4  A    between atoms: C_13  and  C_14
REMARK                            x       y       z     vdW  Elec       q    Type
REMARK                         _______ _______ _______ _____ _____    ______ ____
ROOT
ATOM      1  N   UNL     1       3.771   6.547  18.577  0.00  0.00    +0.000 N 
ATOM      2  C   UNL     1       4.564   6.433  17.443  0.00  0.00    +0.000 C 
ATOM      3  O   UNL     1       4.571   7.149  16.452  0.00  0.00    +0.000 OA
ATOM      4  N   UNL     1       5.409   5.386  17.627  0.00  0.00    +0.000 N 
ATOM      5  C   UNL     1       5.181   4.774  18.820  0.00  0.00    +0.000 C 
ATOM      6  O   UNL     1       5.820   3.822  19.243  0.00  0.00    +0.000 OA
ATOM      7  C   UNL     1       3.976   5.443  19.496  0.00  0.00    +0.000 C 
ATOM      8  H   UNL     1       6.128   5.123  16.974  0.00  0.00    +0.000 HD
ENDROOT
BRANCH   1  12
ATOM      9  C   UNL     1       0.765   9.440  19.114  0.00  0.00    +0.000 A 
ATOM     10  C   UNL     1       1.155   8.624  20.177  0.00  0.00    +0.000 A 
ATOM     11  C   UNL     1       2.137   7.647  19.999  0.00  0.00    +0.000 A 
ATOM     12  C   UNL     1       2.758   7.503  18.758  0.00  0.00    +0.000 A 
ATOM     13  C   UNL     1       2.374   8.320  17.693  0.00  0.00    +0.000 A 
ATOM     14  C   UNL     1       1.358   9.267  17.863  0.00  0.00    +0.000 A 
BRANCH   9  16
ATOM     15  C   UNL     1      -1.273  10.432  18.446  0.00  0.00    +0.000 C 
ATOM     16  O   UNL     1      -0.224  10.340  19.403  0.00  0.00    +0.000 OA
ENDBRANCH   9  16
ENDBRANCH   1  12
BRANCH   7  17
ATOM     17  C   UNL     1       2.788   4.497  19.576  0.00  0.00    +0.000 A 
ATOM     18  C   UNL     1       2.259   4.136  20.822  0.00  0.00    +0.000 A 
ATOM     19  C   UNL     1       1.173   3.262  20.905  0.00  0.00    +0.000 A 
ATOM     20  C   UNL     1       0.598   2.741  19.748  0.00  0.00    +0.000 A 
ATOM     21  C   UNL     1       1.105   3.095  18.502  0.00  0.00    +0.000 A 
ATOM     22  C   UNL     1       2.192   3.966  18.416  0.00  0.00    +0.000 A 
ENDBRANCH   7  17
TORSDOF 3
ENDMDL
MODEL 6
REMARK VINA RESULT:      -7.4      2.235      4.335
REMARK  Name = 
REMARK  4 active torsions:
REMARK  status: ('A' for Active; 'I' for Inactive)
REMARK    1  A    between atoms: C_1  and  O_2
REMARK    2  A    between atoms: O_2  and  C_3
REMARK    3  A    between atoms: C_6  and  N_7
REMARK    4  A    between atoms: C_13  and  C_14
REMARK                            x       y       z     vdW  Elec       q    Type
REMARK                         _______ _______ _______ _____ _____    ______ ____
ROOT
ATOM      1  N   UNL     1       3.774   6.555  18.581  0.00  0.00    +0.000 N 
ATOM      2  C   UNL     1       4.573   6.445  17.450  0.00  0.00    +0.000 C 
ATOM      3  O   UNL     1       4.584   7.164  16.462  0.00  0.00    +0.000 OA
ATOM      4  N   UNL     1       5.419   5.400  17.637  0.00  0.00    +0.000 N 
ATOM      5  C   UNL     1       5.186   4.784  18.828  0.00  0.00    +0.000 C 
ATOM      6  O   UNL     1       5.825   3.833  19.252  0.00  0.00    +0.000 OA
ATOM      7  C   UNL     1       3.976   5.450  19.498  0.00  0.00    +0.000 C 
ATOM      8  H   UNL     1       6.143   5.139  16.987  0.00  0.00    +0.000 HD
ENDROOT
BRANCH   1  12
ATOM      9  C   UNL     1       0.759   9.441  19.108  0.00  0.00    +0.000 A 
ATOM     10  C   UNL     1       1.149   8.627  20.173  0.00  0.00    +0.000 A 
ATOM     11  C   UNL     1       2.134   7.652  19.998  0.00  0.00    +0.000 A 
ATOM     12  C   UNL     1       2.758   7.509  18.759  0.00  0.00    +0.000 A 
ATOM     13  C   UNL     1       2.374   8.324  17.692  0.00  0.00    +0.000 A 
ATOM     14  C   UNL     1       1.355   9.269  17.859  0.00  0.00    +0.000 A 
BRANCH   9  16
ATOM     15  C   UNL     1      -1.256  10.461  18.413  0.00  0.00    +0.000 C 
ATOM     16  O   UNL     1      -0.233  10.339  19.394  0.00  0.00    +0.000 OA
ENDBRANCH   9  16
ENDBRANCH   1  12
BRANCH   7  17
ATOM     17  C   UNL     1       2.790   4.501  19.570  0.00  0.00    +0.000 A 
ATOM     18  C   UNL     1       2.239   3.975  18.394  0.00  0.00    +0.000 A 
ATOM     19  C   UNL     1       1.144   3.109  18.449  0.00  0.00    +0.000 A 
ATOM     20  C   UNL     1       0.589   2.754  19.677  0.00  0.00    +0.000 A 
ATOM     21  C   UNL     1       1.128   3.260  20.854  0.00  0.00    +0.000 A 
ATOM     22  C   UNL     1       2.220   4.128  20.802  0.00  0.00    +0.000 A 
ENDBRANCH   7  17
TORSDOF 3
ENDMDL
MODEL 7
REMARK VINA RESULT:      -7.4      2.230      4.393
REMARK  Name = 
REMARK  4 active torsions:
REMARK  status: ('A' for Active; 'I' for Inactive)
REMARK    1  A    between atoms: C_1  and  O_2
REMARK    2  A    between atoms: O_2  and  C_3
REMARK    3  A    between atoms: C_6  and  N_7
REMARK    4  A    between atoms: C_13  and  C_14
REMARK                            x       y       z     vdW  Elec       q    Type
REMARK                         _______ _______ _______ _____ _____    ______ ____
ROOT
ATOM      1  N   UNL     1       3.789   6.552  18.560  0.00  0.00    +0.000 N 
ATOM      2  C   UNL     1       4.587   6.430  17.430  0.00  0.00    +0.000 C 
ATOM      3  O   UNL     1       4.602   7.143  16.438  0.00  0.00    +0.000 OA
ATOM      4  N   UNL     1       5.425   5.379  17.621  0.00  0.00    +0.000 N 
ATOM      5  C   UNL     1       5.188   4.771  18.815  0.00  0.00    +0.000 C 
ATOM      6  O   UNL     1       5.820   3.817  19.244  0.00  0.00    +0.000 OA
ATOM      7  C   UNL     1       3.984   5.449  19.483  0.00  0.00    +0.000 C 
ATOM      8  H   UNL     1       6.146   5.109  16.972  0.00  0.00    +0.000 HD
ENDROOT
BRANCH   1  12
ATOM      9  C   UNL     1       0.742   9.403  19.089  0.00  0.00    +0.000 A 
ATOM     10  C   UNL     1       1.362   9.257  17.847  0.00  0.00    +0.000 A 
ATOM     11  C   UNL     1       2.389   8.326  17.672  0.00  0.00    +0.000 A 
ATOM     12  C   UNL     1       2.781   7.514  18.735  0.00  0.00    +0.000 A 
ATOM     13  C   UNL     1       2.161   7.654  19.978  0.00  0.00    +0.000 A 
ATOM     14  C   UNL     1       1.163   8.618  20.163  0.00  0.00    +0.000 A 
BRANCH   9  16
ATOM     15  C   UNL     1      -1.188  10.334  18.094  0.00  0.00    +0.000 C 
ATOM     16  O   UNL     1      -0.230  10.364  19.146  0.00  0.00    +0.000 OA
ENDBRANCH   9  16
ENDBRANCH   1  12
BRANCH   7  17
ATOM     17  C   UNL     1       2.790   4.511  19.561  0.00  0.00    +0.000 A 
ATOM     18  C   UNL     1       2.254   4.156  20.806  0.00  0.00    +0.000 A 
ATOM     19  C   UNL     1       1.162   3.288  20.887  0.00  0.00    +0.000 A 
ATOM     20  C   UNL     1       0.590   2.768  19.728  0.00  0.00    +0.000 A 
ATOM     21  C   UNL     1       1.104   3.115  18.484  0.00  0.00    +0.000 A 
ATOM     22  C   UNL     1       2.196   3.979  18.400  0.00  0.00    +0.000 A 
ENDBRANCH   7  17
TORSDOF 3
ENDMDL
MODEL 8
REMARK VINA RESULT:      -7.3      2.227      4.456
REMARK  Name = 
REMARK  4 active torsions:
REMARK  status: ('A' for Active; 'I' for Inactive)
REMARK    1  A    between atoms: C_1  and  O_2
REMARK    2  A    between atoms: O_2  and  C_3
REMARK    3  A    between atoms: C_6  and  N_7
REMARK    4  A    between atoms: C_13  and  C_14
REMARK                            x       y       z     vdW  Elec       q    Type
REMARK                         _______ _______ _______ _____ _____    ______ ____
ROOT
ATOM      1  N   UNL     1       3.775   6.586  18.546  0.00  0.00    +0.000 N 
ATOM      2  C   UNL     1       4.566   6.481  17.410  0.00  0.00    +0.000 C 
ATOM      3  O   UNL     1       4.570   7.204  16.424  0.00  0.00    +0.000 OA
ATOM      4  N   UNL     1       5.414   5.435  17.585  0.00  0.00    +0.000 N 
ATOM      5  C   UNL     1       5.190   4.814  18.775  0.00  0.00    +0.000 C 
ATOM      6  O   UNL     1       5.833   3.861  19.190  0.00  0.00    +0.000 OA
ATOM      7  C   UNL     1       3.985   5.476  19.458  0.00  0.00    +0.000 C 
ATOM      8  H   UNL     1       6.133   5.178  16.929  0.00  0.00    +0.000 HD
ENDROOT
BRANCH   1  12
ATOM      9  C   UNL     1       0.709   9.407  19.123  0.00  0.00    +0.000 A 
ATOM     10  C   UNL     1       1.312   9.268  17.872  0.00  0.00    +0.000 A 
ATOM     11  C   UNL     1       2.346   8.348  17.680  0.00  0.00    +0.000 A 
ATOM     12  C   UNL     1       2.761   7.538  18.736  0.00  0.00    +0.000 A 
ATOM     13  C   UNL     1       2.157   7.671  19.989  0.00  0.00    +0.000 A 
ATOM     14  C   UNL     1       1.153   8.625  20.189  0.00  0.00    +0.000 A 
BRANCH   9  16
ATOM     15  C   UNL     1      -1.167  10.405  18.089  0.00  0.00    +0.000 C 
ATOM     16  O   UNL     1      -0.272  10.358  19.194  0.00  0.00    +0.000 OA
ENDBRANCH   9  16
ENDBRANCH   1  12
BRANCH   7  17
ATOM     17  C   UNL     1       2.800   4.527  19.534  0.00  0.00    +0.000 A 
ATOM     18  C   UNL     1       2.266   3.974  18.362  0.00  0.00    +0.000 A 
ATOM     19  C   UNL     1       1.172   3.107  18.422  0.00  0.00    +0.000 A 
ATOM     20  C   UNL     1       0.601   2.778  19.649  0.00  0.00    +0.000 A 
ATOM     21  C   UNL     1       1.122   3.312  20.823  0.00  0.00    +0.000 A 
ATOM     22  C   UNL     1       2.213   4.180  20.766  0.00  0.00    +0.000 A 
ENDBRANCH   7  17
TORSDOF 3
ENDMDL
MODEL 9
REMARK VINA RESULT:      -7.3      2.012      5.579
REMARK  Name = 
REMARK  4 active torsions:
REMARK  status: ('A' for Active; 'I' for Inactive)
REMARK    1  A    between atoms: C_1  and  O_2
REMARK    2  A    between atoms: O_2  and  C_3
REMARK    3  A    between atoms: C_6  and  N_7
REMARK    4  A    between atoms: C_13  and  C_14
REMARK                            x       y       z     vdW  Elec       q    Type
REMARK                         _______ _______ _______ _____ _____    ______ ____
ROOT
ATOM      1  N   UNL     1       3.994   3.889  18.653  0.00  0.00    +0.000 N 
ATOM      2  C   UNL     1       3.137   2.799  18.575  0.00  0.00    +0.000 C 
ATOM      3  O   UNL     1       3.101   1.928  17.719  0.00  0.00    +0.000 OA
ATOM      4  N   UNL     1       2.338   2.817  19.673  0.00  0.00    +0.000 N 
ATOM      5  C   UNL     1       2.601   3.898  20.456  0.00  0.00    +0.000 C 
ATOM      6  O   UNL     1       2.042   4.137  21.516  0.00  0.00    +0.000 OA
ATOM      7  C   UNL     1       3.659   4.765  19.760  0.00  0.00    +0.000 C 
ATOM      8  H   UNL     1       1.663   2.102  19.888  0.00  0.00    +0.000 HD
ENDROOT
BRANCH   1  12
ATOM      9  C   UNL     1       6.888   4.932  15.783  0.00  0.00    +0.000 A 
ATOM     10  C   UNL     1       5.593   4.595  15.387  0.00  0.00    +0.000 A 
ATOM     11  C   UNL     1       4.633   4.227  16.334  0.00  0.00    +0.000 A 
ATOM     12  C   UNL     1       4.960   4.225  17.689  0.00  0.00    +0.000 A 
ATOM     13  C   UNL     1       6.254   4.565  18.091  0.00  0.00    +0.000 A 
ATOM     14  C   UNL     1       7.224   4.889  17.136  0.00  0.00    +0.000 A 
BRANCH   9  16
ATOM     15  C   UNL     1       7.314   4.881  13.460  0.00  0.00    +0.000 C 
ATOM     16  O   UNL     1       7.745   5.248  14.765  0.00  0.00    +0.000 OA
ENDBRANCH   9  16
ENDBRANCH   1  12
BRANCH   7  17
ATOM     17  C   UNL     1       3.080   6.100  19.318  0.00  0.00    +0.000 A 
ATOM     18  C   UNL     1       2.258   6.831  20.186  0.00  0.00    +0.000 A 
ATOM     19  C   UNL     1       1.715   8.055  19.785  0.00  0.00    +0.000 A 
ATOM     20  C   UNL     1       1.990   8.566  18.519  0.00  0.00    +0.000 A 
ATOM     21  C   UNL     1       2.811   7.858  17.648  0.00  0.00    +0.000 A 
ATOM     22  C   UNL     1       3.352   6.634  18.044  0.00  0.00    +0.000 A 
ENDBRANCH   7  17
TORSDOF 3
ENDMDL
