MODEL 1
REMARK VINA RESULT:      -7.5      0.000      0.000
REMARK  Name = 
REMARK  3 active torsions:
REMARK  status: ('A' for Active; 'I' for Inactive)
REMARK    1  A    between atoms: C_1  and  C_2
REMARK    2  A    between atoms: C_6  and  O_7
REMARK    3  A    between atoms: C_9  and  C_10
REMARK                            x       y       z     vdW  Elec       q    Type
REMARK                         _______ _______ _______ _____ _____    ______ ____
ROOT
ATOM      1  C   UNL     1       3.484   1.398  18.575  0.00  0.00    +0.000 C 
ATOM      2  C   UNL     1       3.681   2.838  18.193  0.00  0.00    +0.000 A 
ATOM      3  C   UNL     1       4.533   3.154  17.152  0.00  0.00    +0.000 A 
ATOM      4  C   UNL     1       4.662   4.486  16.801  0.00  0.00    +0.000 A 
ATOM      5  C   UNL     1       3.923   5.472  17.485  0.00  0.00    +0.000 A 
ATOM      6  C   UNL     1       3.987   6.839  17.180  0.00  0.00    +0.000 A 
ATOM      7  C   UNL     1       3.252   7.759  17.903  0.00  0.00    +0.000 A 
ATOM      8  C   UNL     1       2.436   7.297  18.919  0.00  0.00    +0.000 A 
ATOM      9  N   UNL     1       2.357   5.977  19.229  0.00  0.00    +0.000 NA
ATOM     10  C   UNL     1       3.076   5.076  18.537  0.00  0.00    +0.000 A 
ATOM     11  N   UNL     1       2.968   3.780  18.866  0.00  0.00    +0.000 NA
ENDROOT
BRANCH   8  12
ATOM     12  C   UNL     1       1.612   8.203  19.752  0.00  0.00    +0.000 A 
ATOM     13  C   UNL     1       1.161   8.030  21.050  0.00  0.00    +0.000 A 
ATOM     14  C   UNL     1       0.430   9.155  21.573  0.00  0.00    +0.000 A 
ATOM     15  C   UNL     1      -0.132   9.381  22.854  0.00  0.00    +0.000 A 
ATOM     16  C   UNL     1      -0.811  10.572  23.132  0.00  0.00    +0.000 A 
ATOM     17  C   UNL     1      -0.959  11.543  22.153  0.00  0.00    +0.000 A 
ATOM     18  C   UNL     1      -0.416  11.348  20.882  0.00  0.00    +0.000 A 
ATOM     19  C   UNL     1       0.285  10.154  20.612  0.00  0.00    +0.000 A 
ATOM     20  S   UNL     1       1.059   9.717  19.146  0.00  0.00    +0.000 S 
ENDBRANCH   8  12
BRANCH   6  21
ATOM     21  O   UNL     1       4.754   7.369  16.178  0.00  0.00    +0.000 OA
ATOM     22  H   UNL     1       4.189   7.705  15.465  0.00  0.00    +0.000 HD
ENDBRANCH   6  21
TORSDOF 2
ENDMDL
MODEL 2
REMARK VINA RESULT:      -7.5      1.889      2.587
REMARK  Name = 
REMARK  3 active torsions:
REMARK  status: ('A' for Active; 'I' for Inactive)
REMARK    1  A    between atoms: C_1  and  C_2
REMARK    2  A    between atoms: C_6  and  O_7
REMARK    3  A    between atoms: C_9  and  C_10
REMARK                            x       y       z     vdW  Elec       q    Type
REMARK                         _______ _______ _______ _____ _____    ______ ____
ROOT
ATOM      1  C   UNL     1       5.587   5.603  15.515  0.00  0.00    +0.000 C 
ATOM      2  C   UNL     1       4.763   5.271  16.726  0.00  0.00    +0.000 A 
ATOM      3  C   UNL     1       4.788   3.986  17.233  0.00  0.00    +0.000 A 
ATOM      4  C   UNL     1       4.047   3.723  18.372  0.00  0.00    +0.000 A 
ATOM      5  C   UNL     1       3.312   4.754  18.991  0.00  0.00    +0.000 A 
ATOM      6  C   UNL     1       2.549   4.572  20.153  0.00  0.00    +0.000 A 
ATOM      7  C   UNL     1       1.833   5.621  20.699  0.00  0.00    +0.000 A 
ATOM      8  C   UNL     1       1.904   6.857  20.084  0.00  0.00    +0.000 A 
ATOM      9  N   UNL     1       2.639   7.056  18.959  0.00  0.00    +0.000 NA
ATOM     10  C   UNL     1       3.331   6.039  18.415  0.00  0.00    +0.000 A 
ATOM     11  N   UNL     1       4.051   6.273  17.308  0.00  0.00    +0.000 NA
ENDROOT
BRANCH   8  12
ATOM     12  C   UNL     1       1.172   8.041  20.590  0.00  0.00    +0.000 A 
ATOM     13  C   UNL     1       0.494   8.204  21.787  0.00  0.00    +0.000 A 
ATOM     14  C   UNL     1      -0.053   9.522  21.978  0.00  0.00    +0.000 A 
ATOM     15  C   UNL     1      -0.748  10.087  23.075  0.00  0.00    +0.000 A 
ATOM     16  C   UNL     1      -1.192  11.413  23.028  0.00  0.00    +0.000 A 
ATOM     17  C   UNL     1      -0.971  12.190  21.901  0.00  0.00    +0.000 A 
ATOM     18  C   UNL     1      -0.289  11.660  20.804  0.00  0.00    +0.000 A 
ATOM     19  C   UNL     1       0.174  10.329  20.864  0.00  0.00    +0.000 A 
ATOM     20  S   UNL     1       1.058   9.486  19.662  0.00  0.00    +0.000 S 
ENDBRANCH   8  12
BRANCH   6  21
ATOM     21  O   UNL     1       2.447   3.386  20.829  0.00  0.00    +0.000 OA
ATOM     22  H   UNL     1       1.878   3.492  21.606  0.00  0.00    +0.000 HD
ENDBRANCH   6  21
TORSDOF 2
ENDMDL
MODEL 3
REMARK VINA RESULT:      -7.3      4.831      6.110
REMARK  Name = 
REMARK  3 active torsions:
REMARK  status: ('A' for Active; 'I' for Inactive)
REMARK    1  A    between atoms: C_1  and  C_2
REMARK    2  A    between atoms: C_6  and  O_7
REMARK    3  A    between atoms: C_9  and  C_10
REMARK                            x       y       z     vdW  Elec       q    Type
REMARK                         _______ _______ _______ _____ _____    ______ ____
ROOT
ATOM      1  C   UNL     1       6.542   2.948  11.271  0.00  0.00    +0.000 C 
ATOM      2  C   UNL     1       6.724   3.718  12.548  0.00  0.00    +0.000 A 
ATOM      3  C   UNL     1       7.682   4.712  12.612  0.00  0.00    +0.000 A 
ATOM      4  C   UNL     1       7.798   5.428  13.790  0.00  0.00    +0.000 A 
ATOM      5  C   UNL     1       6.942   5.148  14.874  0.00  0.00    +0.000 A 
ATOM      6  C   UNL     1       6.986   5.836  16.095  0.00  0.00    +0.000 A 
ATOM      7  C   UNL     1       6.132   5.499  17.127  0.00  0.00    +0.000 A 
ATOM      8  C   UNL     1       5.219   4.481  16.920  0.00  0.00    +0.000 A 
ATOM      9  N   UNL     1       5.157   3.803  15.746  0.00  0.00    +0.000 NA
ATOM     10  C   UNL     1       5.991   4.119  14.738  0.00  0.00    +0.000 A 
ATOM     11  N   UNL     1       5.898   3.432  13.589  0.00  0.00    +0.000 NA
ENDROOT
BRANCH   8  12
ATOM     12  C   UNL     1       4.265   4.044  17.965  0.00  0.00    +0.000 A 
ATOM     13  C   UNL     1       4.506   3.332  19.128  0.00  0.00    +0.000 A 
ATOM     14  C   UNL     1       3.340   3.137  19.950  0.00  0.00    +0.000 A 
ATOM     15  C   UNL     1       3.192   2.522  21.218  0.00  0.00    +0.000 A 
ATOM     16  C   UNL     1       1.936   2.448  21.830  0.00  0.00    +0.000 A 
ATOM     17  C   UNL     1       0.813   2.961  21.197  0.00  0.00    +0.000 A 
ATOM     18  C   UNL     1       0.928   3.573  19.948  0.00  0.00    +0.000 A 
ATOM     19  C   UNL     1       2.200   3.663  19.344  0.00  0.00    +0.000 A 
ATOM     20  S   UNL     1       2.583   4.395  17.842  0.00  0.00    +0.000 S 
ENDBRANCH   8  12
BRANCH   6  21
ATOM     21  O   UNL     1       7.845   6.867  16.366  0.00  0.00    +0.000 OA
ATOM     22  H   UNL     1       8.501   6.592  17.025  0.00  0.00    +0.000 HD
ENDBRANCH   6  21
TORSDOF 2
ENDMDL
MODEL 4
REMARK VINA RESULT:      -7.3      4.978      6.192
REMARK  Name = 
REMARK  3 active torsions:
REMARK  status: ('A' for Active; 'I' for Inactive)
REMARK    1  A    between atoms: C_1  and  C_2
REMARK    2  A    between atoms: C_6  and  O_7
REMARK    3  A    between atoms: C_9  and  C_10
REMARK                            x       y       z     vdW  Elec       q    Type
REMARK                         _______ _______ _______ _____ _____    ______ ____
ROOT
ATOM      1  C   UNL     1       6.223   2.730  11.188  0.00  0.00    +0.000 C 
ATOM      2  C   UNL     1       6.486   3.517  12.441  0.00  0.00    +0.000 A 
ATOM      3  C   UNL     1       7.489   4.467  12.449  0.00  0.00    +0.000 A 
ATOM      4  C   UNL     1       7.679   5.200  13.607  0.00  0.00    +0.000 A 
ATOM      5  C   UNL     1       6.850   4.982  14.726  0.00  0.00    +0.000 A 
ATOM      6  C   UNL     1       6.969   5.692  15.929  0.00  0.00    +0.000 A 
ATOM      7  C   UNL     1       6.138   5.416  16.998  0.00  0.00    +0.000 A 
ATOM      8  C   UNL     1       5.173   4.438  16.845  0.00  0.00    +0.000 A 
ATOM      9  N   UNL     1       5.039   3.740  15.688  0.00  0.00    +0.000 NA
ATOM     10  C   UNL     1       5.850   3.995  14.646  0.00  0.00    +0.000 A 
ATOM     11  N   UNL     1       5.684   3.291  13.516  0.00  0.00    +0.000 NA
ENDROOT
BRANCH   8  12
ATOM     12  C   UNL     1       4.237   4.067  17.931  0.00  0.00    +0.000 A 
ATOM     13  C   UNL     1       2.857   4.177  17.972  0.00  0.00    +0.000 A 
ATOM     14  C   UNL     1       2.262   3.655  19.175  0.00  0.00    +0.000 A 
ATOM     15  C   UNL     1       0.904   3.535  19.560  0.00  0.00    +0.000 A 
ATOM     16  C   UNL     1       0.563   2.988  20.802  0.00  0.00    +0.000 A 
ATOM     17  C   UNL     1       1.550   2.569  21.682  0.00  0.00    +0.000 A 
ATOM     18  C   UNL     1       2.896   2.676  21.330  0.00  0.00    +0.000 A 
ATOM     19  C   UNL     1       3.235   3.210  20.069  0.00  0.00    +0.000 A 
ATOM     20  S   UNL     1       4.807   3.402  19.414  0.00  0.00    +0.000 S 
ENDBRANCH   8  12
BRANCH   6  21
ATOM     21  O   UNL     1       7.884   6.687  16.148  0.00  0.00    +0.000 OA
ATOM     22  H   UNL     1       8.559   6.389  16.776  0.00  0.00    +0.000 HD
ENDBRANCH   6  21
TORSDOF 2
ENDMDL
MODEL 5
REMARK VINA RESULT:      -7.2      2.832      7.747
REMARK  Name = 
REMARK  3 active torsions:
REMARK  status: ('A' for Active; 'I' for Inactive)
REMARK    1  A    between atoms: C_1  and  C_2
REMARK    2  A    between atoms: C_6  and  O_7
REMARK    3  A    between atoms: C_9  and  C_10
REMARK                            x       y       z     vdW  Elec       q    Type
REMARK                         _______ _______ _______ _____ _____    ______ ____
ROOT
ATOM      1  C   UNL     1      -0.507  13.646  18.557  0.00  0.00    +0.000 C 
ATOM      2  C   UNL     1      -0.176  12.612  19.597  0.00  0.00    +0.000 A 
ATOM      3  C   UNL     1      -0.452  12.873  20.925  0.00  0.00    +0.000 A 
ATOM      4  C   UNL     1      -0.169  11.885  21.852  0.00  0.00    +0.000 A 
ATOM      5  C   UNL     1       0.366  10.651  21.430  0.00  0.00    +0.000 A 
ATOM      6  C   UNL     1       0.667   9.597  22.304  0.00  0.00    +0.000 A 
ATOM      7  C   UNL     1       1.210   8.419  21.829  0.00  0.00    +0.000 A 
ATOM      8  C   UNL     1       1.431   8.298  20.469  0.00  0.00    +0.000 A 
ATOM      9  N   UNL     1       1.145   9.305  19.605  0.00  0.00    +0.000 NA
ATOM     10  C   UNL     1       0.625  10.459  20.060  0.00  0.00    +0.000 A 
ATOM     11  N   UNL     1       0.349  11.430  19.177  0.00  0.00    +0.000 NA
ENDROOT
BRANCH   8  12
ATOM     12  C   UNL     1       2.012   7.077  19.864  0.00  0.00    +0.000 A 
ATOM     13  C   UNL     1       1.998   5.775  20.335  0.00  0.00    +0.000 A 
ATOM     14  C   UNL     1       2.611   4.822  19.447  0.00  0.00    +0.000 A 
ATOM     15  C   UNL     1       2.740   3.414  19.544  0.00  0.00    +0.000 A 
ATOM     16  C   UNL     1       3.390   2.689  18.540  0.00  0.00    +0.000 A 
ATOM     17  C   UNL     1       3.932   3.339  17.441  0.00  0.00    +0.000 A 
ATOM     18  C   UNL     1       3.821   4.725  17.319  0.00  0.00    +0.000 A 
ATOM     19  C   UNL     1       3.147   5.449  18.324  0.00  0.00    +0.000 A 
ATOM     20  S   UNL     1       2.860   7.139  18.366  0.00  0.00    +0.000 S 
ENDBRANCH   8  12
BRANCH   6  21
ATOM     21  O   UNL     1       0.457   9.635  23.656  0.00  0.00    +0.000 OA
ATOM     22  H   UNL     1      -0.143  10.361  23.882  0.00  0.00    +0.000 HD
ENDBRANCH   6  21
TORSDOF 2
ENDMDL
MODEL 6
REMARK VINA RESULT:      -7.2      2.241      7.254
REMARK  Name = 
REMARK  3 active torsions:
REMARK  status: ('A' for Active; 'I' for Inactive)
REMARK    1  A    between atoms: C_1  and  C_2
REMARK    2  A    between atoms: C_6  and  O_7
REMARK    3  A    between atoms: C_9  and  C_10
REMARK                            x       y       z     vdW  Elec       q    Type
REMARK                         _______ _______ _______ _____ _____    ______ ____
ROOT
ATOM      1  C   UNL     1      -0.986  10.776  23.114  0.00  0.00    +0.000 C 
ATOM      2  C   UNL     1      -0.284  10.521  21.810  0.00  0.00    +0.000 A 
ATOM      3  C   UNL     1      -0.126  11.558  20.910  0.00  0.00    +0.000 A 
ATOM      4  C   UNL     1       0.559  11.298  19.736  0.00  0.00    +0.000 A 
ATOM      5  C   UNL     1       1.087  10.014  19.493  0.00  0.00    +0.000 A 
ATOM      6  C   UNL     1       1.803   9.676  18.337  0.00  0.00    +0.000 A 
ATOM      7  C   UNL     1       2.277   8.391  18.149  0.00  0.00    +0.000 A 
ATOM      8  C   UNL     1       2.045   7.454  19.140  0.00  0.00    +0.000 A 
ATOM      9  N   UNL     1       1.356   7.761  20.269  0.00  0.00    +0.000 NA
ATOM     10  C   UNL     1       0.883   9.006  20.455  0.00  0.00    +0.000 A 
ATOM     11  N   UNL     1       0.213   9.275  21.585  0.00  0.00    +0.000 NA
ENDROOT
BRANCH   8  12
ATOM     12  C   UNL     1       2.509   6.052  19.031  0.00  0.00    +0.000 A 
ATOM     13  C   UNL     1       3.513   5.406  19.734  0.00  0.00    +0.000 A 
ATOM     14  C   UNL     1       3.651   4.010  19.411  0.00  0.00    +0.000 A 
ATOM     15  C   UNL     1       4.506   3.015  19.947  0.00  0.00    +0.000 A 
ATOM     16  C   UNL     1       4.461   1.703  19.462  0.00  0.00    +0.000 A 
ATOM     17  C   UNL     1       3.589   1.360  18.439  0.00  0.00    +0.000 A 
ATOM     18  C   UNL     1       2.736   2.319  17.892  0.00  0.00    +0.000 A 
ATOM     19  C   UNL     1       2.771   3.635  18.397  0.00  0.00    +0.000 A 
ATOM     20  S   UNL     1       1.797   4.959  17.907  0.00  0.00    +0.000 S 
ENDBRANCH   8  12
BRANCH   6  21
ATOM     21  O   UNL     1       2.089  10.552  17.325  0.00  0.00    +0.000 OA
ATOM     22  H   UNL     1       1.935  11.463  17.617  0.00  0.00    +0.000 HD
ENDBRANCH   6  21
TORSDOF 2
ENDMDL
MODEL 7
REMARK VINA RESULT:      -7.1      2.222      7.361
REMARK  Name = 
REMARK  3 active torsions:
REMARK  status: ('A' for Active; 'I' for Inactive)
REMARK    1  A    between atoms: C_1  and  C_2
REMARK    2  A    between atoms: C_6  and  O_7
REMARK    3  A    between atoms: C_9  and  C_10
REMARK                            x       y       z     vdW  Elec       q    Type
REMARK                         _______ _______ _______ _____ _____    ______ ____
ROOT
ATOM      1  C   UNL     1      -1.149  11.522  22.919  0.00  0.00    +0.000 C 
ATOM      2  C   UNL     1      -0.373  11.234  21.665  0.00  0.00    +0.000 A 
ATOM      3  C   UNL     1      -0.062  12.270  20.806  0.00  0.00    +0.000 A 
ATOM      4  C   UNL     1       0.685  11.977  19.679  0.00  0.00    +0.000 A 
ATOM      5  C   UNL     1       1.122  10.658  19.444  0.00  0.00    +0.000 A 
ATOM      6  C   UNL     1       1.893  10.283  18.335  0.00  0.00    +0.000 A 
ATOM      7  C   UNL     1       2.272   8.967  18.151  0.00  0.00    +0.000 A 
ATOM      8  C   UNL     1       1.890   8.033  19.096  0.00  0.00    +0.000 A 
ATOM      9  N   UNL     1       1.145   8.375  20.179  0.00  0.00    +0.000 NA
ATOM     10  C   UNL     1       0.764   9.653  20.362  0.00  0.00    +0.000 A 
ATOM     11  N   UNL     1       0.034   9.955  21.446  0.00  0.00    +0.000 NA
ENDROOT
BRANCH   8  12
ATOM     12  C   UNL     1       2.244   6.600  18.987  0.00  0.00    +0.000 A 
ATOM     13  C   UNL     1       2.657   5.883  17.876  0.00  0.00    +0.000 A 
ATOM     14  C   UNL     1       2.980   4.507  18.151  0.00  0.00    +0.000 A 
ATOM     15  C   UNL     1       3.485   3.486  17.308  0.00  0.00    +0.000 A 
ATOM     16  C   UNL     1       3.722   2.202  17.810  0.00  0.00    +0.000 A 
ATOM     17  C   UNL     1       3.452   1.904  19.137  0.00  0.00    +0.000 A 
ATOM     18  C   UNL     1       2.954   2.889  19.992  0.00  0.00    +0.000 A 
ATOM     19  C   UNL     1       2.735   4.187  19.486  0.00  0.00    +0.000 A 
ATOM     20  S   UNL     1       2.168   5.553  20.353  0.00  0.00    +0.000 S 
ENDBRANCH   8  12
BRANCH   6  21
ATOM     21  O   UNL     1       2.327  11.151  17.370  0.00  0.00    +0.000 OA
ATOM     22  H   UNL     1       2.374  10.703  16.512  0.00  0.00    +0.000 HD
ENDBRANCH   6  21
TORSDOF 2
ENDMDL
MODEL 8
REMARK VINA RESULT:      -7.0      2.305      7.475
REMARK  Name = 
REMARK  3 active torsions:
REMARK  status: ('A' for Active; 'I' for Inactive)
REMARK    1  A    between atoms: C_1  and  C_2
REMARK    2  A    between atoms: C_6  and  O_7
REMARK    3  A    between atoms: C_9  and  C_10
REMARK                            x       y       z     vdW  Elec       q    Type
REMARK                         _______ _______ _______ _____ _____    ______ ____
ROOT
ATOM      1  C   UNL     1       0.274   9.315  24.113  0.00  0.00    +0.000 C 
ATOM      2  C   UNL     1       0.289   9.481  22.620  0.00  0.00    +0.000 A 
ATOM      3  C   UNL     1      -0.477  10.472  22.038  0.00  0.00    +0.000 A 
ATOM      4  C   UNL     1      -0.410  10.621  20.664  0.00  0.00    +0.000 A 
ATOM      5  C   UNL     1       0.435   9.789  19.902  0.00  0.00    +0.000 A 
ATOM      6  C   UNL     1       0.569   9.887  18.510  0.00  0.00    +0.000 A 
ATOM      7  C   UNL     1       1.400   9.026  17.819  0.00  0.00    +0.000 A 
ATOM      8  C   UNL     1       2.111   8.080  18.535  0.00  0.00    +0.000 A 
ATOM      9  N   UNL     1       1.998   7.971  19.884  0.00  0.00    +0.000 NA
ATOM     10  C   UNL     1       1.185   8.798  20.564  0.00  0.00    +0.000 A 
ATOM     11  N   UNL     1       1.102   8.665  21.896  0.00  0.00    +0.000 NA
ENDROOT
BRANCH   8  12
ATOM     12  C   UNL     1       3.024   7.112  17.886  0.00  0.00    +0.000 A 
ATOM     13  C   UNL     1       4.127   7.353  17.083  0.00  0.00    +0.000 A 
ATOM     14  C   UNL     1       4.826   6.162  16.673  0.00  0.00    +0.000 A 
ATOM     15  C   UNL     1       6.009   5.998  15.911  0.00  0.00    +0.000 A 
ATOM     16  C   UNL     1       6.504   4.719  15.634  0.00  0.00    +0.000 A 
ATOM     17  C   UNL     1       5.835   3.592  16.086  0.00  0.00    +0.000 A 
ATOM     18  C   UNL     1       4.667   3.723  16.838  0.00  0.00    +0.000 A 
ATOM     19  C   UNL     1       4.182   5.014  17.133  0.00  0.00    +0.000 A 
ATOM     20  S   UNL     1       2.798   5.414  18.061  0.00  0.00    +0.000 S 
ENDBRANCH   8  12
BRANCH   6  21
ATOM     21  O   UNL     1      -0.085  10.808  17.737  0.00  0.00    +0.000 OA
ATOM     22  H   UNL     1       0.393  11.650  17.743  0.00  0.00    +0.000 HD
ENDBRANCH   6  21
TORSDOF 2
ENDMDL
MODEL 9
REMARK VINA RESULT:      -7.0      3.484      8.278
REMARK  Name = 
REMARK  3 active torsions:
REMARK  status: ('A' for Active; 'I' for Inactive)
REMARK    1  A    between atoms: C_1  and  C_2
REMARK    2  A    between atoms: C_6  and  O_7
REMARK    3  A    between atoms: C_9  and  C_10
REMARK                            x       y       z     vdW  Elec       q    Type
REMARK                         _______ _______ _______ _____ _____    ______ ____
ROOT
ATOM      1  C   UNL     1       1.410   8.339  20.819  0.00  0.00    +0.000 C 
ATOM      2  C   UNL     1       1.825   6.960  20.390  0.00  0.00    +0.000 A 
ATOM      3  C   UNL     1       1.367   5.863  21.093  0.00  0.00    +0.000 A 
ATOM      4  C   UNL     1       1.737   4.606  20.648  0.00  0.00    +0.000 A 
ATOM      5  C   UNL     1       2.542   4.472  19.498  0.00  0.00    +0.000 A 
ATOM      6  C   UNL     1       2.948   3.236  18.976  0.00  0.00    +0.000 A 
ATOM      7  C   UNL     1       3.755   3.172  17.857  0.00  0.00    +0.000 A 
ATOM      8  C   UNL     1       4.136   4.356  17.252  0.00  0.00    +0.000 A 
ATOM      9  N   UNL     1       3.752   5.564  17.740  0.00  0.00    +0.000 NA
ATOM     10  C   UNL     1       2.974   5.635  18.835  0.00  0.00    +0.000 A 
ATOM     11  N   UNL     1       2.609   6.845  19.284  0.00  0.00    +0.000 NA
ENDROOT
BRANCH   8  12
ATOM     12  C   UNL     1       5.001   4.394  16.051  0.00  0.00    +0.000 A 
ATOM     13  C   UNL     1       4.907   3.657  14.882  0.00  0.00    +0.000 A 
ATOM     14  C   UNL     1       5.891   4.002  13.889  0.00  0.00    +0.000 A 
ATOM     15  C   UNL     1       6.083   3.525  12.569  0.00  0.00    +0.000 A 
ATOM     16  C   UNL     1       7.129   4.018  11.780  0.00  0.00    +0.000 A 
ATOM     17  C   UNL     1       8.003   4.968  12.284  0.00  0.00    +0.000 A 
ATOM     18  C   UNL     1       7.839   5.456  13.582  0.00  0.00    +0.000 A 
ATOM     19  C   UNL     1       6.772   4.972  14.366  0.00  0.00    +0.000 A 
ATOM     20  S   UNL     1       6.359   5.449  15.960  0.00  0.00    +0.000 S 
ENDBRANCH   8  12
BRANCH   6  21
ATOM     21  O   UNL     1       2.595   2.023  19.506  0.00  0.00    +0.000 OA
ATOM     22  H   UNL     1       2.778   1.315  18.871  0.00  0.00    +0.000 HD
ENDBRANCH   6  21
TORSDOF 2
ENDMDL
