MODEL 1
REMARK VINA RESULT:      -9.2      0.000      0.000
REMARK  Name = 
REMARK  5 active torsions:
REMARK  status: ('A' for Active; 'I' for Inactive)
REMARK    1  A    between atoms: N_16  and  C_17
REMARK    2  A    between atoms: C_17  and  C_18
REMARK    3  A    between atoms: C_18  and  C_19
REMARK    4  A    between atoms: C_19  and  C_20
REMARK    5  A    between atoms: C_20  and  N_21
REMARK                            x       y       z     vdW  Elec       q    Type
REMARK                         _______ _______ _______ _____ _____    ______ ____
ROOT
ATOM      1  O   UNL     1       7.826   4.812  15.208  0.00  0.00    +0.000 OA
ATOM      2  C   UNL     1       6.915   4.878  16.008  0.00  0.00    +0.000 A 
ATOM      3  C   UNL     1       5.992   3.729  16.128  0.00  0.00    +0.000 A 
ATOM      4  C   UNL     1       4.918   3.770  16.923  0.00  0.00    +0.000 A 
ATOM      5  C   UNL     1       4.730   5.025  17.671  0.00  0.00    +0.000 A 
ATOM      6  N   UNL     1       3.618   5.094  18.536  0.00  0.00    +0.000 N 
ATOM      7  C   UNL     1       3.628   5.948  19.623  0.00  0.00    +0.000 A 
ATOM      8  C   UNL     1       2.366   5.984  20.159  0.00  0.00    +0.000 A 
ATOM      9  C   UNL     1       1.923   4.665  19.921  0.00  0.00    +0.000 A 
ATOM     10  C   UNL     1       1.044   3.804  20.586  0.00  0.00    +0.000 A 
ATOM     11  C   UNL     1       0.594   2.672  19.917  0.00  0.00    +0.000 A 
ATOM     12  C   UNL     1       0.905   2.488  18.572  0.00  0.00    +0.000 A 
ATOM     13  C   UNL     1       1.836   3.301  17.913  0.00  0.00    +0.000 A 
ATOM     14  C   UNL     1       2.460   4.307  18.671  0.00  0.00    +0.000 A 
ATOM     15  N   UNL     1       5.551   6.030  17.657  0.00  0.00    +0.000 NA
ATOM     16  N   UNL     1       6.674   5.955  16.873  0.00  0.00    +0.000 N 
ENDROOT
BRANCH  16  17
ATOM     17  C   UNL     1       7.471   7.174  16.693  0.00  0.00    +0.000 C 
BRANCH  17  18
ATOM     18  C   UNL     1       7.285   8.271  17.756  0.00  0.00    +0.000 C 
BRANCH  18  19
ATOM     19  C   UNL     1       8.592   8.596  18.508  0.00  0.00    +0.000 C 
BRANCH  19  20
ATOM     20  C   UNL     1       8.747  10.066  18.964  0.00  0.00    +0.000 C 
BRANCH  20  21
ATOM     21  N   UNL     1       9.542  10.870  18.029  0.00  0.00    +0.000 NA
ATOM     22  C   UNL     1       8.813  12.045  17.499  0.00  0.00    +0.000 C 
ATOM     23  C   UNL     1       8.667  13.220  18.495  0.00  0.00    +0.000 C 
ATOM     24  N   UNL     1       9.984  13.655  18.959  0.00  0.00    +0.000 N 
ATOM     25  C   UNL     1      10.510  14.791  18.373  0.00  0.00    +0.000 A 
ATOM     26  N   UNL     1       9.676  15.747  17.967  0.00  0.00    +0.000 NA
ATOM     27  C   UNL     1      10.193  16.895  17.471  0.00  0.00    +0.000 A 
ATOM     28  C   UNL     1      11.536  17.115  17.364  0.00  0.00    +0.000 A 
ATOM     29  C   UNL     1      12.333  16.088  17.797  0.00  0.00    +0.000 A 
ATOM     30  N   UNL     1      11.857  14.935  18.313  0.00  0.00    +0.000 NA
ATOM     31  C   UNL     1      10.844  12.593  19.484  0.00  0.00    +0.000 C 
ATOM     32  C   UNL     1      10.839  11.320  18.594  0.00  0.00    +0.000 C 
ENDBRANCH  20  21
ENDBRANCH  19  20
ENDBRANCH  18  19
ENDBRANCH  17  18
ENDBRANCH  16  17
TORSDOF 5
ENDMDL
MODEL 2
REMARK VINA RESULT:      -9.1      1.265      1.310
REMARK  Name = 
REMARK  5 active torsions:
REMARK  status: ('A' for Active; 'I' for Inactive)
REMARK    1  A    between atoms: N_16  and  C_17
REMARK    2  A    between atoms: C_17  and  C_18
REMARK    3  A    between atoms: C_18  and  C_19
REMARK    4  A    between atoms: C_19  and  C_20
REMARK    5  A    between atoms: C_20  and  N_21
REMARK                            x       y       z     vdW  Elec       q    Type
REMARK                         _______ _______ _______ _____ _____    ______ ____
ROOT
ATOM      1  O   UNL     1       7.700   5.719  15.406  0.00  0.00    +0.000 OA
ATOM      2  C   UNL     1       6.779   5.632  16.192  0.00  0.00    +0.000 A 
ATOM      3  C   UNL     1       5.963   4.398  16.195  0.00  0.00    +0.000 A 
ATOM      4  C   UNL     1       4.882   4.272  16.972  0.00  0.00    +0.000 A 
ATOM      5  C   UNL     1       4.575   5.433  17.824  0.00  0.00    +0.000 A 
ATOM      6  N   UNL     1       3.453   5.324  18.672  0.00  0.00    +0.000 N 
ATOM      7  C   UNL     1       3.375   6.076  19.831  0.00  0.00    +0.000 A 
ATOM      8  C   UNL     1       2.110   5.950  20.345  0.00  0.00    +0.000 A 
ATOM      9  C   UNL     1       1.792   4.623  19.985  0.00  0.00    +0.000 A 
ATOM     10  C   UNL     1       0.988   3.631  20.557  0.00  0.00    +0.000 A 
ATOM     11  C   UNL     1       0.649   2.527  19.783  0.00  0.00    +0.000 A 
ATOM     12  C   UNL     1       0.988   2.493  18.432  0.00  0.00    +0.000 A 
ATOM     13  C   UNL     1       1.847   3.441  17.864  0.00  0.00    +0.000 A 
ATOM     14  C   UNL     1       2.370   4.428  18.718  0.00  0.00    +0.000 A 
ATOM     15  N   UNL     1       5.301   6.506  17.912  0.00  0.00    +0.000 NA
ATOM     16  N   UNL     1       6.433   6.602  17.145  0.00  0.00    +0.000 N 
ENDROOT
BRANCH  16  17
ATOM     17  C   UNL     1       7.118   7.898  17.086  0.00  0.00    +0.000 C 
BRANCH  17  18
ATOM     18  C   UNL     1       8.038   8.235  18.273  0.00  0.00    +0.000 C 
BRANCH  18  19
ATOM     19  C   UNL     1       8.726   9.606  18.121  0.00  0.00    +0.000 C 
BRANCH  19  20
ATOM     20  C   UNL     1       9.300  10.210  19.423  0.00  0.00    +0.000 C 
BRANCH  20  21
ATOM     21  N   UNL     1      10.267  11.284  19.175  0.00  0.00    +0.000 NA
ATOM     22  C   UNL     1       9.734  12.367  18.315  0.00  0.00    +0.000 C 
ATOM     23  C   UNL     1       8.744  13.325  19.018  0.00  0.00    +0.000 C 
ATOM     24  N   UNL     1       9.373  13.927  20.194  0.00  0.00    +0.000 N 
ATOM     25  C   UNL     1       9.847  15.218  20.058  0.00  0.00    +0.000 A 
ATOM     26  N   UNL     1       9.214  16.048  19.232  0.00  0.00    +0.000 NA
ATOM     27  C   UNL     1       9.624  17.336  19.162  0.00  0.00    +0.000 A 
ATOM     28  C   UNL     1      10.663  17.822  19.901  0.00  0.00    +0.000 A 
ATOM     29  C   UNL     1      11.269  16.911  20.726  0.00  0.00    +0.000 A 
ATOM     30  N   UNL     1      10.881  15.623  20.838  0.00  0.00    +0.000 NA
ATOM     31  C   UNL     1       9.982  12.980  21.131  0.00  0.00    +0.000 C 
ATOM     32  C   UNL     1      10.817  11.881  20.418  0.00  0.00    +0.000 C 
ENDBRANCH  20  21
ENDBRANCH  19  20
ENDBRANCH  18  19
ENDBRANCH  17  18
ENDBRANCH  16  17
TORSDOF 5
ENDMDL
MODEL 3
REMARK VINA RESULT:      -8.6      6.642      9.766
REMARK  Name = 
REMARK  5 active torsions:
REMARK  status: ('A' for Active; 'I' for Inactive)
REMARK    1  A    between atoms: N_16  and  C_17
REMARK    2  A    between atoms: C_17  and  C_18
REMARK    3  A    between atoms: C_18  and  C_19
REMARK    4  A    between atoms: C_19  and  C_20
REMARK    5  A    between atoms: C_20  and  N_21
REMARK                            x       y       z     vdW  Elec       q    Type
REMARK                         _______ _______ _______ _____ _____    ______ ____
ROOT
ATOM      1  O   UNL     1       2.723   7.057  18.181  0.00  0.00    +0.000 OA
ATOM      2  C   UNL     1       2.076   7.812  18.878  0.00  0.00    +0.000 A 
ATOM      3  C   UNL     1       1.669   9.119  18.320  0.00  0.00    +0.000 A 
ATOM      4  C   UNL     1       1.033  10.032  19.061  0.00  0.00    +0.000 A 
ATOM      5  C   UNL     1       0.759   9.640  20.454  0.00  0.00    +0.000 A 
ATOM      6  N   UNL     1       0.070  10.572  21.257  0.00  0.00    +0.000 N 
ATOM      7  C   UNL     1      -0.673  10.147  22.344  0.00  0.00    +0.000 A 
ATOM      8  C   UNL     1      -1.050  11.248  23.070  0.00  0.00    +0.000 A 
ATOM      9  C   UNL     1      -1.220  12.211  22.051  0.00  0.00    +0.000 A 
ATOM     10  C   UNL     1      -2.048  13.328  21.903  0.00  0.00    +0.000 A 
ATOM     11  C   UNL     1      -1.750  14.244  20.901  0.00  0.00    +0.000 A 
ATOM     12  C   UNL     1      -0.574  14.115  20.166  0.00  0.00    +0.000 A 
ATOM     13  C   UNL     1       0.228  12.970  20.254  0.00  0.00    +0.000 A 
ATOM     14  C   UNL     1      -0.211  11.942  21.108  0.00  0.00    +0.000 A 
ATOM     15  N   UNL     1       1.028   8.478  20.967  0.00  0.00    +0.000 NA
ATOM     16  N   UNL     1       1.638   7.535  20.182  0.00  0.00    +0.000 N 
ENDROOT
BRANCH  16  17
ATOM     17  C   UNL     1       2.135   6.316  20.830  0.00  0.00    +0.000 C 
BRANCH  17  18
ATOM     18  C   UNL     1       1.398   5.011  20.480  0.00  0.00    +0.000 C 
BRANCH  18  19
ATOM     19  C   UNL     1       2.145   3.755  20.975  0.00  0.00    +0.000 C 
BRANCH  19  20
ATOM     20  C   UNL     1       1.909   2.472  20.145  0.00  0.00    +0.000 C 
BRANCH  20  21
ATOM     21  N   UNL     1       3.089   2.071  19.371  0.00  0.00    +0.000 NA
ATOM     22  C   UNL     1       2.894   2.179  17.906  0.00  0.00    +0.000 C 
ATOM     23  C   UNL     1       2.934   3.622  17.352  0.00  0.00    +0.000 C 
ATOM     24  N   UNL     1       4.200   4.264  17.705  0.00  0.00    +0.000 N 
ATOM     25  C   UNL     1       5.168   4.325  16.720  0.00  0.00    +0.000 A 
ATOM     26  N   UNL     1       4.781   4.431  15.450  0.00  0.00    +0.000 NA
ATOM     27  C   UNL     1       5.726   4.576  14.491  0.00  0.00    +0.000 A 
ATOM     28  C   UNL     1       7.061   4.616  14.770  0.00  0.00    +0.000 A 
ATOM     29  C   UNL     1       7.385   4.499  16.096  0.00  0.00    +0.000 A 
ATOM     30  N   UNL     1       6.474   4.369  17.084  0.00  0.00    +0.000 NA
ATOM     31  C   UNL     1       4.553   4.211  19.125  0.00  0.00    +0.000 C 
ATOM     32  C   UNL     1       4.320   2.808  19.750  0.00  0.00    +0.000 C 
ENDBRANCH  20  21
ENDBRANCH  19  20
ENDBRANCH  18  19
ENDBRANCH  17  18
ENDBRANCH  16  17
TORSDOF 5
ENDMDL
MODEL 4
REMARK VINA RESULT:      -8.6      0.938      1.036
REMARK  Name = 
REMARK  5 active torsions:
REMARK  status: ('A' for Active; 'I' for Inactive)
REMARK    1  A    between atoms: N_16  and  C_17
REMARK    2  A    between atoms: C_17  and  C_18
REMARK    3  A    between atoms: C_18  and  C_19
REMARK    4  A    between atoms: C_19  and  C_20
REMARK    5  A    between atoms: C_20  and  N_21
REMARK                            x       y       z     vdW  Elec       q    Type
REMARK                         _______ _______ _______ _____ _____    ______ ____
ROOT
ATOM      1  O   UNL     1       7.682   5.801  15.354  0.00  0.00    +0.000 OA
ATOM      2  C   UNL     1       6.835   5.553  16.189  0.00  0.00    +0.000 A 
ATOM      3  C   UNL     1       5.754   4.605  15.842  0.00  0.00    +0.000 A 
ATOM      4  C   UNL     1       4.743   4.356  16.680  0.00  0.00    +0.000 A 
ATOM      5  C   UNL     1       4.791   5.075  17.964  0.00  0.00    +0.000 A 
ATOM      6  N   UNL     1       3.750   4.818  18.880  0.00  0.00    +0.000 N 
ATOM      7  C   UNL     1       3.949   5.003  20.236  0.00  0.00    +0.000 A 
ATOM      8  C   UNL     1       2.737   4.899  20.871  0.00  0.00    +0.000 A 
ATOM      9  C   UNL     1       2.085   3.934  20.073  0.00  0.00    +0.000 A 
ATOM     10  C   UNL     1       1.120   2.955  20.332  0.00  0.00    +0.000 A 
ATOM     11  C   UNL     1       0.466   2.369  19.255  0.00  0.00    +0.000 A 
ATOM     12  C   UNL     1       0.674   2.855  17.966  0.00  0.00    +0.000 A 
ATOM     13  C   UNL     1       1.682   3.784  17.682  0.00  0.00    +0.000 A 
ATOM     14  C   UNL     1       2.493   4.199  18.753  0.00  0.00    +0.000 A 
ATOM     15  N   UNL     1       5.755   5.857  18.344  0.00  0.00    +0.000 NA
ATOM     16  N   UNL     1       6.809   6.067  17.493  0.00  0.00    +0.000 N 
ENDROOT
BRANCH  16  17
ATOM     17  C   UNL     1       7.774   7.118  17.838  0.00  0.00    +0.000 C 
BRANCH  17  18
ATOM     18  C   UNL     1       7.300   8.568  17.635  0.00  0.00    +0.000 C 
BRANCH  18  19
ATOM     19  C   UNL     1       8.460   9.583  17.676  0.00  0.00    +0.000 C 
BRANCH  19  20
ATOM     20  C   UNL     1       8.906  10.026  19.089  0.00  0.00    +0.000 C 
BRANCH  20  21
ATOM     21  N   UNL     1      10.169  10.772  19.078  0.00  0.00    +0.000 NA
ATOM     22  C   UNL     1      10.399  11.521  17.821  0.00  0.00    +0.000 C 
ATOM     23  C   UNL     1       9.556  12.809  17.671  0.00  0.00    +0.000 C 
ATOM     24  N   UNL     1       9.798  13.705  18.801  0.00  0.00    +0.000 N 
ATOM     25  C   UNL     1      10.659  14.766  18.586  0.00  0.00    +0.000 A 
ATOM     26  N   UNL     1      10.711  15.311  17.373  0.00  0.00    +0.000 NA
ATOM     27  C   UNL     1      11.489  16.402  17.182  0.00  0.00    +0.000 A 
ATOM     28  C   UNL     1      12.227  16.967  18.181  0.00  0.00    +0.000 A 
ATOM     29  C   UNL     1      12.127  16.352  19.401  0.00  0.00    +0.000 A 
ATOM     30  N   UNL     1      11.350  15.273  19.637  0.00  0.00    +0.000 NA
ATOM     31  C   UNL     1       9.643  13.098  20.124  0.00  0.00    +0.000 C 
ATOM     32  C   UNL     1      10.314  11.701  20.227  0.00  0.00    +0.000 C 
ENDBRANCH  20  21
ENDBRANCH  19  20
ENDBRANCH  18  19
ENDBRANCH  17  18
ENDBRANCH  16  17
TORSDOF 5
ENDMDL
MODEL 5
REMARK VINA RESULT:      -8.5      6.334      9.061
REMARK  Name = 
REMARK  5 active torsions:
REMARK  status: ('A' for Active; 'I' for Inactive)
REMARK    1  A    between atoms: N_16  and  C_17
REMARK    2  A    between atoms: C_17  and  C_18
REMARK    3  A    between atoms: C_18  and  C_19
REMARK    4  A    between atoms: C_19  and  C_20
REMARK    5  A    between atoms: C_20  and  N_21
REMARK                            x       y       z     vdW  Elec       q    Type
REMARK                         _______ _______ _______ _____ _____    ______ ____
ROOT
ATOM      1  O   UNL     1       2.763   8.267  17.008  0.00  0.00    +0.000 OA
ATOM      2  C   UNL     1       2.142   8.622  17.989  0.00  0.00    +0.000 A 
ATOM      3  C   UNL     1       1.301   9.835  17.895  0.00  0.00    +0.000 A 
ATOM      4  C   UNL     1       0.662  10.331  18.960  0.00  0.00    +0.000 A 
ATOM      5  C   UNL     1       0.845   9.583  20.214  0.00  0.00    +0.000 A 
ATOM      6  N   UNL     1       0.167  10.067  21.352  0.00  0.00    +0.000 N 
ATOM      7  C   UNL     1      -0.157   9.214  22.392  0.00  0.00    +0.000 A 
ATOM      8  C   UNL     1      -0.603   9.966  23.448  0.00  0.00    +0.000 A 
ATOM      9  C   UNL     1      -1.251  11.029  22.782  0.00  0.00    +0.000 A 
ATOM     10  C   UNL     1      -2.339  11.850  23.097  0.00  0.00    +0.000 A 
ATOM     11  C   UNL     1      -2.531  13.007  22.352  0.00  0.00    +0.000 A 
ATOM     12  C   UNL     1      -1.577  13.400  21.415  0.00  0.00    +0.000 A 
ATOM     13  C   UNL     1      -0.522  12.559  21.042  0.00  0.00    +0.000 A 
ATOM     14  C   UNL     1      -0.470  11.288  21.640  0.00  0.00    +0.000 A 
ATOM     15  N   UNL     1       1.510   8.474  20.331  0.00  0.00    +0.000 NA
ATOM     16  N   UNL     1       2.120   7.951  19.220  0.00  0.00    +0.000 N 
ENDROOT
BRANCH  16  17
ATOM     17  C   UNL     1       3.046   6.828  19.408  0.00  0.00    +0.000 C 
BRANCH  17  18
ATOM     18  C   UNL     1       2.489   5.428  19.093  0.00  0.00    +0.000 C 
BRANCH  18  19
ATOM     19  C   UNL     1       3.574   4.333  19.138  0.00  0.00    +0.000 C 
BRANCH  19  20
ATOM     20  C   UNL     1       5.007   4.830  19.435  0.00  0.00    +0.000 C 
BRANCH  20  21
ATOM     21  N   UNL     1       6.004   4.277  18.511  0.00  0.00    +0.000 NA
ATOM     22  C   UNL     1       5.412   3.444  17.439  0.00  0.00    +0.000 C 
ATOM     23  C   UNL     1       4.710   4.240  16.314  0.00  0.00    +0.000 C 
ATOM     24  N   UNL     1       5.642   5.190  15.709  0.00  0.00    +0.000 N 
ATOM     25  C   UNL     1       6.209   4.829  14.501  0.00  0.00    +0.000 A 
ATOM     26  N   UNL     1       5.500   4.075  13.663  0.00  0.00    +0.000 NA
ATOM     27  C   UNL     1       6.019   3.791  12.445  0.00  0.00    +0.000 A 
ATOM     28  C   UNL     1       7.241   4.242  12.039  0.00  0.00    +0.000 A 
ATOM     29  C   UNL     1       7.915   5.009  12.953  0.00  0.00    +0.000 A 
ATOM     30  N   UNL     1       7.426   5.328  14.171  0.00  0.00    +0.000 NA
ATOM     31  C   UNL     1       6.339   6.068  16.651  0.00  0.00    +0.000 C 
ATOM     32  C   UNL     1       6.875   5.310  17.896  0.00  0.00    +0.000 C 
ENDBRANCH  20  21
ENDBRANCH  19  20
ENDBRANCH  18  19
ENDBRANCH  17  18
ENDBRANCH  16  17
TORSDOF 5
ENDMDL
MODEL 6
REMARK VINA RESULT:      -8.4      1.131      1.558
REMARK  Name = 
REMARK  5 active torsions:
REMARK  status: ('A' for Active; 'I' for Inactive)
REMARK    1  A    between atoms: N_16  and  C_17
REMARK    2  A    between atoms: C_17  and  C_18
REMARK    3  A    between atoms: C_18  and  C_19
REMARK    4  A    between atoms: C_19  and  C_20
REMARK    5  A    between atoms: C_20  and  N_21
REMARK                            x       y       z     vdW  Elec       q    Type
REMARK                         _______ _______ _______ _____ _____    ______ ____
ROOT
ATOM      1  O   UNL     1       7.835   5.219  15.118  0.00  0.00    +0.000 OA
ATOM      2  C   UNL     1       6.928   5.238  15.926  0.00  0.00    +0.000 A 
ATOM      3  C   UNL     1       6.028   4.068  16.008  0.00  0.00    +0.000 A 
ATOM      4  C   UNL     1       4.959   4.059  16.811  0.00  0.00    +0.000 A 
ATOM      5  C   UNL     1       4.753   5.281  17.607  0.00  0.00    +0.000 A 
ATOM      6  N   UNL     1       3.646   5.296  18.480  0.00  0.00    +0.000 N 
ATOM      7  C   UNL     1       3.647   6.109  19.599  0.00  0.00    +0.000 A 
ATOM      8  C   UNL     1       2.388   6.101  20.144  0.00  0.00    +0.000 A 
ATOM      9  C   UNL     1       1.969   4.783  19.859  0.00  0.00    +0.000 A 
ATOM     10  C   UNL     1       1.110   3.881  20.497  0.00  0.00    +0.000 A 
ATOM     11  C   UNL     1       0.677   2.767  19.788  0.00  0.00    +0.000 A 
ATOM     12  C   UNL     1       0.982   2.640  18.435  0.00  0.00    +0.000 A 
ATOM     13  C   UNL     1       1.893   3.495  17.802  0.00  0.00    +0.000 A 
ATOM     14  C   UNL     1       2.504   4.483  18.593  0.00  0.00    +0.000 A 
ATOM     15  N   UNL     1       5.555   6.302  17.625  0.00  0.00    +0.000 NA
ATOM     16  N   UNL     1       6.673   6.277  16.832  0.00  0.00    +0.000 N 
ENDROOT
BRANCH  16  17
ATOM     17  C   UNL     1       7.446   7.517  16.693  0.00  0.00    +0.000 C 
BRANCH  17  18
ATOM     18  C   UNL     1       7.316   8.531  17.844  0.00  0.00    +0.000 C 
BRANCH  18  19
ATOM     19  C   UNL     1       8.642   8.741  18.603  0.00  0.00    +0.000 C 
BRANCH  19  20
ATOM     20  C   UNL     1       9.421  10.025  18.236  0.00  0.00    +0.000 C 
BRANCH  20  21
ATOM     21  N   UNL     1       8.760  11.246  18.708  0.00  0.00    +0.000 NA
ATOM     22  C   UNL     1       9.304  11.751  19.990  0.00  0.00    +0.000 C 
ATOM     23  C   UNL     1      10.678  12.454  19.879  0.00  0.00    +0.000 C 
ATOM     24  N   UNL     1      10.601  13.566  18.931  0.00  0.00    +0.000 N 
ATOM     25  C   UNL     1      10.485  14.836  19.465  0.00  0.00    +0.000 A 
ATOM     26  N   UNL     1      11.061  15.092  20.638  0.00  0.00    +0.000 NA
ATOM     27  C   UNL     1      11.021  16.356  21.121  0.00  0.00    +0.000 A 
ATOM     28  C   UNL     1      10.411  17.381  20.459  0.00  0.00    +0.000 A 
ATOM     29  C   UNL     1       9.838  17.044  19.261  0.00  0.00    +0.000 A 
ATOM     30  N   UNL     1       9.870  15.800  18.737  0.00  0.00    +0.000 NA
ATOM     31  C   UNL     1      10.047  13.231  17.618  0.00  0.00    +0.000 C 
ATOM     32  C   UNL     1       8.774  12.346  17.711  0.00  0.00    +0.000 C 
ENDBRANCH  20  21
ENDBRANCH  19  20
ENDBRANCH  18  19
ENDBRANCH  17  18
ENDBRANCH  16  17
TORSDOF 5
ENDMDL
MODEL 7
REMARK VINA RESULT:      -8.3      1.387      1.545
REMARK  Name = 
REMARK  5 active torsions:
REMARK  status: ('A' for Active; 'I' for Inactive)
REMARK    1  A    between atoms: N_16  and  C_17
REMARK    2  A    between atoms: C_17  and  C_18
REMARK    3  A    between atoms: C_18  and  C_19
REMARK    4  A    between atoms: C_19  and  C_20
REMARK    5  A    between atoms: C_20  and  N_21
REMARK                            x       y       z     vdW  Elec       q    Type
REMARK                         _______ _______ _______ _____ _____    ______ ____
ROOT
ATOM      1  O   UNL     1       7.691   5.389  14.739  0.00  0.00    +0.000 OA
ATOM      2  C   UNL     1       6.870   5.312  15.631  0.00  0.00    +0.000 A 
ATOM      3  C   UNL     1       5.816   4.280  15.537  0.00  0.00    +0.000 A 
ATOM      4  C   UNL     1       4.830   4.198  16.436  0.00  0.00    +0.000 A 
ATOM      5  C   UNL     1       4.879   5.191  17.523  0.00  0.00    +0.000 A 
ATOM      6  N   UNL     1       3.866   5.118  18.501  0.00  0.00    +0.000 N 
ATOM      7  C   UNL     1       4.085   5.612  19.775  0.00  0.00    +0.000 A 
ATOM      8  C   UNL     1       2.891   5.619  20.449  0.00  0.00    +0.000 A 
ATOM      9  C   UNL     1       2.256   4.480  19.908  0.00  0.00    +0.000 A 
ATOM     10  C   UNL     1       1.330   3.558  20.408  0.00  0.00    +0.000 A 
ATOM     11  C   UNL     1       0.676   2.725  19.508  0.00  0.00    +0.000 A 
ATOM     12  C   UNL     1       0.841   2.912  18.138  0.00  0.00    +0.000 A 
ATOM     13  C   UNL     1       1.811   3.781  17.625  0.00  0.00    +0.000 A 
ATOM     14  C   UNL     1       2.629   4.451  18.551  0.00  0.00    +0.000 A 
ATOM     15  N   UNL     1       5.823   6.066  17.690  0.00  0.00    +0.000 NA
ATOM     16  N   UNL     1       6.853   6.108  16.786  0.00  0.00    +0.000 N 
ENDROOT
BRANCH  16  17
ATOM     17  C   UNL     1       7.788   7.237  16.858  0.00  0.00    +0.000 C 
BRANCH  17  18
ATOM     18  C   UNL     1       7.697   8.114  18.119  0.00  0.00    +0.000 C 
BRANCH  18  19
ATOM     19  C   UNL     1       7.945   9.607  17.823  0.00  0.00    +0.000 C 
BRANCH  19  20
ATOM     20  C   UNL     1       9.267  10.184  18.377  0.00  0.00    +0.000 C 
BRANCH  20  21
ATOM     21  N   UNL     1       9.438  11.609  18.074  0.00  0.00    +0.000 NA
ATOM     22  C   UNL     1       8.752  12.501  19.037  0.00  0.00    +0.000 C 
ATOM     23  C   UNL     1       9.456  12.637  20.408  0.00  0.00    +0.000 C 
ATOM     24  N   UNL     1      10.829  13.110  20.226  0.00  0.00    +0.000 N 
ATOM     25  C   UNL     1      11.065  14.451  20.463  0.00  0.00    +0.000 A 
ATOM     26  N   UNL     1      10.339  15.075  21.387  0.00  0.00    +0.000 NA
ATOM     27  C   UNL     1      10.626  16.365  21.680  0.00  0.00    +0.000 A 
ATOM     28  C   UNL     1      11.628  17.057  21.064  0.00  0.00    +0.000 A 
ATOM     29  C   UNL     1      12.332  16.353  20.123  0.00  0.00    +0.000 A 
ATOM     30  N   UNL     1      12.088  15.061  19.813  0.00  0.00    +0.000 NA
ATOM     31  C   UNL     1      11.631  12.345  19.269  0.00  0.00    +0.000 C 
ATOM     32  C   UNL     1      10.860  12.021  17.961  0.00  0.00    +0.000 C 
ENDBRANCH  20  21
ENDBRANCH  19  20
ENDBRANCH  18  19
ENDBRANCH  17  18
ENDBRANCH  16  17
TORSDOF 5
ENDMDL
MODEL 8
REMARK VINA RESULT:      -8.0      3.694     11.103
REMARK  Name = 
REMARK  5 active torsions:
REMARK  status: ('A' for Active; 'I' for Inactive)
REMARK    1  A    between atoms: N_16  and  C_17
REMARK    2  A    between atoms: C_17  and  C_18
REMARK    3  A    between atoms: C_18  and  C_19
REMARK    4  A    between atoms: C_19  and  C_20
REMARK    5  A    between atoms: C_20  and  N_21
REMARK                            x       y       z     vdW  Elec       q    Type
REMARK                         _______ _______ _______ _____ _____    ______ ____
ROOT
ATOM      1  O   UNL     1       9.233  12.524  17.442  0.00  0.00    +0.000 OA
ATOM      2  C   UNL     1       9.045  12.537  18.642  0.00  0.00    +0.000 A 
ATOM      3  C   UNL     1       8.806  13.835  19.308  0.00  0.00    +0.000 A 
ATOM      4  C   UNL     1       8.680  13.931  20.636  0.00  0.00    +0.000 A 
ATOM      5  C   UNL     1       8.783  12.662  21.376  0.00  0.00    +0.000 A 
ATOM      6  N   UNL     1       8.633  12.725  22.777  0.00  0.00    +0.000 N 
ATOM      7  C   UNL     1       8.201  11.619  23.486  0.00  0.00    +0.000 A 
ATOM      8  C   UNL     1       8.352  11.875  24.825  0.00  0.00    +0.000 A 
ATOM      9  C   UNL     1       8.099  13.263  24.875  0.00  0.00    +0.000 A 
ATOM     10  C   UNL     1       7.561  14.115  25.846  0.00  0.00    +0.000 A 
ATOM     11  C   UNL     1       7.731  15.485  25.690  0.00  0.00    +0.000 A 
ATOM     12  C   UNL     1       8.541  15.976  24.669  0.00  0.00    +0.000 A 
ATOM     13  C   UNL     1       9.030  15.144  23.653  0.00  0.00    +0.000 A 
ATOM     14  C   UNL     1       8.656  13.790  23.696  0.00  0.00    +0.000 A 
ATOM     15  N   UNL     1       8.917  11.491  20.832  0.00  0.00    +0.000 NA
ATOM     16  N   UNL     1       8.997  11.403  19.466  0.00  0.00    +0.000 N 
ENDROOT
BRANCH  16  17
ATOM     17  C   UNL     1       9.369  10.110  18.880  0.00  0.00    +0.000 C 
BRANCH  17  18
ATOM     18  C   UNL     1       8.270   9.383  18.085  0.00  0.00    +0.000 C 
BRANCH  18  19
ATOM     19  C   UNL     1       8.231   7.869  18.373  0.00  0.00    +0.000 C 
BRANCH  19  20
ATOM     20  C   UNL     1       7.455   7.016  17.343  0.00  0.00    +0.000 C 
BRANCH  20  21
ATOM     21  N   UNL     1       7.054   5.709  17.873  0.00  0.00    +0.000 NA
ATOM     22  C   UNL     1       6.055   5.799  18.964  0.00  0.00    +0.000 C 
ATOM     23  C   UNL     1       4.617   6.131  18.499  0.00  0.00    +0.000 C 
ATOM     24  N   UNL     1       4.160   5.140  17.526  0.00  0.00    +0.000 N 
ATOM     25  C   UNL     1       3.314   4.150  17.990  0.00  0.00    +0.000 A 
ATOM     26  N   UNL     1       2.475   4.440  18.983  0.00  0.00    +0.000 NA
ATOM     27  C   UNL     1       1.587   3.499  19.381  0.00  0.00    +0.000 A 
ATOM     28  C   UNL     1       1.517   2.261  18.811  0.00  0.00    +0.000 A 
ATOM     29  C   UNL     1       2.411   2.032  17.798  0.00  0.00    +0.000 A 
ATOM     30  N   UNL     1       3.301   2.949  17.360  0.00  0.00    +0.000 NA
ATOM     31  C   UNL     1       5.063   4.910  16.397  0.00  0.00    +0.000 C 
ATOM     32  C   UNL     1       6.548   4.780  16.831  0.00  0.00    +0.000 C 
ENDBRANCH  20  21
ENDBRANCH  19  20
ENDBRANCH  18  19
ENDBRANCH  17  18
ENDBRANCH  16  17
TORSDOF 5
ENDMDL
MODEL 9
REMARK VINA RESULT:      -7.9      3.350     11.281
REMARK  Name = 
REMARK  5 active torsions:
REMARK  status: ('A' for Active; 'I' for Inactive)
REMARK    1  A    between atoms: N_16  and  C_17
REMARK    2  A    between atoms: C_17  and  C_18
REMARK    3  A    between atoms: C_18  and  C_19
REMARK    4  A    between atoms: C_19  and  C_20
REMARK    5  A    between atoms: C_20  and  N_21
REMARK                            x       y       z     vdW  Elec       q    Type
REMARK                         _______ _______ _______ _____ _____    ______ ____
ROOT
ATOM      1  O   UNL     1      10.780  12.619  16.736  0.00  0.00    +0.000 OA
ATOM      2  C   UNL     1      10.327  12.892  17.829  0.00  0.00    +0.000 A 
ATOM      3  C   UNL     1      10.683  14.191  18.440  0.00  0.00    +0.000 A 
ATOM      4  C   UNL     1      10.292  14.517  19.676  0.00  0.00    +0.000 A 
ATOM      5  C   UNL     1       9.479  13.505  20.371  0.00  0.00    +0.000 A 
ATOM      6  N   UNL     1       9.031  13.826  21.670  0.00  0.00    +0.000 N 
ATOM      7  C   UNL     1       7.892  13.234  22.185  0.00  0.00    +0.000 A 
ATOM      8  C   UNL     1       7.806  13.545  23.518  0.00  0.00    +0.000 A 
ATOM      9  C   UNL     1       8.361  14.843  23.539  0.00  0.00    +0.000 A 
ATOM     10  C   UNL     1       8.154  15.972  24.339  0.00  0.00    +0.000 A 
ATOM     11  C   UNL     1       9.087  17.000  24.286  0.00  0.00    +0.000 A 
ATOM     12  C   UNL     1      10.265  16.835  23.561  0.00  0.00    +0.000 A 
ATOM     13  C   UNL     1      10.456  15.744  22.704  0.00  0.00    +0.000 A 
ATOM     14  C   UNL     1       9.400  14.824  22.590  0.00  0.00    +0.000 A 
ATOM     15  N   UNL     1       9.078  12.385  19.851  0.00  0.00    +0.000 NA
ATOM     16  N   UNL     1       9.447  12.085  18.565  0.00  0.00    +0.000 N 
ENDROOT
BRANCH  16  17
ATOM     17  C   UNL     1       9.179  10.730  18.070  0.00  0.00    +0.000 C 
BRANCH  17  18
ATOM     18  C   UNL     1       8.969   9.644  19.140  0.00  0.00    +0.000 C 
BRANCH  18  19
ATOM     19  C   UNL     1       8.613   8.272  18.532  0.00  0.00    +0.000 C 
BRANCH  19  20
ATOM     20  C   UNL     1       7.418   8.270  17.552  0.00  0.00    +0.000 C 
BRANCH  20  21
ATOM     21  N   UNL     1       7.118   6.935  17.024  0.00  0.00    +0.000 NA
ATOM     22  C   UNL     1       7.410   5.844  17.983  0.00  0.00    +0.000 C 
ATOM     23  C   UNL     1       6.382   5.699  19.130  0.00  0.00    +0.000 C 
ATOM     24  N   UNL     1       5.040   5.496  18.583  0.00  0.00    +0.000 N 
ATOM     25  C   UNL     1       4.558   4.200  18.573  0.00  0.00    +0.000 A 
ATOM     26  N   UNL     1       4.938   3.369  19.541  0.00  0.00    +0.000 NA
ATOM     27  C   UNL     1       4.401   2.127  19.581  0.00  0.00    +0.000 A 
ATOM     28  C   UNL     1       3.488   1.687  18.668  0.00  0.00    +0.000 A 
ATOM     29  C   UNL     1       3.146   2.594  17.700  0.00  0.00    +0.000 A 
ATOM     30  N   UNL     1       3.646   3.847  17.634  0.00  0.00    +0.000 NA
ATOM     31  C   UNL     1       4.616   6.481  17.586  0.00  0.00    +0.000 C 
ATOM     32  C   UNL     1       5.722   6.792  16.541  0.00  0.00    +0.000 C 
ENDBRANCH  20  21
ENDBRANCH  19  20
ENDBRANCH  18  19
ENDBRANCH  17  18
ENDBRANCH  16  17
TORSDOF 5
ENDMDL
