MODEL 1
REMARK VINA RESULT:      -8.8      0.000      0.000
REMARK  Name = 
REMARK  5 active torsions:
REMARK  status: ('A' for Active; 'I' for Inactive)
REMARK    1  A    between atoms: C_1  and  N_2
REMARK    2  A    between atoms: C_6  and  C_7
REMARK    3  A    between atoms: C_13  and  C_14
REMARK    4  A    between atoms: C_18  and  O_19
REMARK    5  A    between atoms: O_19  and  C_20
REMARK                            x       y       z     vdW  Elec       q    Type
REMARK                         _______ _______ _______ _____ _____    ______ ____
ROOT
ATOM      1  C   UNL     1       2.150   6.888  19.651  0.00  0.00    +0.000 A 
ATOM      2  C   UNL     1       1.650   6.118  20.712  0.00  0.00    +0.000 A 
ATOM      3  C   UNL     1       1.989   4.769  20.876  0.00  0.00    +0.000 A 
ATOM      4  C   UNL     1       2.847   4.201  19.934  0.00  0.00    +0.000 A 
ATOM      5  N   UNL     1       3.320   2.916  19.817  0.00  0.00    +0.000 N 
ATOM      6  C   UNL     1       4.157   2.809  18.740  0.00  0.00    +0.000 A 
ATOM      7  C   UNL     1       4.255   4.053  18.142  0.00  0.00    +0.000 A 
ATOM      8  C   UNL     1       3.397   4.932  18.878  0.00  0.00    +0.000 A 
ATOM      9  C   UNL     1       3.037   6.289  18.741  0.00  0.00    +0.000 A 
ATOM     10  H   UNL     1       3.081   2.162  20.449  0.00  0.00    +0.000 HD
ENDROOT
BRANCH   1  16
ATOM     11  C   UNL     1       1.030  12.893  18.953  0.00  0.00    +0.000 C 
ATOM     12  N   UNL     1       1.082  11.691  18.150  0.00  0.00    +0.000 N 
ATOM     13  C   UNL     1       1.203  10.512  18.809  0.00  0.00    +0.000 A 
ATOM     14  N   UNL     1       0.858  10.281  20.057  0.00  0.00    +0.000 NA
ATOM     15  N   UNL     1       1.164   8.999  20.465  0.00  0.00    +0.000 NA
ATOM     16  C   UNL     1       1.709   8.280  19.503  0.00  0.00    +0.000 A 
ATOM     17  S   UNL     1       1.902   9.150  18.029  0.00  0.00    +0.000 S 
ATOM     18  H   UNL     1       1.617  11.773  17.292  0.00  0.00    +0.000 HD
ENDBRANCH   1  16
BRANCH   7  19
ATOM     19  C   UNL     1       5.136   4.359  17.025  0.00  0.00    +0.000 A 
ATOM     20  C   UNL     1       5.163   3.582  15.870  0.00  0.00    +0.000 A 
ATOM     21  C   UNL     1       6.077   3.902  14.870  0.00  0.00    +0.000 A 
ATOM     22  C   UNL     1       6.932   4.984  15.052  0.00  0.00    +0.000 A 
ATOM     23  C   UNL     1       6.832   5.701  16.230  0.00  0.00    +0.000 A 
ATOM     24  N   UNL     1       5.954   5.423  17.212  0.00  0.00    +0.000 NA
BRANCH  23  25
ATOM     25  O   UNL     1       7.709   6.757  16.398  0.00  0.00    +0.000 OA
BRANCH  25  26
ATOM     26  C   UNL     1       7.476   7.592  17.555  0.00  0.00    +0.000 C 
ATOM     27  C   UNL     1       8.424   7.382  18.764  0.00  0.00    +0.000 C 
ATOM     28  C   UNL     1       8.567   8.905  18.881  0.00  0.00    +0.000 C 
ATOM     29  C   UNL     1       8.056   9.024  17.438  0.00  0.00    +0.000 C 
ENDBRANCH  25  26
ENDBRANCH  23  25
ENDBRANCH   7  19
TORSDOF 4
ENDMDL
MODEL 2
REMARK VINA RESULT:      -8.5      0.952      1.027
REMARK  Name = 
REMARK  5 active torsions:
REMARK  status: ('A' for Active; 'I' for Inactive)
REMARK    1  A    between atoms: C_1  and  N_2
REMARK    2  A    between atoms: C_6  and  C_7
REMARK    3  A    between atoms: C_13  and  C_14
REMARK    4  A    between atoms: C_18  and  O_19
REMARK    5  A    between atoms: O_19  and  C_20
REMARK                            x       y       z     vdW  Elec       q    Type
REMARK                         _______ _______ _______ _____ _____    ______ ____
ROOT
ATOM      1  C   UNL     1       2.120   6.700  19.818  0.00  0.00    +0.000 A 
ATOM      2  C   UNL     1       1.655   5.870  20.849  0.00  0.00    +0.000 A 
ATOM      3  C   UNL     1       2.002   4.514  20.926  0.00  0.00    +0.000 A 
ATOM      4  C   UNL     1       2.833   4.005  19.927  0.00  0.00    +0.000 A 
ATOM      5  N   UNL     1       3.305   2.730  19.723  0.00  0.00    +0.000 N 
ATOM      6  C   UNL     1       4.108   2.689  18.616  0.00  0.00    +0.000 A 
ATOM      7  C   UNL     1       4.184   3.964  18.087  0.00  0.00    +0.000 A 
ATOM      8  C   UNL     1       3.348   4.796  18.897  0.00  0.00    +0.000 A 
ATOM      9  C   UNL     1       2.980   6.157  18.849  0.00  0.00    +0.000 A 
ATOM     10  H   UNL     1       3.088   1.941  20.318  0.00  0.00    +0.000 HD
ENDROOT
BRANCH   1  16
ATOM     11  C   UNL     1      -0.451  12.284  19.701  0.00  0.00    +0.000 C 
ATOM     12  N   UNL     1       0.199  11.400  20.644  0.00  0.00    +0.000 N 
ATOM     13  C   UNL     1       0.787  10.286  20.142  0.00  0.00    +0.000 A 
ATOM     14  N   UNL     1       1.209  10.119  18.908  0.00  0.00    +0.000 NA
ATOM     15  N   UNL     1       1.705   8.852  18.682  0.00  0.00    +0.000 NA
ATOM     16  C   UNL     1       1.671   8.097  19.763  0.00  0.00    +0.000 A 
ATOM     17  S   UNL     1       1.002   8.899  21.133  0.00  0.00    +0.000 S 
ATOM     18  H   UNL     1      -0.290  11.282  21.525  0.00  0.00    +0.000 HD
ENDBRANCH   1  16
BRANCH   7  19
ATOM     19  C   UNL     1       5.030   4.338  16.962  0.00  0.00    +0.000 A 
ATOM     20  C   UNL     1       4.943   3.698  15.728  0.00  0.00    +0.000 A 
ATOM     21  C   UNL     1       5.829   4.070  14.720  0.00  0.00    +0.000 A 
ATOM     22  C   UNL     1       6.768   5.063  14.972  0.00  0.00    +0.000 A 
ATOM     23  C   UNL     1       6.779   5.645  16.227  0.00  0.00    +0.000 A 
ATOM     24  N   UNL     1       5.932   5.315  17.220  0.00  0.00    +0.000 NA
BRANCH  23  25
ATOM     25  O   UNL     1       7.738   6.613  16.461  0.00  0.00    +0.000 OA
BRANCH  25  26
ATOM     26  C   UNL     1       7.480   7.500  17.573  0.00  0.00    +0.000 C 
ATOM     27  C   UNL     1       8.411   7.357  18.804  0.00  0.00    +0.000 C 
ATOM     28  C   UNL     1       8.539   8.886  18.850  0.00  0.00    +0.000 C 
ATOM     29  C   UNL     1       8.048   8.930  17.396  0.00  0.00    +0.000 C 
ENDBRANCH  25  26
ENDBRANCH  23  25
ENDBRANCH   7  19
TORSDOF 4
ENDMDL
MODEL 3
REMARK VINA RESULT:      -8.4      1.738      3.277
REMARK  Name = 
REMARK  5 active torsions:
REMARK  status: ('A' for Active; 'I' for Inactive)
REMARK    1  A    between atoms: C_1  and  N_2
REMARK    2  A    between atoms: C_6  and  C_7
REMARK    3  A    between atoms: C_13  and  C_14
REMARK    4  A    between atoms: C_18  and  O_19
REMARK    5  A    between atoms: O_19  and  C_20
REMARK                            x       y       z     vdW  Elec       q    Type
REMARK                         _______ _______ _______ _____ _____    ______ ____
ROOT
ATOM      1  C   UNL     1       2.074   6.761  19.893  0.00  0.00    +0.000 A 
ATOM      2  C   UNL     1       1.412   6.011  20.876  0.00  0.00    +0.000 A 
ATOM      3  C   UNL     1       1.702   4.658  21.099  0.00  0.00    +0.000 A 
ATOM      4  C   UNL     1       2.678   4.067  20.296  0.00  0.00    +0.000 A 
ATOM      5  N   UNL     1       3.141   2.774  20.260  0.00  0.00    +0.000 N 
ATOM      6  C   UNL     1       4.124   2.643  19.316  0.00  0.00    +0.000 A 
ATOM      7  C   UNL     1       4.328   3.879  18.729  0.00  0.00    +0.000 A 
ATOM      8  C   UNL     1       3.388   4.778  19.325  0.00  0.00    +0.000 A 
ATOM      9  C   UNL     1       3.074   6.139  19.126  0.00  0.00    +0.000 A 
ATOM     10  H   UNL     1       2.801   2.030  20.857  0.00  0.00    +0.000 HD
ENDROOT
BRANCH   1  16
ATOM     11  C   UNL     1       1.167  12.758  18.881  0.00  0.00    +0.000 C 
ATOM     12  N   UNL     1       1.181  11.514  18.141  0.00  0.00    +0.000 N 
ATOM     13  C   UNL     1       1.258  10.368  18.861  0.00  0.00    +0.000 A 
ATOM     14  N   UNL     1       0.899  10.213  20.117  0.00  0.00    +0.000 NA
ATOM     15  N   UNL     1       1.158   8.944  20.591  0.00  0.00    +0.000 NA
ATOM     16  C   UNL     1       1.683   8.159  19.671  0.00  0.00    +0.000 A 
ATOM     17  S   UNL     1       1.913   8.945  18.156  0.00  0.00    +0.000 S 
ATOM     18  H   UNL     1       1.723  11.534  17.284  0.00  0.00    +0.000 HD
ENDBRANCH   1  16
BRANCH   7  19
ATOM     19  C   UNL     1       5.368   4.160  17.749  0.00  0.00    +0.000 A 
ATOM     20  C   UNL     1       6.661   4.514  18.125  0.00  0.00    +0.000 A 
ATOM     21  C   UNL     1       7.583   4.829  17.130  0.00  0.00    +0.000 A 
ATOM     22  C   UNL     1       7.188   4.779  15.797  0.00  0.00    +0.000 A 
ATOM     23  C   UNL     1       5.884   4.413  15.518  0.00  0.00    +0.000 A 
ATOM     24  N   UNL     1       4.972   4.095  16.456  0.00  0.00    +0.000 NA
BRANCH  23  25
ATOM     25  O   UNL     1       5.509   4.394  14.188  0.00  0.00    +0.000 OA
BRANCH  25  26
ATOM     26  C   UNL     1       6.309   3.561  13.318  0.00  0.00    +0.000 C 
ATOM     27  C   UNL     1       5.599   2.981  12.068  0.00  0.00    +0.000 C 
ATOM     28  C   UNL     1       6.817   3.381  11.225  0.00  0.00    +0.000 C 
ATOM     29  C   UNL     1       7.227   4.344  12.348  0.00  0.00    +0.000 C 
ENDBRANCH  25  26
ENDBRANCH  23  25
ENDBRANCH   7  19
TORSDOF 4
ENDMDL
MODEL 4
REMARK VINA RESULT:      -8.3      3.176      7.490
REMARK  Name = 
REMARK  5 active torsions:
REMARK  status: ('A' for Active; 'I' for Inactive)
REMARK    1  A    between atoms: C_1  and  N_2
REMARK    2  A    between atoms: C_6  and  C_7
REMARK    3  A    between atoms: C_13  and  C_14
REMARK    4  A    between atoms: C_18  and  O_19
REMARK    5  A    between atoms: O_19  and  C_20
REMARK                            x       y       z     vdW  Elec       q    Type
REMARK                         _______ _______ _______ _____ _____    ______ ____
ROOT
ATOM      1  C   UNL     1       4.535   4.433  17.493  0.00  0.00    +0.000 A 
ATOM      2  C   UNL     1       4.411   3.222  18.190  0.00  0.00    +0.000 A 
ATOM      3  C   UNL     1       3.622   3.105  19.342  0.00  0.00    +0.000 A 
ATOM      4  C   UNL     1       2.958   4.249  19.787  0.00  0.00    +0.000 A 
ATOM      5  N   UNL     1       2.157   4.445  20.886  0.00  0.00    +0.000 N 
ATOM      6  C   UNL     1       1.702   5.735  20.923  0.00  0.00    +0.000 A 
ATOM      7  C   UNL     1       2.198   6.401  19.818  0.00  0.00    +0.000 A 
ATOM      8  C   UNL     1       3.024   5.470  19.112  0.00  0.00    +0.000 A 
ATOM      9  C   UNL     1       3.826   5.555  17.955  0.00  0.00    +0.000 A 
ATOM     10  H   UNL     1       1.934   3.726  21.564  0.00  0.00    +0.000 HD
ENDROOT
BRANCH   1  16
ATOM     11  C   UNL     1       8.002   5.423  12.512  0.00  0.00    +0.000 C 
ATOM     12  N   UNL     1       8.110   5.505  13.953  0.00  0.00    +0.000 N 
ATOM     13  C   UNL     1       7.088   4.991  14.679  0.00  0.00    +0.000 A 
ATOM     14  N   UNL     1       6.237   4.070  14.281  0.00  0.00    +0.000 NA
ATOM     15  N   UNL     1       5.267   3.798  15.223  0.00  0.00    +0.000 NA
ATOM     16  C   UNL     1       5.424   4.502  16.327  0.00  0.00    +0.000 A 
ATOM     17  S   UNL     1       6.775   5.569  16.267  0.00  0.00    +0.000 S 
ATOM     18  H   UNL     1       8.507   6.371  14.302  0.00  0.00    +0.000 HD
ENDBRANCH   1  16
BRANCH   7  19
ATOM     19  C   UNL     1       1.849   7.769  19.458  0.00  0.00    +0.000 A 
ATOM     20  C   UNL     1       1.937   8.234  18.149  0.00  0.00    +0.000 A 
ATOM     21  C   UNL     1       1.645   9.572  17.895  0.00  0.00    +0.000 A 
ATOM     22  C   UNL     1       1.275  10.399  18.949  0.00  0.00    +0.000 A 
ATOM     23  C   UNL     1       1.211   9.849  20.217  0.00  0.00    +0.000 A 
ATOM     24  N   UNL     1       1.479   8.559  20.494  0.00  0.00    +0.000 NA
BRANCH  23  25
ATOM     25  O   UNL     1       0.865  10.697  21.252  0.00  0.00    +0.000 OA
BRANCH  25  26
ATOM     26  C   UNL     1      -0.538  10.725  21.602  0.00  0.00    +0.000 C 
ATOM     27  C   UNL     1      -0.892  10.375  23.070  0.00  0.00    +0.000 C 
ATOM     28  C   UNL     1      -1.841  11.581  23.099  0.00  0.00    +0.000 C 
ATOM     29  C   UNL     1      -1.101  12.141  21.876  0.00  0.00    +0.000 C 
ENDBRANCH  25  26
ENDBRANCH  23  25
ENDBRANCH   7  19
TORSDOF 4
ENDMDL
MODEL 5
REMARK VINA RESULT:      -8.2      2.000      3.663
REMARK  Name = 
REMARK  5 active torsions:
REMARK  status: ('A' for Active; 'I' for Inactive)
REMARK    1  A    between atoms: C_1  and  N_2
REMARK    2  A    between atoms: C_6  and  C_7
REMARK    3  A    between atoms: C_13  and  C_14
REMARK    4  A    between atoms: C_18  and  O_19
REMARK    5  A    between atoms: O_19  and  C_20
REMARK                            x       y       z     vdW  Elec       q    Type
REMARK                         _______ _______ _______ _____ _____    ______ ____
ROOT
ATOM      1  C   UNL     1       2.068   6.460  20.003  0.00  0.00    +0.000 A 
ATOM      2  C   UNL     1       1.419   5.582  20.884  0.00  0.00    +0.000 A 
ATOM      3  C   UNL     1       1.695   4.209  20.902  0.00  0.00    +0.000 A 
ATOM      4  C   UNL     1       2.644   3.730  19.998  0.00  0.00    +0.000 A 
ATOM      5  N   UNL     1       3.089   2.451  19.764  0.00  0.00    +0.000 N 
ATOM      6  C   UNL     1       4.047   2.448  18.787  0.00  0.00    +0.000 A 
ATOM      7  C   UNL     1       4.255   3.753  18.379  0.00  0.00    +0.000 A 
ATOM      8  C   UNL     1       3.341   4.567  19.122  0.00  0.00    +0.000 A 
ATOM      9  C   UNL     1       3.041   5.945  19.129  0.00  0.00    +0.000 A 
ATOM     10  H   UNL     1       2.752   1.632  20.256  0.00  0.00    +0.000 HD
ENDROOT
BRANCH   1  16
ATOM     11  C   UNL     1      -0.214  12.169  20.088  0.00  0.00    +0.000 C 
ATOM     12  N   UNL     1       0.406  11.226  20.994  0.00  0.00    +0.000 N 
ATOM     13  C   UNL     1       0.927  10.099  20.451  0.00  0.00    +0.000 A 
ATOM     14  N   UNL     1       1.319   9.945  19.204  0.00  0.00    +0.000 NA
ATOM     15  N   UNL     1       1.745   8.662  18.934  0.00  0.00    +0.000 NA
ATOM     16  C   UNL     1       1.691   7.879  19.995  0.00  0.00    +0.000 A 
ATOM     17  S   UNL     1       1.088   8.674  21.398  0.00  0.00    +0.000 S 
ATOM     18  H   UNL     1      -0.073  11.108  21.880  0.00  0.00    +0.000 HD
ENDBRANCH   1  16
BRANCH   7  19
ATOM     19  C   UNL     1       5.275   4.162  17.424  0.00  0.00    +0.000 A 
ATOM     20  C   UNL     1       6.546   4.561  17.828  0.00  0.00    +0.000 A 
ATOM     21  C   UNL     1       7.447   4.998  16.859  0.00  0.00    +0.000 A 
ATOM     22  C   UNL     1       7.054   5.022  15.526  0.00  0.00    +0.000 A 
ATOM     23  C   UNL     1       5.772   4.603  15.218  0.00  0.00    +0.000 A 
ATOM     24  N   UNL     1       4.881   4.168  16.129  0.00  0.00    +0.000 NA
BRANCH  23  25
ATOM     25  O   UNL     1       5.396   4.659  13.889  0.00  0.00    +0.000 OA
BRANCH  25  26
ATOM     26  C   UNL     1       5.386   3.397  13.183  0.00  0.00    +0.000 C 
ATOM     27  C   UNL     1       4.461   3.305  11.943  0.00  0.00    +0.000 C 
ATOM     28  C   UNL     1       5.607   2.638  11.172  0.00  0.00    +0.000 C 
ATOM     29  C   UNL     1       6.582   3.193  12.220  0.00  0.00    +0.000 C 
ENDBRANCH  25  26
ENDBRANCH  23  25
ENDBRANCH   7  19
TORSDOF 4
ENDMDL
MODEL 6
REMARK VINA RESULT:      -8.0      1.527      3.187
REMARK  Name = 
REMARK  5 active torsions:
REMARK  status: ('A' for Active; 'I' for Inactive)
REMARK    1  A    between atoms: C_1  and  N_2
REMARK    2  A    between atoms: C_6  and  C_7
REMARK    3  A    between atoms: C_13  and  C_14
REMARK    4  A    between atoms: C_18  and  O_19
REMARK    5  A    between atoms: O_19  and  C_20
REMARK                            x       y       z     vdW  Elec       q    Type
REMARK                         _______ _______ _______ _____ _____    ______ ____
ROOT
ATOM      1  C   UNL     1       1.734   6.418  20.333  0.00  0.00    +0.000 A 
ATOM      2  C   UNL     1       1.009   5.358  20.899  0.00  0.00    +0.000 A 
ATOM      3  C   UNL     1       1.397   4.021  20.735  0.00  0.00    +0.000 A 
ATOM      4  C   UNL     1       2.539   3.770  19.974  0.00  0.00    +0.000 A 
ATOM      5  N   UNL     1       3.131   2.582  19.618  0.00  0.00    +0.000 N 
ATOM      6  C   UNL     1       4.255   2.812  18.871  0.00  0.00    +0.000 A 
ATOM      7  C   UNL     1       4.420   4.179  18.746  0.00  0.00    +0.000 A 
ATOM      8  C   UNL     1       3.313   4.791  19.417  0.00  0.00    +0.000 A 
ATOM      9  C   UNL     1       2.897   6.126  19.601  0.00  0.00    +0.000 A 
ATOM     10  H   UNL     1       2.781   1.670  19.882  0.00  0.00    +0.000 HD
ENDROOT
BRANCH   1  16
ATOM     11  C   UNL     1       0.393  12.376  21.044  0.00  0.00    +0.000 C 
ATOM     12  N   UNL     1       0.573  11.416  19.976  0.00  0.00    +0.000 N 
ATOM     13  C   UNL     1       0.692  10.113  20.331  0.00  0.00    +0.000 A 
ATOM     14  N   UNL     1       0.251   9.566  21.443  0.00  0.00    +0.000 NA
ATOM     15  N   UNL     1       0.581   8.231  21.547  0.00  0.00    +0.000 NA
ATOM     16  C   UNL     1       1.242   7.791  20.494  0.00  0.00    +0.000 A 
ATOM     17  S   UNL     1       1.521   9.009  19.308  0.00  0.00    +0.000 S 
ATOM     18  H   UNL     1       1.176  11.725  19.222  0.00  0.00    +0.000 HD
ENDBRANCH   1  16
BRANCH   7  19
ATOM     19  C   UNL     1       5.563   4.812  18.104  0.00  0.00    +0.000 A 
ATOM     20  C   UNL     1       6.585   5.409  18.837  0.00  0.00    +0.000 A 
ATOM     21  C   UNL     1       7.614   6.049  18.150  0.00  0.00    +0.000 A 
ATOM     22  C   UNL     1       7.592   6.072  16.760  0.00  0.00    +0.000 A 
ATOM     23  C   UNL     1       6.538   5.449  16.116  0.00  0.00    +0.000 A 
ATOM     24  N   UNL     1       5.534   4.816  16.750  0.00  0.00    +0.000 NA
BRANCH  23  25
ATOM     25  O   UNL     1       6.526   5.506  14.735  0.00  0.00    +0.000 OA
BRANCH  25  26
ATOM     26  C   UNL     1       6.574   4.233  14.050  0.00  0.00    +0.000 C 
ATOM     27  C   UNL     1       5.255   3.748  13.396  0.00  0.00    +0.000 C 
ATOM     28  C   UNL     1       6.049   3.375  12.138  0.00  0.00    +0.000 C 
ATOM     29  C   UNL     1       7.177   4.295  12.625  0.00  0.00    +0.000 C 
ENDBRANCH  25  26
ENDBRANCH  23  25
ENDBRANCH   7  19
TORSDOF 4
ENDMDL
MODEL 7
REMARK VINA RESULT:      -7.9      1.388      2.993
REMARK  Name = 
REMARK  5 active torsions:
REMARK  status: ('A' for Active; 'I' for Inactive)
REMARK    1  A    between atoms: C_1  and  N_2
REMARK    2  A    between atoms: C_6  and  C_7
REMARK    3  A    between atoms: C_13  and  C_14
REMARK    4  A    between atoms: C_18  and  O_19
REMARK    5  A    between atoms: O_19  and  C_20
REMARK                            x       y       z     vdW  Elec       q    Type
REMARK                         _______ _______ _______ _____ _____    ______ ____
ROOT
ATOM      1  C   UNL     1       1.768   7.407  19.999  0.00  0.00    +0.000 A 
ATOM      2  C   UNL     1       0.998   6.543  20.792  0.00  0.00    +0.000 A 
ATOM      3  C   UNL     1       1.338   5.194  20.967  0.00  0.00    +0.000 A 
ATOM      4  C   UNL     1       2.478   4.727  20.313  0.00  0.00    +0.000 A 
ATOM      5  N   UNL     1       3.029   3.469  20.269  0.00  0.00    +0.000 N 
ATOM      6  C   UNL     1       4.168   3.471  19.511  0.00  0.00    +0.000 A 
ATOM      7  C   UNL     1       4.386   4.759  19.059  0.00  0.00    +0.000 A 
ATOM      8  C   UNL     1       3.296   5.553  19.538  0.00  0.00    +0.000 A 
ATOM      9  C   UNL     1       2.927   6.906  19.383  0.00  0.00    +0.000 A 
ATOM     10  H   UNL     1       2.642   2.661  20.741  0.00  0.00    +0.000 HD
ENDROOT
BRANCH   1  16
ATOM     11  C   UNL     1       0.626  13.369  19.023  0.00  0.00    +0.000 C 
ATOM     12  N   UNL     1       0.561  12.112  18.308  0.00  0.00    +0.000 N 
ATOM     13  C   UNL     1       0.755  10.981  19.029  0.00  0.00    +0.000 A 
ATOM     14  N   UNL     1       0.574  10.844  20.325  0.00  0.00    +0.000 NA
ATOM     15  N   UNL     1       0.918   9.588  20.781  0.00  0.00    +0.000 NA
ATOM     16  C   UNL     1       1.326   8.794  19.810  0.00  0.00    +0.000 A 
ATOM     17  S   UNL     1       1.332   9.555  18.265  0.00  0.00    +0.000 S 
ATOM     18  H   UNL     1       0.979  12.124  17.385  0.00  0.00    +0.000 HD
ENDBRANCH   1  16
BRANCH   7  19
ATOM     19  C   UNL     1       5.558   5.177  18.304  0.00  0.00    +0.000 A 
ATOM     20  C   UNL     1       6.737   5.573  18.930  0.00  0.00    +0.000 A 
ATOM     21  C   UNL     1       7.795   6.019  18.141  0.00  0.00    +0.000 A 
ATOM     22  C   UNL     1       7.645   6.054  16.759  0.00  0.00    +0.000 A 
ATOM     23  C   UNL     1       6.439   5.638  16.225  0.00  0.00    +0.000 A 
ATOM     24  N   UNL     1       5.401   5.195  16.959  0.00  0.00    +0.000 NA
BRANCH  23  25
ATOM     25  O   UNL     1       6.305   5.706  14.851  0.00  0.00    +0.000 OA
BRANCH  25  26
ATOM     26  C   UNL     1       6.873   4.604  14.107  0.00  0.00    +0.000 C 
ATOM     27  C   UNL     1       5.878   3.708  13.326  0.00  0.00    +0.000 C 
ATOM     28  C   UNL     1       6.821   3.764  12.116  0.00  0.00    +0.000 C 
ATOM     29  C   UNL     1       7.482   5.001  12.739  0.00  0.00    +0.000 C 
ENDBRANCH  25  26
ENDBRANCH  23  25
ENDBRANCH   7  19
TORSDOF 4
ENDMDL
MODEL 8
REMARK VINA RESULT:      -7.7      3.145      7.492
REMARK  Name = 
REMARK  5 active torsions:
REMARK  status: ('A' for Active; 'I' for Inactive)
REMARK    1  A    between atoms: C_1  and  N_2
REMARK    2  A    between atoms: C_6  and  C_7
REMARK    3  A    between atoms: C_13  and  C_14
REMARK    4  A    between atoms: C_18  and  O_19
REMARK    5  A    between atoms: O_19  and  C_20
REMARK                            x       y       z     vdW  Elec       q    Type
REMARK                         _______ _______ _______ _____ _____    ______ ____
ROOT
ATOM      1  C   UNL     1       4.580   4.563  17.696  0.00  0.00    +0.000 A 
ATOM      2  C   UNL     1       4.482   3.404  18.480  0.00  0.00    +0.000 A 
ATOM      3  C   UNL     1       3.702   3.357  19.643  0.00  0.00    +0.000 A 
ATOM      4  C   UNL     1       3.021   4.518  20.009  0.00  0.00    +0.000 A 
ATOM      5  N   UNL     1       2.222   4.779  21.097  0.00  0.00    +0.000 N 
ATOM      6  C   UNL     1       1.745   6.061  21.044  0.00  0.00    +0.000 A 
ATOM      7  C   UNL     1       2.221   6.654  19.889  0.00  0.00    +0.000 A 
ATOM      8  C   UNL     1       3.060   5.688  19.247  0.00  0.00    +0.000 A 
ATOM      9  C   UNL     1       3.853   5.703  18.080  0.00  0.00    +0.000 A 
ATOM     10  H   UNL     1       2.017   4.108  21.827  0.00  0.00    +0.000 HD
ENDROOT
BRANCH   1  16
ATOM     11  C   UNL     1       7.910   5.192  12.566  0.00  0.00    +0.000 C 
ATOM     12  N   UNL     1       7.990   5.534  13.969  0.00  0.00    +0.000 N 
ATOM     13  C   UNL     1       7.049   5.005  14.789  0.00  0.00    +0.000 A 
ATOM     14  N   UNL     1       6.349   3.914  14.566  0.00  0.00    +0.000 NA
ATOM     15  N   UNL     1       5.421   3.666  15.556  0.00  0.00    +0.000 NA
ATOM     16  C   UNL     1       5.460   4.564  16.521  0.00  0.00    +0.000 A 
ATOM     17  S   UNL     1       6.638   5.793  16.259  0.00  0.00    +0.000 S 
ATOM     18  H   UNL     1       8.251   6.495  14.160  0.00  0.00    +0.000 HD
ENDBRANCH   1  16
BRANCH   7  19
ATOM     19  C   UNL     1       1.845   7.985  19.435  0.00  0.00    +0.000 A 
ATOM     20  C   UNL     1       2.185   8.457  18.170  0.00  0.00    +0.000 A 
ATOM     21  C   UNL     1       1.843   9.764  17.831  0.00  0.00    +0.000 A 
ATOM     22  C   UNL     1       1.175  10.554  18.759  0.00  0.00    +0.000 A 
ATOM     23  C   UNL     1       0.875  10.000  19.990  0.00  0.00    +0.000 A 
ATOM     24  N   UNL     1       1.184   8.738  20.346  0.00  0.00    +0.000 NA
BRANCH  23  25
ATOM     25  O   UNL     1       0.233  10.813  20.905  0.00  0.00    +0.000 OA
BRANCH  25  26
ATOM     26  C   UNL     1      -0.111  12.138  20.439  0.00  0.00    +0.000 C 
ATOM     27  C   UNL     1      -1.623  12.472  20.357  0.00  0.00    +0.000 C 
ATOM     28  C   UNL     1      -1.332  13.821  21.027  0.00  0.00    +0.000 C 
ATOM     29  C   UNL     1       0.005  13.245  21.515  0.00  0.00    +0.000 C 
ENDBRANCH  25  26
ENDBRANCH  23  25
ENDBRANCH   7  19
TORSDOF 4
ENDMDL
MODEL 9
REMARK VINA RESULT:      -7.7      4.304      7.293
REMARK  Name = 
REMARK  5 active torsions:
REMARK  status: ('A' for Active; 'I' for Inactive)
REMARK    1  A    between atoms: C_1  and  N_2
REMARK    2  A    between atoms: C_6  and  C_7
REMARK    3  A    between atoms: C_13  and  C_14
REMARK    4  A    between atoms: C_18  and  O_19
REMARK    5  A    between atoms: O_19  and  C_20
REMARK                            x       y       z     vdW  Elec       q    Type
REMARK                         _______ _______ _______ _____ _____    ______ ____
ROOT
ATOM      1  C   UNL     1      -0.254  13.424  20.975  0.00  0.00    +0.000 A 
ATOM      2  C   UNL     1      -0.923  13.570  22.200  0.00  0.00    +0.000 A 
ATOM      3  C   UNL     1      -1.187  12.477  23.037  0.00  0.00    +0.000 A 
ATOM      4  C   UNL     1      -0.765  11.219  22.606  0.00  0.00    +0.000 A 
ATOM      5  N   UNL     1      -0.912   9.982  23.186  0.00  0.00    +0.000 N 
ATOM      6  C   UNL     1      -0.323   9.018  22.413  0.00  0.00    +0.000 A 
ATOM      7  C   UNL     1       0.241   9.631  21.310  0.00  0.00    +0.000 A 
ATOM      8  C   UNL     1      -0.068  11.025  21.411  0.00  0.00    +0.000 A 
ATOM      9  C   UNL     1       0.184  12.145  20.592  0.00  0.00    +0.000 A 
ATOM     10  H   UNL     1      -1.385   9.818  24.066  0.00  0.00    +0.000 HD
ENDROOT
BRANCH   1  16
ATOM     11  C   UNL     1       0.978  18.629  17.943  0.00  0.00    +0.000 C 
ATOM     12  N   UNL     1       1.485  17.277  18.044  0.00  0.00    +0.000 N 
ATOM     13  C   UNL     1       0.740  16.390  18.749  0.00  0.00    +0.000 A 
ATOM     14  N   UNL     1      -0.551  16.473  18.984  0.00  0.00    +0.000 NA
ATOM     15  N   UNL     1      -1.012  15.450  19.787  0.00  0.00    +0.000 NA
ATOM     16  C   UNL     1      -0.060  14.600  20.118  0.00  0.00    +0.000 A 
ATOM     17  S   UNL     1       1.481  15.020  19.474  0.00  0.00    +0.000 S 
ATOM     18  H   UNL     1       2.489  17.206  18.167  0.00  0.00    +0.000 HD
ENDBRANCH   1  16
BRANCH   7  19
ATOM     19  C   UNL     1       1.044   8.943  20.309  0.00  0.00    +0.000 A 
ATOM     20  C   UNL     1       1.271   9.482  19.046  0.00  0.00    +0.000 A 
ATOM     21  C   UNL     1       1.998   8.735  18.122  0.00  0.00    +0.000 A 
ATOM     22  C   UNL     1       2.476   7.481  18.487  0.00  0.00    +0.000 A 
ATOM     23  C   UNL     1       2.205   7.028  19.765  0.00  0.00    +0.000 A 
ATOM     24  N   UNL     1       1.512   7.729  20.683  0.00  0.00    +0.000 NA
BRANCH  23  25
ATOM     25  O   UNL     1       2.669   5.769  20.096  0.00  0.00    +0.000 OA
BRANCH  25  26
ATOM     26  C   UNL     1       1.687   4.858  20.641  0.00  0.00    +0.000 C 
ATOM     27  C   UNL     1       1.163   3.753  19.688  0.00  0.00    +0.000 C 
ATOM     28  C   UNL     1       1.338   2.733  20.820  0.00  0.00    +0.000 C 
ATOM     29  C   UNL     1       2.280   3.726  21.516  0.00  0.00    +0.000 C 
ENDBRANCH  25  26
ENDBRANCH  23  25
ENDBRANCH   7  19
TORSDOF 4
ENDMDL
