MODEL 1
REMARK VINA RESULT:      -7.7      0.000      0.000
REMARK  Name = 
REMARK  11 active torsions:
REMARK  status: ('A' for Active; 'I' for Inactive)
REMARK    1  A    between atoms: C_1  and  C_2
REMARK    2  A    between atoms: C_2  and  N_3
REMARK    3  A    between atoms: N_3  and  C_4
REMARK    4  A    between atoms: N_3  and  S_6
REMARK    5  A    between atoms: C_4  and  C_5
REMARK    6  A    between atoms: S_6  and  C_9
REMARK    7  A    between atoms: C_13  and  C_14
REMARK    8  A    between atoms: N_16  and  C_17
REMARK    9  A    between atoms: C_19  and  C_20
REMARK   10  A    between atoms: C_25  and  C_26
REMARK   11  A    between atoms: C_28  and  C_29
REMARK                            x       y       z     vdW  Elec       q    Type
REMARK                         _______ _______ _______ _____ _____    ______ ____
ROOT
ATOM      1  C   UNL     1       0.740   9.822  21.261  0.00  0.00    +0.000 C 
ATOM      2  O   UNL     1       1.062   9.686  22.432  0.00  0.00    +0.000 OA
ATOM      3  N   UNL     1      -0.173  10.848  20.857  0.00  0.00    +0.000 N 
ATOM      4  H   UNL     1      -0.422  10.986  19.877  0.00  0.00    +0.000 HD
ENDROOT
BRANCH   3   5
ATOM      5  C   UNL     1      -0.731  11.788  21.737  0.00  0.00    +0.000 A 
ATOM      6  C   UNL     1      -1.825  11.652  22.561  0.00  0.00    +0.000 A 
ATOM      7  C   UNL     1      -1.948  12.883  23.241  0.00  0.00    +0.000 A 
ATOM      8  C   UNL     1      -2.997  13.289  24.209  0.00  0.00    +0.000 C 
ATOM      9  N   UNL     1      -0.975  13.734  22.908  0.00  0.00    +0.000 NA
ATOM     10  N   UNL     1      -0.258  13.082  21.950  0.00  0.00    +0.000 N 
ATOM     11  C   UNL     1       0.827  13.692  21.239  0.00  0.00    +0.000 A 
ATOM     12  N   UNL     1       1.248  14.912  21.630  0.00  0.00    +0.000 NA
ATOM     13  C   UNL     1       2.235  15.485  20.916  0.00  0.00    +0.000 A 
ATOM     14  C   UNL     1       2.725  16.827  21.373  0.00  0.00    +0.000 C 
ATOM     15  C   UNL     1       2.778  14.881  19.799  0.00  0.00    +0.000 A 
ATOM     16  C   UNL     1       2.294  13.630  19.462  0.00  0.00    +0.000 A 
ATOM     17  C   UNL     1       2.784  12.926  18.232  0.00  0.00    +0.000 C 
ATOM     18  N   UNL     1       1.340  12.999  20.186  0.00  0.00    +0.000 NA
ENDBRANCH   3   5
BRANCH   1  23
ATOM     19  C   UNL     1       2.416   6.950  19.413  0.00  0.00    +0.000 A 
ATOM     20  C   UNL     1       2.378   7.425  18.099  0.00  0.00    +0.000 A 
ATOM     21  C   UNL     1       1.834   8.680  17.840  0.00  0.00    +0.000 A 
ATOM     22  C   UNL     1       1.319   9.444  18.889  0.00  0.00    +0.000 A 
ATOM     23  C   UNL     1       1.324   8.954  20.206  0.00  0.00    +0.000 A 
ATOM     24  C   UNL     1       1.884   7.700  20.474  0.00  0.00    +0.000 A 
BRANCH  19  25
ATOM     25  S   UNL     1       3.119   5.343  19.724  0.00  0.00    +0.000 S 
ATOM     26  O   UNL     1       2.434   4.814  20.879  0.00  0.00    +0.000 OA
ATOM     27  O   UNL     1       4.559   5.503  19.710  0.00  0.00    +0.000 OA
BRANCH  25  28
ATOM     28  N   UNL     1       2.678   4.427  18.342  0.00  0.00    +0.000 NA
BRANCH  28  30
ATOM     29  C   UNL     1       4.414   4.012  16.568  0.00  0.00    +0.000 C 
ATOM     30  C   UNL     1       3.736   3.505  17.831  0.00  0.00    +0.000 C 
ENDBRANCH  28  30
BRANCH  28  31
ATOM     31  C   UNL     1       1.302   3.842  18.416  0.00  0.00    +0.000 C 
ATOM     32  C   UNL     1       1.295   2.340  18.642  0.00  0.00    +0.000 C 
ENDBRANCH  28  31
ENDBRANCH  25  28
ENDBRANCH  19  25
ENDBRANCH   1  23
TORSDOF 6
ENDMDL
MODEL 2
REMARK VINA RESULT:      -7.5      2.681      3.803
REMARK  Name = 
REMARK  11 active torsions:
REMARK  status: ('A' for Active; 'I' for Inactive)
REMARK    1  A    between atoms: C_1  and  C_2
REMARK    2  A    between atoms: C_2  and  N_3
REMARK    3  A    between atoms: N_3  and  C_4
REMARK    4  A    between atoms: N_3  and  S_6
REMARK    5  A    between atoms: C_4  and  C_5
REMARK    6  A    between atoms: S_6  and  C_9
REMARK    7  A    between atoms: C_13  and  C_14
REMARK    8  A    between atoms: N_16  and  C_17
REMARK    9  A    between atoms: C_19  and  C_20
REMARK   10  A    between atoms: C_25  and  C_26
REMARK   11  A    between atoms: C_28  and  C_29
REMARK                            x       y       z     vdW  Elec       q    Type
REMARK                         _______ _______ _______ _____ _____    ______ ____
ROOT
ATOM      1  C   UNL     1       0.095   9.632  20.546  0.00  0.00    +0.000 C 
ATOM      2  O   UNL     1      -0.339   9.081  21.546  0.00  0.00    +0.000 OA
ATOM      3  N   UNL     1      -0.289  10.970  20.210  0.00  0.00    +0.000 N 
ATOM      4  H   UNL     1       0.094  11.446  19.393  0.00  0.00    +0.000 HD
ENDROOT
BRANCH   3   5
ATOM      5  C   UNL     1      -1.142  11.758  20.997  0.00  0.00    +0.000 A 
ATOM      6  C   UNL     1      -0.939  12.239  22.271  0.00  0.00    +0.000 A 
ATOM      7  C   UNL     1      -2.096  12.983  22.588  0.00  0.00    +0.000 A 
ATOM      8  C   UNL     1      -2.416  13.670  23.864  0.00  0.00    +0.000 C 
ATOM      9  N   UNL     1      -2.961  13.014  21.572  0.00  0.00    +0.000 NA
ATOM     10  N   UNL     1      -2.400  12.223  20.615  0.00  0.00    +0.000 N 
ATOM     11  C   UNL     1      -3.063  11.897  19.387  0.00  0.00    +0.000 A 
ATOM     12  N   UNL     1      -4.230  12.511  19.102  0.00  0.00    +0.000 NA
ATOM     13  C   UNL     1      -4.858  12.152  17.967  0.00  0.00    +0.000 A 
ATOM     14  C   UNL     1      -6.137  12.859  17.635  0.00  0.00    +0.000 C 
ATOM     15  C   UNL     1      -4.363  11.166  17.135  0.00  0.00    +0.000 A 
ATOM     16  C   UNL     1      -3.160  10.584  17.495  0.00  0.00    +0.000 A 
ATOM     17  C   UNL     1      -2.579   9.465  16.682  0.00  0.00    +0.000 C 
ATOM     18  N   UNL     1      -2.474  10.955  18.600  0.00  0.00    +0.000 NA
ENDBRANCH   3   5
BRANCH   1  23
ATOM     19  C   UNL     1       2.578   7.142  19.093  0.00  0.00    +0.000 A 
ATOM     20  C   UNL     1       2.914   7.776  17.893  0.00  0.00    +0.000 A 
ATOM     21  C   UNL     1       2.350   9.012  17.590  0.00  0.00    +0.000 A 
ATOM     22  C   UNL     1       1.445   9.598  18.476  0.00  0.00    +0.000 A 
ATOM     23  C   UNL     1       1.079   8.948  19.666  0.00  0.00    +0.000 A 
ATOM     24  C   UNL     1       1.654   7.713  19.984  0.00  0.00    +0.000 A 
BRANCH  19  25
ATOM     25  S   UNL     1       3.314   5.563  19.464  0.00  0.00    +0.000 S 
ATOM     26  O   UNL     1       2.539   4.995  20.542  0.00  0.00    +0.000 OA
ATOM     27  O   UNL     1       4.740   5.782  19.596  0.00  0.00    +0.000 OA
BRANCH  25  28
ATOM     28  N   UNL     1       3.052   4.643  18.039  0.00  0.00    +0.000 NA
BRANCH  28  30
ATOM     29  C   UNL     1       4.812   4.828  16.249  0.00  0.00    +0.000 C 
ATOM     30  C   UNL     1       4.281   4.044  17.440  0.00  0.00    +0.000 C 
ENDBRANCH  28  30
BRANCH  28  31
ATOM     31  C   UNL     1       1.868   3.729  18.116  0.00  0.00    +0.000 C 
ATOM     32  C   UNL     1       2.220   2.265  17.918  0.00  0.00    +0.000 C 
ENDBRANCH  28  31
ENDBRANCH  25  28
ENDBRANCH  19  25
ENDBRANCH   1  23
TORSDOF 6
ENDMDL
MODEL 3
REMARK VINA RESULT:      -7.2      2.534      4.608
REMARK  Name = 
REMARK  11 active torsions:
REMARK  status: ('A' for Active; 'I' for Inactive)
REMARK    1  A    between atoms: C_1  and  C_2
REMARK    2  A    between atoms: C_2  and  N_3
REMARK    3  A    between atoms: N_3  and  C_4
REMARK    4  A    between atoms: N_3  and  S_6
REMARK    5  A    between atoms: C_4  and  C_5
REMARK    6  A    between atoms: S_6  and  C_9
REMARK    7  A    between atoms: C_13  and  C_14
REMARK    8  A    between atoms: N_16  and  C_17
REMARK    9  A    between atoms: C_19  and  C_20
REMARK   10  A    between atoms: C_25  and  C_26
REMARK   11  A    between atoms: C_28  and  C_29
REMARK                            x       y       z     vdW  Elec       q    Type
REMARK                         _______ _______ _______ _____ _____    ______ ____
ROOT
ATOM      1  C   UNL     1       1.106  10.078  18.526  0.00  0.00    +0.000 C 
ATOM      2  O   UNL     1       0.180  10.153  17.733  0.00  0.00    +0.000 OA
ATOM      3  N   UNL     1       1.515  11.213  19.298  0.00  0.00    +0.000 N 
ATOM      4  H   UNL     1       2.268  11.149  19.985  0.00  0.00    +0.000 HD
ENDROOT
BRANCH   3   5
ATOM      5  C   UNL     1       0.882  12.464  19.243  0.00  0.00    +0.000 A 
ATOM      6  C   UNL     1       1.114  13.509  18.378  0.00  0.00    +0.000 A 
ATOM      7  C   UNL     1       0.199  14.520  18.745  0.00  0.00    +0.000 A 
ATOM      8  C   UNL     1       0.063  15.880  18.167  0.00  0.00    +0.000 C 
ATOM      9  N   UNL     1      -0.593  14.133  19.748  0.00  0.00    +0.000 NA
ATOM     10  N   UNL     1      -0.143  12.893  20.086  0.00  0.00    +0.000 N 
ATOM     11  C   UNL     1      -0.657  12.155  21.202  0.00  0.00    +0.000 A 
ATOM     12  N   UNL     1      -1.727  12.646  21.860  0.00  0.00    +0.000 NA
ATOM     13  C   UNL     1      -2.161  11.960  22.935  0.00  0.00    +0.000 A 
ATOM     14  C   UNL     1      -3.371  12.489  23.645  0.00  0.00    +0.000 C 
ATOM     15  C   UNL     1      -1.523  10.821  23.385  0.00  0.00    +0.000 A 
ATOM     16  C   UNL     1      -0.433  10.380  22.656  0.00  0.00    +0.000 A 
ATOM     17  C   UNL     1       0.355   9.186  23.105  0.00  0.00    +0.000 C 
ATOM     18  N   UNL     1       0.000  11.012  21.541  0.00  0.00    +0.000 NA
ENDBRANCH   3   5
BRANCH   1  23
ATOM     19  C   UNL     1       3.350   7.030  18.145  0.00  0.00    +0.000 A 
ATOM     20  C   UNL     1       3.073   6.349  19.334  0.00  0.00    +0.000 A 
ATOM     21  C   UNL     1       2.143   6.877  20.225  0.00  0.00    +0.000 A 
ATOM     22  C   UNL     1       1.509   8.086  19.932  0.00  0.00    +0.000 A 
ATOM     23  C   UNL     1       1.811   8.790  18.754  0.00  0.00    +0.000 A 
ATOM     24  C   UNL     1       2.734   8.256  17.848  0.00  0.00    +0.000 A 
BRANCH  19  25
ATOM     25  S   UNL     1       4.542   6.336  17.017  0.00  0.00    +0.000 S 
ATOM     26  O   UNL     1       4.548   7.191  15.854  0.00  0.00    +0.000 OA
ATOM     27  O   UNL     1       4.247   4.921  16.910  0.00  0.00    +0.000 OA
BRANCH  25  28
ATOM     28  N   UNL     1       6.035   6.501  17.844  0.00  0.00    +0.000 NA
BRANCH  28  30
ATOM     29  C   UNL     1       7.643   4.566  17.750  0.00  0.00    +0.000 C 
ATOM     30  C   UNL     1       6.526   5.260  18.515  0.00  0.00    +0.000 C 
ENDBRANCH  28  30
BRANCH  28  31
ATOM     31  C   UNL     1       7.071   7.265  17.079  0.00  0.00    +0.000 C 
ATOM     32  C   UNL     1       7.954   8.135  17.958  0.00  0.00    +0.000 C 
ENDBRANCH  28  31
ENDBRANCH  25  28
ENDBRANCH  19  25
ENDBRANCH   1  23
TORSDOF 6
ENDMDL
MODEL 4
REMARK VINA RESULT:      -7.2      4.171      9.530
REMARK  Name = 
REMARK  11 active torsions:
REMARK  status: ('A' for Active; 'I' for Inactive)
REMARK    1  A    between atoms: C_1  and  C_2
REMARK    2  A    between atoms: C_2  and  N_3
REMARK    3  A    between atoms: N_3  and  C_4
REMARK    4  A    between atoms: N_3  and  S_6
REMARK    5  A    between atoms: C_4  and  C_5
REMARK    6  A    between atoms: S_6  and  C_9
REMARK    7  A    between atoms: C_13  and  C_14
REMARK    8  A    between atoms: N_16  and  C_17
REMARK    9  A    between atoms: C_19  and  C_20
REMARK   10  A    between atoms: C_25  and  C_26
REMARK   11  A    between atoms: C_28  and  C_29
REMARK                            x       y       z     vdW  Elec       q    Type
REMARK                         _______ _______ _______ _____ _____    ______ ____
ROOT
ATOM      1  C   UNL     1       2.552   8.142  18.045  0.00  0.00    +0.000 C 
ATOM      2  O   UNL     1       2.953   8.734  17.055  0.00  0.00    +0.000 OA
ATOM      3  N   UNL     1       3.091   6.868  18.416  0.00  0.00    +0.000 N 
ATOM      4  H   UNL     1       2.782   6.382  19.259  0.00  0.00    +0.000 HD
ENDROOT
BRANCH   3   5
ATOM      5  C   UNL     1       4.123   6.223  17.718  0.00  0.00    +0.000 A 
ATOM      6  C   UNL     1       4.815   6.656  16.609  0.00  0.00    +0.000 A 
ATOM      7  C   UNL     1       5.751   5.640  16.322  0.00  0.00    +0.000 A 
ATOM      8  C   UNL     1       6.712   5.579  15.192  0.00  0.00    +0.000 C 
ATOM      9  N   UNL     1       5.695   4.645  17.210  0.00  0.00    +0.000 NA
ATOM     10  N   UNL     1       4.665   4.978  18.037  0.00  0.00    +0.000 N 
ATOM     11  C   UNL     1       4.194   4.115  19.081  0.00  0.00    +0.000 A 
ATOM     12  N   UNL     1       4.886   2.990  19.347  0.00  0.00    +0.000 NA
ATOM     13  C   UNL     1       4.396   2.171  20.298  0.00  0.00    +0.000 A 
ATOM     14  C   UNL     1       5.186   0.937  20.617  0.00  0.00    +0.000 C 
ATOM     15  C   UNL     1       3.210   2.437  20.954  0.00  0.00    +0.000 A 
ATOM     16  C   UNL     1       2.559   3.612  20.625  0.00  0.00    +0.000 A 
ATOM     17  C   UNL     1       1.235   3.951  21.245  0.00  0.00    +0.000 C 
ATOM     18  N   UNL     1       3.046   4.484  19.714  0.00  0.00    +0.000 NA
ENDBRANCH   3   5
BRANCH   1  23
ATOM     19  C   UNL     1      -0.274  10.286  19.419  0.00  0.00    +0.000 A 
ATOM     20  C   UNL     1      -0.380   9.780  20.718  0.00  0.00    +0.000 A 
ATOM     21  C   UNL     1       0.485   8.771  21.133  0.00  0.00    +0.000 A 
ATOM     22  C   UNL     1       1.437   8.265  20.247  0.00  0.00    +0.000 A 
ATOM     23  C   UNL     1       1.524   8.747  18.930  0.00  0.00    +0.000 A 
ATOM     24  C   UNL     1       0.667   9.771  18.512  0.00  0.00    +0.000 A 
BRANCH  19  25
ATOM     25  S   UNL     1      -1.388  11.579  18.908  0.00  0.00    +0.000 S 
ATOM     26  O   UNL     1      -0.676  12.370  17.934  0.00  0.00    +0.000 OA
ATOM     27  O   UNL     1      -1.924  12.174  20.115  0.00  0.00    +0.000 OA
BRANCH  25  28
ATOM     28  N   UNL     1      -2.662  10.737  18.126  0.00  0.00    +0.000 NA
BRANCH  28  30
ATOM     29  C   UNL     1      -5.173  10.751  18.301  0.00  0.00    +0.000 C 
ATOM     30  C   UNL     1      -3.916  11.525  17.935  0.00  0.00    +0.000 C 
ENDBRANCH  28  30
BRANCH  28  31
ATOM     31  C   UNL     1      -2.222   9.940  16.937  0.00  0.00    +0.000 C 
ATOM     32  C   UNL     1      -2.693  10.517  15.613  0.00  0.00    +0.000 C 
ENDBRANCH  28  31
ENDBRANCH  25  28
ENDBRANCH  19  25
ENDBRANCH   1  23
TORSDOF 6
ENDMDL
MODEL 5
REMARK VINA RESULT:      -7.1      0.939      1.396
REMARK  Name = 
REMARK  11 active torsions:
REMARK  status: ('A' for Active; 'I' for Inactive)
REMARK    1  A    between atoms: C_1  and  C_2
REMARK    2  A    between atoms: C_2  and  N_3
REMARK    3  A    between atoms: N_3  and  C_4
REMARK    4  A    between atoms: N_3  and  S_6
REMARK    5  A    between atoms: C_4  and  C_5
REMARK    6  A    between atoms: S_6  and  C_9
REMARK    7  A    between atoms: C_13  and  C_14
REMARK    8  A    between atoms: N_16  and  C_17
REMARK    9  A    between atoms: C_19  and  C_20
REMARK   10  A    between atoms: C_25  and  C_26
REMARK   11  A    between atoms: C_28  and  C_29
REMARK                            x       y       z     vdW  Elec       q    Type
REMARK                         _______ _______ _______ _____ _____    ______ ____
ROOT
ATOM      1  C   UNL     1       0.841   9.768  21.164  0.00  0.00    +0.000 C 
ATOM      2  O   UNL     1       1.211   9.649  22.322  0.00  0.00    +0.000 OA
ATOM      3  N   UNL     1      -0.107  10.773  20.788  0.00  0.00    +0.000 N 
ATOM      4  H   UNL     1      -0.397  10.898  19.817  0.00  0.00    +0.000 HD
ENDROOT
BRANCH   3   5
ATOM      5  C   UNL     1      -0.649  11.709  21.681  0.00  0.00    +0.000 A 
ATOM      6  C   UNL     1      -1.732  11.573  22.520  0.00  0.00    +0.000 A 
ATOM      7  C   UNL     1      -1.839  12.801  23.209  0.00  0.00    +0.000 A 
ATOM      8  C   UNL     1      -2.872  13.205  24.195  0.00  0.00    +0.000 C 
ATOM      9  N   UNL     1      -0.867  13.649  22.868  0.00  0.00    +0.000 NA
ATOM     10  N   UNL     1      -0.167  13.000  21.896  0.00  0.00    +0.000 N 
ATOM     11  C   UNL     1       0.911  13.610  21.174  0.00  0.00    +0.000 A 
ATOM     12  N   UNL     1       1.343  14.826  21.567  0.00  0.00    +0.000 NA
ATOM     13  C   UNL     1       2.323  15.399  20.843  0.00  0.00    +0.000 A 
ATOM     14  C   UNL     1       2.826  16.735  21.301  0.00  0.00    +0.000 C 
ATOM     15  C   UNL     1       2.847  14.799  19.714  0.00  0.00    +0.000 A 
ATOM     16  C   UNL     1       2.353  13.552  19.376  0.00  0.00    +0.000 A 
ATOM     17  C   UNL     1       2.822  12.854  18.134  0.00  0.00    +0.000 C 
ATOM     18  N   UNL     1       1.406  12.922  20.109  0.00  0.00    +0.000 NA
ENDBRANCH   3   5
BRANCH   1  23
ATOM     19  C   UNL     1       2.212   6.805  19.213  0.00  0.00    +0.000 A 
ATOM     20  C   UNL     1       2.443   7.394  17.966  0.00  0.00    +0.000 A 
ATOM     21  C   UNL     1       2.173   8.748  17.789  0.00  0.00    +0.000 A 
ATOM     22  C   UNL     1       1.664   9.500  18.849  0.00  0.00    +0.000 A 
ATOM     23  C   UNL     1       1.400   8.903  20.093  0.00  0.00    +0.000 A 
ATOM     24  C   UNL     1       1.682   7.545  20.282  0.00  0.00    +0.000 A 
BRANCH  19  25
ATOM     25  S   UNL     1       2.566   5.071  19.419  0.00  0.00    +0.000 S 
ATOM     26  O   UNL     1       1.468   4.356  18.814  0.00  0.00    +0.000 OA
ATOM     27  O   UNL     1       2.916   4.875  20.811  0.00  0.00    +0.000 OA
BRANCH  25  28
ATOM     28  N   UNL     1       3.981   4.826  18.481  0.00  0.00    +0.000 NA
BRANCH  28  30
ATOM     29  C   UNL     1       6.288   5.458  19.264  0.00  0.00    +0.000 C 
ATOM     30  C   UNL     1       5.188   4.408  19.255  0.00  0.00    +0.000 C 
ENDBRANCH  28  30
BRANCH  28  31
ATOM     31  C   UNL     1       3.744   4.068  17.211  0.00  0.00    +0.000 C 
ATOM     32  C   UNL     1       4.865   4.219  16.197  0.00  0.00    +0.000 C 
ENDBRANCH  28  31
ENDBRANCH  25  28
ENDBRANCH  19  25
ENDBRANCH   1  23
TORSDOF 6
ENDMDL
MODEL 6
REMARK VINA RESULT:      -7.0      2.991      4.224
REMARK  Name = 
REMARK  11 active torsions:
REMARK  status: ('A' for Active; 'I' for Inactive)
REMARK    1  A    between atoms: C_1  and  C_2
REMARK    2  A    between atoms: C_2  and  N_3
REMARK    3  A    between atoms: N_3  and  C_4
REMARK    4  A    between atoms: N_3  and  S_6
REMARK    5  A    between atoms: C_4  and  C_5
REMARK    6  A    between atoms: S_6  and  C_9
REMARK    7  A    between atoms: C_13  and  C_14
REMARK    8  A    between atoms: N_16  and  C_17
REMARK    9  A    between atoms: C_19  and  C_20
REMARK   10  A    between atoms: C_25  and  C_26
REMARK   11  A    between atoms: C_28  and  C_29
REMARK                            x       y       z     vdW  Elec       q    Type
REMARK                         _______ _______ _______ _____ _____    ______ ____
ROOT
ATOM      1  C   UNL     1       0.174   9.645  20.377  0.00  0.00    +0.000 C 
ATOM      2  O   UNL     1      -0.195   9.072  21.390  0.00  0.00    +0.000 OA
ATOM      3  N   UNL     1      -0.306  10.955  20.050  0.00  0.00    +0.000 N 
ATOM      4  H   UNL     1       0.022  11.452  19.221  0.00  0.00    +0.000 HD
ENDROOT
BRANCH   3   5
ATOM      5  C   UNL     1      -1.184  11.690  20.860  0.00  0.00    +0.000 A 
ATOM      6  C   UNL     1      -0.999  12.132  22.151  0.00  0.00    +0.000 A 
ATOM      7  C   UNL     1      -2.179  12.830  22.489  0.00  0.00    +0.000 A 
ATOM      8  C   UNL     1      -2.524  13.462  23.786  0.00  0.00    +0.000 C 
ATOM      9  N   UNL     1      -3.042  12.870  21.471  0.00  0.00    +0.000 NA
ATOM     10  N   UNL     1      -2.455  12.129  20.490  0.00  0.00    +0.000 N 
ATOM     11  C   UNL     1      -3.105  11.827  19.248  0.00  0.00    +0.000 A 
ATOM     12  N   UNL     1      -4.288  12.414  18.981  0.00  0.00    +0.000 NA
ATOM     13  C   UNL     1      -4.902  12.076  17.831  0.00  0.00    +0.000 A 
ATOM     14  C   UNL     1      -6.201  12.755  17.519  0.00  0.00    +0.000 C 
ATOM     15  C   UNL     1      -4.375  11.135  16.968  0.00  0.00    +0.000 A 
ATOM     16  C   UNL     1      -3.157  10.577  17.312  0.00  0.00    +0.000 A 
ATOM     17  C   UNL     1      -2.540   9.505  16.464  0.00  0.00    +0.000 C 
ATOM     18  N   UNL     1      -2.485  10.930  18.432  0.00  0.00    +0.000 NA
ENDBRANCH   3   5
BRANCH   1  23
ATOM     19  C   UNL     1       2.580   7.207  18.724  0.00  0.00    +0.000 A 
ATOM     20  C   UNL     1       3.056   7.984  17.663  0.00  0.00    +0.000 A 
ATOM     21  C   UNL     1       2.606   9.294  17.519  0.00  0.00    +0.000 A 
ATOM     22  C   UNL     1       1.678   9.813  18.423  0.00  0.00    +0.000 A 
ATOM     23  C   UNL     1       1.172   9.024  19.470  0.00  0.00    +0.000 A 
ATOM     24  C   UNL     1       1.632   7.711  19.628  0.00  0.00    +0.000 A 
BRANCH  19  25
ATOM     25  S   UNL     1       3.170   5.534  18.892  0.00  0.00    +0.000 S 
ATOM     26  O   UNL     1       2.369   4.728  18.001  0.00  0.00    +0.000 OA
ATOM     27  O   UNL     1       3.234   5.250  20.311  0.00  0.00    +0.000 OA
BRANCH  25  28
ATOM     28  N   UNL     1       4.777   5.603  18.295  0.00  0.00    +0.000 NA
BRANCH  28  30
ATOM     29  C   UNL     1       7.249   5.539  18.765  0.00  0.00    +0.000 C 
ATOM     30  C   UNL     1       5.840   5.392  19.322  0.00  0.00    +0.000 C 
ENDBRANCH  28  30
BRANCH  28  31
ATOM     31  C   UNL     1       4.978   4.867  17.007  0.00  0.00    +0.000 C 
ATOM     32  C   UNL     1       5.161   5.782  15.809  0.00  0.00    +0.000 C 
ENDBRANCH  28  31
ENDBRANCH  25  28
ENDBRANCH  19  25
ENDBRANCH   1  23
TORSDOF 6
ENDMDL
MODEL 7
REMARK VINA RESULT:      -6.9      2.132      4.391
REMARK  Name = 
REMARK  11 active torsions:
REMARK  status: ('A' for Active; 'I' for Inactive)
REMARK    1  A    between atoms: C_1  and  C_2
REMARK    2  A    between atoms: C_2  and  N_3
REMARK    3  A    between atoms: N_3  and  C_4
REMARK    4  A    between atoms: N_3  and  S_6
REMARK    5  A    between atoms: C_4  and  C_5
REMARK    6  A    between atoms: S_6  and  C_9
REMARK    7  A    between atoms: C_13  and  C_14
REMARK    8  A    between atoms: N_16  and  C_17
REMARK    9  A    between atoms: C_19  and  C_20
REMARK   10  A    between atoms: C_25  and  C_26
REMARK   11  A    between atoms: C_28  and  C_29
REMARK                            x       y       z     vdW  Elec       q    Type
REMARK                         _______ _______ _______ _____ _____    ______ ____
ROOT
ATOM      1  C   UNL     1       1.899   9.551  18.590  0.00  0.00    +0.000 C 
ATOM      2  O   UNL     1       1.570   9.810  17.443  0.00  0.00    +0.000 OA
ATOM      3  N   UNL     1       2.012  10.580  19.580  0.00  0.00    +0.000 N 
ATOM      4  H   UNL     1       2.257  10.365  20.548  0.00  0.00    +0.000 HD
ENDROOT
BRANCH   3   5
ATOM      5  C   UNL     1       1.726  11.931  19.338  0.00  0.00    +0.000 A 
ATOM      6  C   UNL     1       2.326  12.793  18.448  0.00  0.00    +0.000 A 
ATOM      7  C   UNL     1       1.653  14.025  18.595  0.00  0.00    +0.000 A 
ATOM      8  C   UNL     1       1.940  15.308  17.907  0.00  0.00    +0.000 C 
ATOM      9  N   UNL     1       0.661  13.947  19.485  0.00  0.00    +0.000 NA
ATOM     10  N   UNL     1       0.737  12.679  19.977  0.00  0.00    +0.000 N 
ATOM     11  C   UNL     1      -0.092  12.208  21.048  0.00  0.00    +0.000 A 
ATOM     12  N   UNL     1      -1.083  13.006  21.494  0.00  0.00    +0.000 NA
ATOM     13  C   UNL     1      -1.815  12.562  22.533  0.00  0.00    +0.000 A 
ATOM     14  C   UNL     1      -2.939  13.436  23.005  0.00  0.00    +0.000 C 
ATOM     15  C   UNL     1      -1.549  11.360  23.157  0.00  0.00    +0.000 A 
ATOM     16  C   UNL     1      -0.516  10.597  22.641  0.00  0.00    +0.000 A 
ATOM     17  C   UNL     1      -0.120   9.306  23.293  0.00  0.00    +0.000 C 
ATOM     18  N   UNL     1       0.208  10.985  21.566  0.00  0.00    +0.000 NA
ENDBRANCH   3   5
BRANCH   1  23
ATOM     19  C   UNL     1       3.151   5.964  18.776  0.00  0.00    +0.000 A 
ATOM     20  C   UNL     1       2.524   5.526  19.947  0.00  0.00    +0.000 A 
ATOM     21  C   UNL     1       1.685   6.395  20.640  0.00  0.00    +0.000 A 
ATOM     22  C   UNL     1       1.490   7.695  20.170  0.00  0.00    +0.000 A 
ATOM     23  C   UNL     1       2.146   8.148  19.013  0.00  0.00    +0.000 A 
ATOM     24  C   UNL     1       2.978   7.275  18.304  0.00  0.00    +0.000 A 
BRANCH  19  25
ATOM     25  S   UNL     1       4.218   4.835  17.903  0.00  0.00    +0.000 S 
ATOM     26  O   UNL     1       3.388   4.156  16.936  0.00  0.00    +0.000 OA
ATOM     27  O   UNL     1       4.964   4.101  18.904  0.00  0.00    +0.000 OA
BRANCH  25  28
ATOM     28  N   UNL     1       5.315   5.864  17.078  0.00  0.00    +0.000 NA
BRANCH  28  30
ATOM     29  C   UNL     1       7.292   7.357  17.522  0.00  0.00    +0.000 C 
ATOM     30  C   UNL     1       6.663   5.984  17.708  0.00  0.00    +0.000 C 
ENDBRANCH  28  30
BRANCH  28  31
ATOM     31  C   UNL     1       5.319   5.679  15.592  0.00  0.00    +0.000 C 
ATOM     32  C   UNL     1       6.347   4.669  15.110  0.00  0.00    +0.000 C 
ENDBRANCH  28  31
ENDBRANCH  25  28
ENDBRANCH  19  25
ENDBRANCH   1  23
TORSDOF 6
ENDMDL
MODEL 8
REMARK VINA RESULT:      -6.9      1.053      1.549
REMARK  Name = 
REMARK  11 active torsions:
REMARK  status: ('A' for Active; 'I' for Inactive)
REMARK    1  A    between atoms: C_1  and  C_2
REMARK    2  A    between atoms: C_2  and  N_3
REMARK    3  A    between atoms: N_3  and  C_4
REMARK    4  A    between atoms: N_3  and  S_6
REMARK    5  A    between atoms: C_4  and  C_5
REMARK    6  A    between atoms: S_6  and  C_9
REMARK    7  A    between atoms: C_13  and  C_14
REMARK    8  A    between atoms: N_16  and  C_17
REMARK    9  A    between atoms: C_19  and  C_20
REMARK   10  A    between atoms: C_25  and  C_26
REMARK   11  A    between atoms: C_28  and  C_29
REMARK                            x       y       z     vdW  Elec       q    Type
REMARK                         _______ _______ _______ _____ _____    ______ ____
ROOT
ATOM      1  C   UNL     1       0.847   9.580  21.413  0.00  0.00    +0.000 C 
ATOM      2  O   UNL     1       1.244   9.575  22.567  0.00  0.00    +0.000 OA
ATOM      3  N   UNL     1      -0.075  10.572  20.950  0.00  0.00    +0.000 N 
ATOM      4  H   UNL     1      -0.387  10.600  19.978  0.00  0.00    +0.000 HD
ENDROOT
BRANCH   3   5
ATOM      5  C   UNL     1      -0.560  11.620  21.747  0.00  0.00    +0.000 A 
ATOM      6  C   UNL     1      -1.597  11.606  22.652  0.00  0.00    +0.000 A 
ATOM      7  C   UNL     1      -1.656  12.911  23.187  0.00  0.00    +0.000 A 
ATOM      8  C   UNL     1      -2.631  13.450  24.168  0.00  0.00    +0.000 C 
ATOM      9  N   UNL     1      -0.698  13.696  22.691  0.00  0.00    +0.000 NA
ATOM     10  N   UNL     1      -0.056  12.920  21.773  0.00  0.00    +0.000 N 
ATOM     11  C   UNL     1       0.986  13.420  20.924  0.00  0.00    +0.000 A 
ATOM     12  N   UNL     1       1.448  14.668  21.138  0.00  0.00    +0.000 NA
ATOM     13  C   UNL     1       2.392  15.132  20.297  0.00  0.00    +0.000 A 
ATOM     14  C   UNL     1       2.930  16.507  20.557  0.00  0.00    +0.000 C 
ATOM     15  C   UNL     1       2.849  14.389  19.226  0.00  0.00    +0.000 A 
ATOM     16  C   UNL     1       2.326  13.117  19.073  0.00  0.00    +0.000 A 
ATOM     17  C   UNL     1       2.722  12.263  17.905  0.00  0.00    +0.000 C 
ATOM     18  N   UNL     1       1.416  12.597  19.928  0.00  0.00    +0.000 NA
ENDBRANCH   3   5
BRANCH   1  23
ATOM     19  C   UNL     1       1.987   6.355  19.748  0.00  0.00    +0.000 A 
ATOM     20  C   UNL     1       2.290   6.814  18.463  0.00  0.00    +0.000 A 
ATOM     21  C   UNL     1       2.143   8.167  18.167  0.00  0.00    +0.000 A 
ATOM     22  C   UNL     1       1.684   9.047  19.149  0.00  0.00    +0.000 A 
ATOM     23  C   UNL     1       1.346   8.582  20.431  0.00  0.00    +0.000 A 
ATOM     24  C   UNL     1       1.506   7.226  20.738  0.00  0.00    +0.000 A 
BRANCH  19  25
ATOM     25  S   UNL     1       2.184   4.621  20.106  0.00  0.00    +0.000 S 
ATOM     26  O   UNL     1       1.103   3.940  19.432  0.00  0.00    +0.000 OA
ATOM     27  O   UNL     1       2.371   4.504  21.538  0.00  0.00    +0.000 OA
BRANCH  25  28
ATOM     28  N   UNL     1       3.667   4.210  19.347  0.00  0.00    +0.000 NA
BRANCH  28  30
ATOM     29  C   UNL     1       3.622   2.106  17.966  0.00  0.00    +0.000 C 
ATOM     30  C   UNL     1       3.534   3.625  17.979  0.00  0.00    +0.000 C 
ENDBRANCH  28  30
BRANCH  28  31
ATOM     31  C   UNL     1       4.732   5.252  19.495  0.00  0.00    +0.000 C 
ATOM     32  C   UNL     1       5.946   5.006  18.614  0.00  0.00    +0.000 C 
ENDBRANCH  28  31
ENDBRANCH  25  28
ENDBRANCH  19  25
ENDBRANCH   1  23
TORSDOF 6
ENDMDL
MODEL 9
REMARK VINA RESULT:      -6.9      2.784      4.009
REMARK  Name = 
REMARK  11 active torsions:
REMARK  status: ('A' for Active; 'I' for Inactive)
REMARK    1  A    between atoms: C_1  and  C_2
REMARK    2  A    between atoms: C_2  and  N_3
REMARK    3  A    between atoms: N_3  and  C_4
REMARK    4  A    between atoms: N_3  and  S_6
REMARK    5  A    between atoms: C_4  and  C_5
REMARK    6  A    between atoms: S_6  and  C_9
REMARK    7  A    between atoms: C_13  and  C_14
REMARK    8  A    between atoms: N_16  and  C_17
REMARK    9  A    between atoms: C_19  and  C_20
REMARK   10  A    between atoms: C_25  and  C_26
REMARK   11  A    between atoms: C_28  and  C_29
REMARK                            x       y       z     vdW  Elec       q    Type
REMARK                         _______ _______ _______ _____ _____    ______ ____
ROOT
ATOM      1  C   UNL     1       0.480   9.349  20.364  0.00  0.00    +0.000 C 
ATOM      2  O   UNL     1       0.215   8.818  21.431  0.00  0.00    +0.000 OA
ATOM      3  N   UNL     1      -0.082  10.617  20.006  0.00  0.00    +0.000 N 
ATOM      4  H   UNL     1       0.160  11.080  19.129  0.00  0.00    +0.000 HD
ENDROOT
BRANCH   3   5
ATOM      5  C   UNL     1      -0.930  11.359  20.842  0.00  0.00    +0.000 A 
ATOM      6  C   UNL     1      -0.723  11.759  22.143  0.00  0.00    +0.000 A 
ATOM      7  C   UNL     1      -1.876  12.488  22.507  0.00  0.00    +0.000 A 
ATOM      8  C   UNL     1      -2.192  13.095  23.823  0.00  0.00    +0.000 C 
ATOM      9  N   UNL     1      -2.743  12.586  21.496  0.00  0.00    +0.000 NA
ATOM     10  N   UNL     1      -2.186  11.853  20.491  0.00  0.00    +0.000 N 
ATOM     11  C   UNL     1      -2.852  11.608  19.245  0.00  0.00    +0.000 A 
ATOM     12  N   UNL     1      -4.015  12.243  19.001  0.00  0.00    +0.000 NA
ATOM     13  C   UNL     1      -4.646  11.959  17.846  0.00  0.00    +0.000 A 
ATOM     14  C   UNL     1      -5.923  12.692  17.560  0.00  0.00    +0.000 C 
ATOM     15  C   UNL     1      -4.157  11.024  16.954  0.00  0.00    +0.000 A 
ATOM     16  C   UNL     1      -2.957  10.416  17.275  0.00  0.00    +0.000 A 
ATOM     17  C   UNL     1      -2.382   9.347  16.394  0.00  0.00    +0.000 C 
ATOM     18  N   UNL     1      -2.268  10.714  18.400  0.00  0.00    +0.000 NA
ENDBRANCH   3   5
BRANCH   1  23
ATOM     19  C   UNL     1       2.897   6.941  18.682  0.00  0.00    +0.000 A 
ATOM     20  C   UNL     1       3.220   7.656  17.526  0.00  0.00    +0.000 A 
ATOM     21  C   UNL     1       2.668   8.918  17.325  0.00  0.00    +0.000 A 
ATOM     22  C   UNL     1       1.789   9.451  18.270  0.00  0.00    +0.000 A 
ATOM     23  C   UNL     1       1.436   8.719  19.417  0.00  0.00    +0.000 A 
ATOM     24  C   UNL     1       1.999   7.456  19.631  0.00  0.00    +0.000 A 
BRANCH  19  25
ATOM     25  S   UNL     1       3.616   5.328  18.921  0.00  0.00    +0.000 S 
ATOM     26  O   UNL     1       4.668   5.491  19.896  0.00  0.00    +0.000 OA
ATOM     27  O   UNL     1       3.887   4.788  17.605  0.00  0.00    +0.000 OA
BRANCH  25  28
ATOM     28  N   UNL     1       2.343   4.410  19.615  0.00  0.00    +0.000 NA
BRANCH  28  30
ATOM     29  C   UNL     1       1.419   2.410  18.399  0.00  0.00    +0.000 C 
ATOM     30  C   UNL     1       1.325   3.908  18.645  0.00  0.00    +0.000 C 
ENDBRANCH  28  30
BRANCH  28  31
ATOM     31  C   UNL     1       2.801   3.412  20.634  0.00  0.00    +0.000 C 
ATOM     32  C   UNL     1       1.788   3.167  21.739  0.00  0.00    +0.000 C 
ENDBRANCH  28  31
ENDBRANCH  25  28
ENDBRANCH  19  25
ENDBRANCH   1  23
TORSDOF 6
ENDMDL
