MODEL 1
REMARK VINA RESULT:      -7.9      0.000      0.000
REMARK  Name = 
REMARK  9 active torsions:
REMARK  status: ('A' for Active; 'I' for Inactive)
REMARK    1  A    between atoms: C_2  and  C_3
REMARK    2  A    between atoms: C_2  and  C_9
REMARK    3  A    between atoms: C_12  and  O_13
REMARK    4  A    between atoms: O_13  and  C_14
REMARK    5  A    between atoms: C_16  and  C_17
REMARK    6  A    between atoms: C_17  and  O_18
REMARK    7  A    between atoms: C_19  and  O_20
REMARK    8  A    between atoms: C_21  and  O_22
REMARK    9  A    between atoms: C_23  and  O_24
REMARK                            x       y       z     vdW  Elec       q    Type
REMARK                         _______ _______ _______ _____ _____    ______ ____
ROOT
ATOM      1  O   UNL     1       3.258   6.645  19.244  0.00  0.00    +0.000 OA
ENDROOT
BRANCH   1   5
ATOM      2  C   UNL     1       0.727   9.946  18.908  0.00  0.00    +0.000 A 
ATOM      3  C   UNL     1       0.838   9.301  20.142  0.00  0.00    +0.000 A 
ATOM      4  C   UNL     1       1.650   8.169  20.275  0.00  0.00    +0.000 A 
ATOM      5  C   UNL     1       2.386   7.698  19.189  0.00  0.00    +0.000 A 
ATOM      6  C   UNL     1       2.324   8.383  17.971  0.00  0.00    +0.000 A 
ATOM      7  C   UNL     1       1.493   9.502  17.826  0.00  0.00    +0.000 A 
BRANCH   2   9
ATOM      8  O   UNL     1       0.251  12.244  19.010  0.00  0.00    +0.000 OA
ATOM      9  C   UNL     1      -0.166  11.121  18.737  0.00  0.00    +0.000 C 
BRANCH   9  10
ATOM     10  C   UNL     1      -1.564  10.962  18.242  0.00  0.00    +0.000 A 
ATOM     11  C   UNL     1      -1.882  10.052  17.223  0.00  0.00    +0.000 A 
ATOM     12  C   UNL     1      -3.206   9.898  16.807  0.00  0.00    +0.000 A 
ATOM     13  C   UNL     1      -4.212  10.676  17.381  0.00  0.00    +0.000 A 
ATOM     14  C   UNL     1      -3.898  11.605  18.366  0.00  0.00    +0.000 A 
ATOM     15  C   UNL     1      -2.575  11.754  18.797  0.00  0.00    +0.000 A 
ENDBRANCH   9  10
ENDBRANCH   2   9
ENDBRANCH   1   5
BRANCH   1  16
ATOM     16  C   UNL     1       2.716   5.346  18.946  0.00  0.00    +0.000 C 
ATOM     17  O   UNL     1       2.354   4.633  20.134  0.00  0.00    +0.000 OA
ATOM     18  C   UNL     1       1.730   3.380  19.854  0.00  0.00    +0.000 C 
ATOM     19  C   UNL     1       2.745   2.443  19.190  0.00  0.00    +0.000 C 
ATOM     20  C   UNL     1       3.300   3.108  17.921  0.00  0.00    +0.000 C 
ATOM     21  C   UNL     1       3.805   4.537  18.194  0.00  0.00    +0.000 C 
BRANCH  19  22
ATOM     22  O   UNL     1       2.123   1.185  18.897  0.00  0.00    +0.000 OA
ATOM     23  H   UNL     1       2.367   0.927  17.987  0.00  0.00    +0.000 HD
ENDBRANCH  19  22
BRANCH  20  24
ATOM     24  O   UNL     1       4.323   2.273  17.364  0.00  0.00    +0.000 OA
ATOM     25  H   UNL     1       5.016   2.142  18.037  0.00  0.00    +0.000 HD
ENDBRANCH  20  24
BRANCH  21  26
ATOM     26  O   UNL     1       4.197   5.161  16.962  0.00  0.00    +0.000 OA
ATOM     27  H   UNL     1       3.841   4.649  16.217  0.00  0.00    +0.000 HD
ENDBRANCH  21  26
BRANCH  18  28
ATOM     28  C   UNL     1       1.180   2.789  21.159  0.00  0.00    +0.000 C 
BRANCH  28  29
ATOM     29  O   UNL     1       2.183   2.674  22.162  0.00  0.00    +0.000 OA
ATOM     30  H   UNL     1       1.723   2.435  22.997  0.00  0.00    +0.000 HD
ENDBRANCH  28  29
ENDBRANCH  18  28
ENDBRANCH   1  16
TORSDOF 9
ENDMDL
MODEL 2
REMARK VINA RESULT:      -7.9      2.069      8.509
REMARK  Name = 
REMARK  9 active torsions:
REMARK  status: ('A' for Active; 'I' for Inactive)
REMARK    1  A    between atoms: C_2  and  C_3
REMARK    2  A    between atoms: C_2  and  C_9
REMARK    3  A    between atoms: C_12  and  O_13
REMARK    4  A    between atoms: O_13  and  C_14
REMARK    5  A    between atoms: C_16  and  C_17
REMARK    6  A    between atoms: C_17  and  O_18
REMARK    7  A    between atoms: C_19  and  O_20
REMARK    8  A    between atoms: C_21  and  O_22
REMARK    9  A    between atoms: C_23  and  O_24
REMARK                            x       y       z     vdW  Elec       q    Type
REMARK                         _______ _______ _______ _____ _____    ______ ____
ROOT
ATOM      1  O   UNL     1       0.379  10.768  18.975  0.00  0.00    +0.000 OA
ENDROOT
BRANCH   1   5
ATOM      2  C   UNL     1       2.440   7.155  19.303  0.00  0.00    +0.000 A 
ATOM      3  C   UNL     1       2.480   7.848  18.092  0.00  0.00    +0.000 A 
ATOM      4  C   UNL     1       1.768   9.044  17.941  0.00  0.00    +0.000 A 
ATOM      5  C   UNL     1       1.045   9.573  19.009  0.00  0.00    +0.000 A 
ATOM      6  C   UNL     1       1.058   8.910  20.240  0.00  0.00    +0.000 A 
ATOM      7  C   UNL     1       1.749   7.700  20.389  0.00  0.00    +0.000 A 
BRANCH   2   9
ATOM      8  O   UNL     1       4.379   5.850  19.543  0.00  0.00    +0.000 OA
ATOM      9  C   UNL     1       3.153   5.860  19.467  0.00  0.00    +0.000 C 
BRANCH   9  10
ATOM     10  C   UNL     1       2.405   4.572  19.538  0.00  0.00    +0.000 A 
ATOM     11  C   UNL     1       2.043   3.869  18.380  0.00  0.00    +0.000 A 
ATOM     12  C   UNL     1       1.377   2.645  18.481  0.00  0.00    +0.000 A 
ATOM     13  C   UNL     1       1.038   2.137  19.735  0.00  0.00    +0.000 A 
ATOM     14  C   UNL     1       1.362   2.848  20.885  0.00  0.00    +0.000 A 
ATOM     15  C   UNL     1       2.042   4.067  20.791  0.00  0.00    +0.000 A 
ENDBRANCH   9  10
ENDBRANCH   2   9
ENDBRANCH   1   5
BRANCH   1  16
ATOM     16  C   UNL     1      -1.051  10.702  18.834  0.00  0.00    +0.000 C 
ATOM     17  O   UNL     1      -1.451  10.630  17.461  0.00  0.00    +0.000 OA
ATOM     18  C   UNL     1      -2.860  10.472  17.305  0.00  0.00    +0.000 C 
ATOM     19  C   UNL     1      -3.572  11.736  17.801  0.00  0.00    +0.000 C 
ATOM     20  C   UNL     1      -3.178  12.004  19.262  0.00  0.00    +0.000 C 
ATOM     21  C   UNL     1      -1.650  11.990  19.458  0.00  0.00    +0.000 C 
BRANCH  19  22
ATOM     22  O   UNL     1      -4.990  11.581  17.658  0.00  0.00    +0.000 OA
ATOM     23  H   UNL     1      -5.373  12.452  17.435  0.00  0.00    +0.000 HD
ENDBRANCH  19  22
BRANCH  20  24
ATOM     24  O   UNL     1      -3.763  13.242  19.685  0.00  0.00    +0.000 OA
ATOM     25  H   UNL     1      -3.876  13.814  18.903  0.00  0.00    +0.000 HD
ENDBRANCH  20  24
BRANCH  21  26
ATOM     26  O   UNL     1      -1.335  12.120  20.852  0.00  0.00    +0.000 OA
ATOM     27  H   UNL     1      -1.170  11.239  21.226  0.00  0.00    +0.000 HD
ENDBRANCH  21  26
BRANCH  18  28
ATOM     28  C   UNL     1      -3.175  10.183  15.831  0.00  0.00    +0.000 C 
BRANCH  28  29
ATOM     29  O   UNL     1      -3.382  11.375  15.082  0.00  0.00    +0.000 OA
ATOM     30  H   UNL     1      -3.188  12.127  15.685  0.00  0.00    +0.000 HD
ENDBRANCH  28  29
ENDBRANCH  18  28
ENDBRANCH   1  16
TORSDOF 9
ENDMDL
MODEL 3
REMARK VINA RESULT:      -7.8      0.406      1.029
REMARK  Name = 
REMARK  9 active torsions:
REMARK  status: ('A' for Active; 'I' for Inactive)
REMARK    1  A    between atoms: C_2  and  C_3
REMARK    2  A    between atoms: C_2  and  C_9
REMARK    3  A    between atoms: C_12  and  O_13
REMARK    4  A    between atoms: O_13  and  C_14
REMARK    5  A    between atoms: C_16  and  C_17
REMARK    6  A    between atoms: C_17  and  O_18
REMARK    7  A    between atoms: C_19  and  O_20
REMARK    8  A    between atoms: C_21  and  O_22
REMARK    9  A    between atoms: C_23  and  O_24
REMARK                            x       y       z     vdW  Elec       q    Type
REMARK                         _______ _______ _______ _____ _____    ______ ____
ROOT
ATOM      1  O   UNL     1       3.138   6.835  19.449  0.00  0.00    +0.000 OA
ENDROOT
BRANCH   1   5
ATOM      2  C   UNL     1       0.364   9.933  19.102  0.00  0.00    +0.000 A 
ATOM      3  C   UNL     1       1.075   9.532  17.968  0.00  0.00    +0.000 A 
ATOM      4  C   UNL     1       2.039   8.521  18.063  0.00  0.00    +0.000 A 
ATOM      5  C   UNL     1       2.270   7.878  19.278  0.00  0.00    +0.000 A 
ATOM      6  C   UNL     1       1.511   8.237  20.398  0.00  0.00    +0.000 A 
ATOM      7  C   UNL     1       0.563   9.265  20.314  0.00  0.00    +0.000 A 
BRANCH   2   9
ATOM      8  O   UNL     1      -0.441  12.064  19.677  0.00  0.00    +0.000 OA
ATOM      9  C   UNL     1      -0.630  11.036  19.030  0.00  0.00    +0.000 C 
BRANCH   9  10
ATOM     10  C   UNL     1      -1.853  10.917  18.186  0.00  0.00    +0.000 A 
ATOM     11  C   UNL     1      -1.908  10.041  17.092  0.00  0.00    +0.000 A 
ATOM     12  C   UNL     1      -3.082   9.924  16.344  0.00  0.00    +0.000 A 
ATOM     13  C   UNL     1      -4.192  10.706  16.663  0.00  0.00    +0.000 A 
ATOM     14  C   UNL     1      -4.132  11.603  17.723  0.00  0.00    +0.000 A 
ATOM     15  C   UNL     1      -2.964  11.714  18.485  0.00  0.00    +0.000 A 
ENDBRANCH   9  10
ENDBRANCH   2   9
ENDBRANCH   1   5
BRANCH   1  16
ATOM     16  C   UNL     1       2.661   5.533  19.068  0.00  0.00    +0.000 C 
ATOM     17  O   UNL     1       2.324   4.733  20.207  0.00  0.00    +0.000 OA
ATOM     18  C   UNL     1       1.762   3.471  19.847  0.00  0.00    +0.000 C 
ATOM     19  C   UNL     1       2.826   2.624  19.139  0.00  0.00    +0.000 C 
ATOM     20  C   UNL     1       3.360   3.390  17.918  0.00  0.00    +0.000 C 
ATOM     21  C   UNL     1       3.794   4.822  18.281  0.00  0.00    +0.000 C 
BRANCH  19  22
ATOM     22  O   UNL     1       2.268   1.358  18.764  0.00  0.00    +0.000 OA
ATOM     23  H   UNL     1       1.867   1.450  17.878  0.00  0.00    +0.000 HD
ENDBRANCH  19  22
BRANCH  20  24
ATOM     24  O   UNL     1       4.425   2.639  17.323  0.00  0.00    +0.000 OA
ATOM     25  H   UNL     1       4.684   1.929  17.939  0.00  0.00    +0.000 HD
ENDBRANCH  20  24
BRANCH  21  26
ATOM     26  O   UNL     1       4.165   5.536  17.093  0.00  0.00    +0.000 OA
ATOM     27  H   UNL     1       3.732   6.407  17.094  0.00  0.00    +0.000 HD
ENDBRANCH  21  26
BRANCH  18  28
ATOM     28  C   UNL     1       1.231   2.778  21.108  0.00  0.00    +0.000 C 
BRANCH  28  29
ATOM     29  O   UNL     1       2.182   2.785  22.167  0.00  0.00    +0.000 OA
ATOM     30  H   UNL     1       3.066   2.895  21.754  0.00  0.00    +0.000 HD
ENDBRANCH  28  29
ENDBRANCH  18  28
ENDBRANCH   1  16
TORSDOF 9
ENDMDL
MODEL 4
REMARK VINA RESULT:      -7.8      0.792      1.240
REMARK  Name = 
REMARK  9 active torsions:
REMARK  status: ('A' for Active; 'I' for Inactive)
REMARK    1  A    between atoms: C_2  and  C_3
REMARK    2  A    between atoms: C_2  and  C_9
REMARK    3  A    between atoms: C_12  and  O_13
REMARK    4  A    between atoms: O_13  and  C_14
REMARK    5  A    between atoms: C_16  and  C_17
REMARK    6  A    between atoms: C_17  and  O_18
REMARK    7  A    between atoms: C_19  and  O_20
REMARK    8  A    between atoms: C_21  and  O_22
REMARK    9  A    between atoms: C_23  and  O_24
REMARK                            x       y       z     vdW  Elec       q    Type
REMARK                         _______ _______ _______ _____ _____    ______ ____
ROOT
ATOM      1  O   UNL     1       3.087   6.777  19.455  0.00  0.00    +0.000 OA
ENDROOT
BRANCH   1   5
ATOM      2  C   UNL     1       0.503  10.029  19.047  0.00  0.00    +0.000 A 
ATOM      3  C   UNL     1       0.578   9.375  20.279  0.00  0.00    +0.000 A 
ATOM      4  C   UNL     1       1.408   8.259  20.434  0.00  0.00    +0.000 A 
ATOM      5  C   UNL     1       2.196   7.813  19.374  0.00  0.00    +0.000 A 
ATOM      6  C   UNL     1       2.167   8.508  18.160  0.00  0.00    +0.000 A 
ATOM      7  C   UNL     1       1.320   9.611  17.992  0.00  0.00    +0.000 A 
BRANCH   2   9
ATOM      8  O   UNL     1      -0.057  12.304  19.227  0.00  0.00    +0.000 OA
ATOM      9  C   UNL     1      -0.408  11.187  18.851  0.00  0.00    +0.000 C 
BRANCH   9  10
ATOM     10  C   UNL     1      -1.742  11.019  18.206  0.00  0.00    +0.000 A 
ATOM     11  C   UNL     1      -2.852  11.775  18.609  0.00  0.00    +0.000 A 
ATOM     12  C   UNL     1      -4.079  11.622  17.959  0.00  0.00    +0.000 A 
ATOM     13  C   UNL     1      -4.212  10.689  16.931  0.00  0.00    +0.000 A 
ATOM     14  C   UNL     1      -3.124   9.910  16.552  0.00  0.00    +0.000 A 
ATOM     15  C   UNL     1      -1.889  10.069  17.189  0.00  0.00    +0.000 A 
ENDBRANCH   9  10
ENDBRANCH   2   9
ENDBRANCH   1   5
BRANCH   1  16
ATOM     16  C   UNL     1       2.773   5.600  18.691  0.00  0.00    +0.000 C 
ATOM     17  O   UNL     1       2.102   4.613  19.483  0.00  0.00    +0.000 OA
ATOM     18  C   UNL     1       1.700   3.475  18.720  0.00  0.00    +0.000 C 
ATOM     19  C   UNL     1       2.945   2.728  18.229  0.00  0.00    +0.000 C 
ATOM     20  C   UNL     1       3.829   3.687  17.416  0.00  0.00    +0.000 C 
ATOM     21  C   UNL     1       4.106   4.998  18.175  0.00  0.00    +0.000 C 
BRANCH  19  22
ATOM     22  O   UNL     1       2.552   1.588  17.452  0.00  0.00    +0.000 OA
ATOM     23  H   UNL     1       1.627   1.368  17.678  0.00  0.00    +0.000 HD
ENDBRANCH  19  22
BRANCH  20  24
ATOM     24  O   UNL     1       5.038   3.012  17.048  0.00  0.00    +0.000 OA
ATOM     25  H   UNL     1       4.830   2.074  16.879  0.00  0.00    +0.000 HD
ENDBRANCH  20  24
BRANCH  21  26
ATOM     26  O   UNL     1       4.827   5.909  17.332  0.00  0.00    +0.000 OA
ATOM     27  H   UNL     1       5.779   5.729  17.408  0.00  0.00    +0.000 HD
ENDBRANCH  21  26
BRANCH  18  28
ATOM     28  C   UNL     1       0.805   2.579  19.586  0.00  0.00    +0.000 C 
BRANCH  28  29
ATOM     29  O   UNL     1       0.689   3.061  20.920  0.00  0.00    +0.000 OA
ATOM     30  H   UNL     1       1.318   2.540  21.465  0.00  0.00    +0.000 HD
ENDBRANCH  28  29
ENDBRANCH  18  28
ENDBRANCH   1  16
TORSDOF 9
ENDMDL
MODEL 5
REMARK VINA RESULT:      -7.7      2.140      8.487
REMARK  Name = 
REMARK  9 active torsions:
REMARK  status: ('A' for Active; 'I' for Inactive)
REMARK    1  A    between atoms: C_2  and  C_3
REMARK    2  A    between atoms: C_2  and  C_9
REMARK    3  A    between atoms: C_12  and  O_13
REMARK    4  A    between atoms: O_13  and  C_14
REMARK    5  A    between atoms: C_16  and  C_17
REMARK    6  A    between atoms: C_17  and  O_18
REMARK    7  A    between atoms: C_19  and  O_20
REMARK    8  A    between atoms: C_21  and  O_22
REMARK    9  A    between atoms: C_23  and  O_24
REMARK                            x       y       z     vdW  Elec       q    Type
REMARK                         _______ _______ _______ _____ _____    ______ ____
ROOT
ATOM      1  O   UNL     1       0.248  10.827  19.391  0.00  0.00    +0.000 OA
ENDROOT
BRANCH   1   5
ATOM      2  C   UNL     1       2.463   7.333  18.838  0.00  0.00    +0.000 A 
ATOM      3  C   UNL     1       1.889   7.579  20.088  0.00  0.00    +0.000 A 
ATOM      4  C   UNL     1       1.172   8.761  20.313  0.00  0.00    +0.000 A 
ATOM      5  C   UNL     1       0.991   9.683  19.283  0.00  0.00    +0.000 A 
ATOM      6  C   UNL     1       1.513   9.404  18.015  0.00  0.00    +0.000 A 
ATOM      7  C   UNL     1       2.252   8.235  17.791  0.00  0.00    +0.000 A 
BRANCH   2   9
ATOM      8  O   UNL     1       4.403   6.207  18.138  0.00  0.00    +0.000 OA
ATOM      9  C   UNL     1       3.267   6.106  18.595  0.00  0.00    +0.000 C 
BRANCH   9  10
ATOM     10  C   UNL     1       2.717   4.753  18.895  0.00  0.00    +0.000 A 
ATOM     11  C   UNL     1       1.673   4.201  18.138  0.00  0.00    +0.000 A 
ATOM     12  C   UNL     1       1.206   2.915  18.419  0.00  0.00    +0.000 A 
ATOM     13  C   UNL     1       1.754   2.190  19.478  0.00  0.00    +0.000 A 
ATOM     14  C   UNL     1       2.764   2.747  20.254  0.00  0.00    +0.000 A 
ATOM     15  C   UNL     1       3.246   4.029  19.969  0.00  0.00    +0.000 A 
ENDBRANCH   9  10
ENDBRANCH   2   9
ENDBRANCH   1   5
BRANCH   1  16
ATOM     16  C   UNL     1      -1.151  10.716  19.080  0.00  0.00    +0.000 C 
ATOM     17  O   UNL     1      -1.381  10.643  17.668  0.00  0.00    +0.000 OA
ATOM     18  C   UNL     1      -2.756  10.440  17.343  0.00  0.00    +0.000 C 
ATOM     19  C   UNL     1      -3.563  11.676  17.756  0.00  0.00    +0.000 C 
ATOM     20  C   UNL     1      -3.356  11.944  19.255  0.00  0.00    +0.000 C 
ATOM     21  C   UNL     1      -1.864  11.977  19.634  0.00  0.00    +0.000 C 
BRANCH  19  22
ATOM     22  O   UNL     1      -4.948  11.477  17.443  0.00  0.00    +0.000 OA
ATOM     23  H   UNL     1      -5.015  10.746  16.799  0.00  0.00    +0.000 HD
ENDBRANCH  19  22
BRANCH  20  24
ATOM     24  O   UNL     1      -4.029  13.158  19.611  0.00  0.00    +0.000 OA
ATOM     25  H   UNL     1      -4.854  13.217  19.095  0.00  0.00    +0.000 HD
ENDBRANCH  20  24
BRANCH  21  26
ATOM     26  O   UNL     1      -1.722  12.106  21.056  0.00  0.00    +0.000 OA
ATOM     27  H   UNL     1      -1.052  12.782  21.251  0.00  0.00    +0.000 HD
ENDBRANCH  21  26
BRANCH  18  28
ATOM     28  C   UNL     1      -2.882  10.155  15.841  0.00  0.00    +0.000 C 
BRANCH  28  29
ATOM     29  O   UNL     1      -3.214  11.323  15.098  0.00  0.00    +0.000 OA
ATOM     30  H   UNL     1      -2.378  11.819  14.961  0.00  0.00    +0.000 HD
ENDBRANCH  28  29
ENDBRANCH  18  28
ENDBRANCH   1  16
TORSDOF 9
ENDMDL
MODEL 6
REMARK VINA RESULT:      -7.7      2.437      4.259
REMARK  Name = 
REMARK  9 active torsions:
REMARK  status: ('A' for Active; 'I' for Inactive)
REMARK    1  A    between atoms: C_2  and  C_3
REMARK    2  A    between atoms: C_2  and  C_9
REMARK    3  A    between atoms: C_12  and  O_13
REMARK    4  A    between atoms: O_13  and  C_14
REMARK    5  A    between atoms: C_16  and  C_17
REMARK    6  A    between atoms: C_17  and  O_18
REMARK    7  A    between atoms: C_19  and  O_20
REMARK    8  A    between atoms: C_21  and  O_22
REMARK    9  A    between atoms: C_23  and  O_24
REMARK                            x       y       z     vdW  Elec       q    Type
REMARK                         _______ _______ _______ _____ _____    ______ ____
ROOT
ATOM      1  O   UNL     1       3.242   4.890  18.375  0.00  0.00    +0.000 OA
ENDROOT
BRANCH   1   5
ATOM      2  C   UNL     1       1.483   8.239  20.136  0.00  0.00    +0.000 A 
ATOM      3  C   UNL     1       1.518   7.040  20.851  0.00  0.00    +0.000 A 
ATOM      4  C   UNL     1       2.069   5.891  20.270  0.00  0.00    +0.000 A 
ATOM      5  C   UNL     1       2.621   5.942  18.992  0.00  0.00    +0.000 A 
ATOM      6  C   UNL     1       2.642   7.160  18.303  0.00  0.00    +0.000 A 
ATOM      7  C   UNL     1       2.070   8.307  18.869  0.00  0.00    +0.000 A 
BRANCH   2   9
ATOM      8  O   UNL     1       0.845   9.605  21.939  0.00  0.00    +0.000 OA
ATOM      9  C   UNL     1       0.860   9.457  20.719  0.00  0.00    +0.000 C 
BRANCH   9  10
ATOM     10  C   UNL     1       0.252  10.504  19.848  0.00  0.00    +0.000 A 
ATOM     11  C   UNL     1      -0.983  10.303  19.214  0.00  0.00    +0.000 A 
ATOM     12  C   UNL     1      -1.546  11.317  18.435  0.00  0.00    +0.000 A 
ATOM     13  C   UNL     1      -0.862  12.521  18.258  0.00  0.00    +0.000 A 
ATOM     14  C   UNL     1       0.379  12.711  18.855  0.00  0.00    +0.000 A 
ATOM     15  C   UNL     1       0.941  11.705  19.647  0.00  0.00    +0.000 A 
ENDBRANCH   9  10
ENDBRANCH   2   9
ENDBRANCH   1   5
BRANCH   1  16
ATOM     16  C   UNL     1       4.417   5.200  17.605  0.00  0.00    +0.000 C 
ATOM     17  O   UNL     1       4.418   4.529  16.339  0.00  0.00    +0.000 OA
ATOM     18  C   UNL     1       5.530   4.896  15.523  0.00  0.00    +0.000 C 
ATOM     19  C   UNL     1       6.825   4.396  16.174  0.00  0.00    +0.000 C 
ATOM     20  C   UNL     1       6.936   4.969  17.596  0.00  0.00    +0.000 C 
ATOM     21  C   UNL     1       5.654   4.732  18.415  0.00  0.00    +0.000 C 
BRANCH  19  22
ATOM     22  O   UNL     1       7.949   4.769  15.367  0.00  0.00    +0.000 OA
ATOM     23  H   UNL     1       7.632   4.938  14.458  0.00  0.00    +0.000 HD
ENDBRANCH  19  22
BRANCH  20  24
ATOM     24  O   UNL     1       8.094   4.416  18.235  0.00  0.00    +0.000 OA
ATOM     25  H   UNL     1       7.937   4.399  19.197  0.00  0.00    +0.000 HD
ENDBRANCH  20  24
BRANCH  21  26
ATOM     26  O   UNL     1       5.756   5.389  19.686  0.00  0.00    +0.000 OA
ATOM     27  H   UNL     1       4.893   5.771  19.919  0.00  0.00    +0.000 HD
ENDBRANCH  21  26
BRANCH  18  28
ATOM     28  C   UNL     1       5.339   4.310  14.118  0.00  0.00    +0.000 C 
BRANCH  28  29
ATOM     29  O   UNL     1       6.290   3.293  13.824  0.00  0.00    +0.000 OA
ATOM     30  H   UNL     1       5.806   2.580  13.353  0.00  0.00    +0.000 HD
ENDBRANCH  28  29
ENDBRANCH  18  28
ENDBRANCH   1  16
TORSDOF 9
ENDMDL
MODEL 7
REMARK VINA RESULT:      -7.7      2.061      8.423
REMARK  Name = 
REMARK  9 active torsions:
REMARK  status: ('A' for Active; 'I' for Inactive)
REMARK    1  A    between atoms: C_2  and  C_3
REMARK    2  A    between atoms: C_2  and  C_9
REMARK    3  A    between atoms: C_12  and  O_13
REMARK    4  A    between atoms: O_13  and  C_14
REMARK    5  A    between atoms: C_16  and  C_17
REMARK    6  A    between atoms: C_17  and  O_18
REMARK    7  A    between atoms: C_19  and  O_20
REMARK    8  A    between atoms: C_21  and  O_22
REMARK    9  A    between atoms: C_23  and  O_24
REMARK                            x       y       z     vdW  Elec       q    Type
REMARK                         _______ _______ _______ _____ _____    ______ ____
ROOT
ATOM      1  O   UNL     1       0.316  10.786  18.969  0.00  0.00    +0.000 OA
ENDROOT
BRANCH   1   5
ATOM      2  C   UNL     1       2.372   7.179  19.386  0.00  0.00    +0.000 A 
ATOM      3  C   UNL     1       1.720   7.718  20.498  0.00  0.00    +0.000 A 
ATOM      4  C   UNL     1       1.054   8.945  20.396  0.00  0.00    +0.000 A 
ATOM      5  C   UNL     1       1.001   9.620  19.178  0.00  0.00    +0.000 A 
ATOM      6  C   UNL     1       1.600   9.047  18.051  0.00  0.00    +0.000 A 
ATOM      7  C   UNL     1       2.289   7.832  18.153  0.00  0.00    +0.000 A 
BRANCH   2   9
ATOM      8  O   UNL     1       4.352   5.918  19.491  0.00  0.00    +0.000 OA
ATOM      9  C   UNL     1       3.123   5.900  19.487  0.00  0.00    +0.000 C 
BRANCH   9  10
ATOM     10  C   UNL     1       2.411   4.593  19.582  0.00  0.00    +0.000 A 
ATOM     11  C   UNL     1       2.142   3.993  20.820  0.00  0.00    +0.000 A 
ATOM     12  C   UNL     1       1.439   2.787  20.878  0.00  0.00    +0.000 A 
ATOM     13  C   UNL     1       1.034   2.159  19.700  0.00  0.00    +0.000 A 
ATOM     14  C   UNL     1       1.331   2.731  18.468  0.00  0.00    +0.000 A 
ATOM     15  C   UNL     1       2.022   3.946  18.404  0.00  0.00    +0.000 A 
ENDBRANCH   9  10
ENDBRANCH   2   9
ENDBRANCH   1   5
BRANCH   1  16
ATOM     16  C   UNL     1      -1.112  10.676  18.835  0.00  0.00    +0.000 C 
ATOM     17  O   UNL     1      -1.508  10.492  17.471  0.00  0.00    +0.000 OA
ATOM     18  C   UNL     1      -2.914  10.289  17.329  0.00  0.00    +0.000 C 
ATOM     19  C   UNL     1      -3.655  11.570  17.728  0.00  0.00    +0.000 C 
ATOM     20  C   UNL     1      -3.269  11.957  19.164  0.00  0.00    +0.000 C 
ATOM     21  C   UNL     1      -1.742  11.993  19.360  0.00  0.00    +0.000 C 
BRANCH  19  22
ATOM     22  O   UNL     1      -5.069  11.373  17.598  0.00  0.00    +0.000 OA
ATOM     23  H   UNL     1      -5.466  12.200  17.263  0.00  0.00    +0.000 HD
ENDBRANCH  19  22
BRANCH  20  24
ATOM     24  O   UNL     1      -3.883  13.209  19.493  0.00  0.00    +0.000 OA
ATOM     25  H   UNL     1      -3.855  13.323  20.461  0.00  0.00    +0.000 HD
ENDBRANCH  20  24
BRANCH  21  26
ATOM     26  O   UNL     1      -1.431  12.236  20.740  0.00  0.00    +0.000 OA
ATOM     27  H   UNL     1      -2.186  11.967  21.290  0.00  0.00    +0.000 HD
ENDBRANCH  21  26
BRANCH  18  28
ATOM     28  C   UNL     1      -3.221   9.884  15.881  0.00  0.00    +0.000 C 
BRANCH  28  29
ATOM     29  O   UNL     1      -2.455  10.627  14.940  0.00  0.00    +0.000 OA
ATOM     30  H   UNL     1      -2.282  10.030  14.179  0.00  0.00    +0.000 HD
ENDBRANCH  28  29
ENDBRANCH  18  28
ENDBRANCH   1  16
TORSDOF 9
ENDMDL
MODEL 8
REMARK VINA RESULT:      -7.7      1.112      1.623
REMARK  Name = 
REMARK  9 active torsions:
REMARK  status: ('A' for Active; 'I' for Inactive)
REMARK    1  A    between atoms: C_2  and  C_3
REMARK    2  A    between atoms: C_2  and  C_9
REMARK    3  A    between atoms: C_12  and  O_13
REMARK    4  A    between atoms: O_13  and  C_14
REMARK    5  A    between atoms: C_16  and  C_17
REMARK    6  A    between atoms: C_17  and  O_18
REMARK    7  A    between atoms: C_19  and  O_20
REMARK    8  A    between atoms: C_21  and  O_22
REMARK    9  A    between atoms: C_23  and  O_24
REMARK                            x       y       z     vdW  Elec       q    Type
REMARK                         _______ _______ _______ _____ _____    ______ ____
ROOT
ATOM      1  O   UNL     1       2.652   6.826  20.229  0.00  0.00    +0.000 OA
ENDROOT
BRANCH   1   5
ATOM      2  C   UNL     1       0.442  10.113  18.914  0.00  0.00    +0.000 A 
ATOM      3  C   UNL     1       1.268   9.446  18.006  0.00  0.00    +0.000 A 
ATOM      4  C   UNL     1       2.049   8.363  18.428  0.00  0.00    +0.000 A 
ATOM      5  C   UNL     1       1.981   7.916  19.747  0.00  0.00    +0.000 A 
ATOM      6  C   UNL     1       1.106   8.546  20.638  0.00  0.00    +0.000 A 
ATOM      7  C   UNL     1       0.341   9.645  20.228  0.00  0.00    +0.000 A 
BRANCH   2   9
ATOM      8  O   UNL     1       0.153  12.410  18.514  0.00  0.00    +0.000 OA
ATOM      9  C   UNL     1      -0.359  11.293  18.495  0.00  0.00    +0.000 C 
BRANCH   9  10
ATOM     10  C   UNL     1      -1.775  11.145  18.051  0.00  0.00    +0.000 A 
ATOM     11  C   UNL     1      -2.113  10.401  16.911  0.00  0.00    +0.000 A 
ATOM     12  C   UNL     1      -3.451  10.249  16.543  0.00  0.00    +0.000 A 
ATOM     13  C   UNL     1      -4.454  10.867  17.291  0.00  0.00    +0.000 A 
ATOM     14  C   UNL     1      -4.123  11.636  18.401  0.00  0.00    +0.000 A 
ATOM     15  C   UNL     1      -2.785  11.780  18.783  0.00  0.00    +0.000 A 
ENDBRANCH   9  10
ENDBRANCH   2   9
ENDBRANCH   1   5
BRANCH   1  16
ATOM     16  C   UNL     1       2.695   5.669  19.377  0.00  0.00    +0.000 C 
ATOM     17  O   UNL     1       1.765   4.663  19.794  0.00  0.00    +0.000 OA
ATOM     18  C   UNL     1       1.728   3.546  18.907  0.00  0.00    +0.000 C 
ATOM     19  C   UNL     1       3.071   2.809  18.959  0.00  0.00    +0.000 C 
ATOM     20  C   UNL     1       4.204   3.788  18.610  0.00  0.00    +0.000 C 
ATOM     21  C   UNL     1       4.128   5.079  19.447  0.00  0.00    +0.000 C 
BRANCH  19  22
ATOM     22  O   UNL     1       3.046   1.691  18.063  0.00  0.00    +0.000 OA
ATOM     23  H   UNL     1       3.889   1.675  17.568  0.00  0.00    +0.000 HD
ENDBRANCH  19  22
BRANCH  20  24
ATOM     24  O   UNL     1       5.463   3.120  18.763  0.00  0.00    +0.000 OA
ATOM     25  H   UNL     1       5.360   2.415  19.429  0.00  0.00    +0.000 HD
ENDBRANCH  20  24
BRANCH  21  26
ATOM     26  O   UNL     1       5.125   6.009  19.002  0.00  0.00    +0.000 OA
ATOM     27  H   UNL     1       5.711   5.569  18.364  0.00  0.00    +0.000 HD
ENDBRANCH  21  26
BRANCH  18  28
ATOM     28  C   UNL     1       0.562   2.629  19.300  0.00  0.00    +0.000 C 
BRANCH  28  29
ATOM     29  O   UNL     1       0.218   1.720  18.260  0.00  0.00    +0.000 OA
ATOM     30  H   UNL     1      -0.600   1.257  18.546  0.00  0.00    +0.000 HD
ENDBRANCH  28  29
ENDBRANCH  18  28
ENDBRANCH   1  16
TORSDOF 9
ENDMDL
MODEL 9
REMARK VINA RESULT:      -7.7      2.210      8.790
REMARK  Name = 
REMARK  9 active torsions:
REMARK  status: ('A' for Active; 'I' for Inactive)
REMARK    1  A    between atoms: C_2  and  C_3
REMARK    2  A    between atoms: C_2  and  C_9
REMARK    3  A    between atoms: C_12  and  O_13
REMARK    4  A    between atoms: O_13  and  C_14
REMARK    5  A    between atoms: C_16  and  C_17
REMARK    6  A    between atoms: C_17  and  O_18
REMARK    7  A    between atoms: C_19  and  O_20
REMARK    8  A    between atoms: C_21  and  O_22
REMARK    9  A    between atoms: C_23  and  O_24
REMARK                            x       y       z     vdW  Elec       q    Type
REMARK                         _______ _______ _______ _____ _____    ______ ____
ROOT
ATOM      1  O   UNL     1       1.044  10.130  19.822  0.00  0.00    +0.000 OA
ENDROOT
BRANCH   1   5
ATOM      2  C   UNL     1       2.688   6.473  18.668  0.00  0.00    +0.000 A 
ATOM      3  C   UNL     1       2.705   7.537  17.763  0.00  0.00    +0.000 A 
ATOM      4  C   UNL     1       2.127   8.764  18.110  0.00  0.00    +0.000 A 
ATOM      5  C   UNL     1       1.566   8.948  19.373  0.00  0.00    +0.000 A 
ATOM      6  C   UNL     1       1.608   7.901  20.300  0.00  0.00    +0.000 A 
ATOM      7  C   UNL     1       2.162   6.663  19.949  0.00  0.00    +0.000 A 
BRANCH   2   9
ATOM      8  O   UNL     1       2.521   4.164  18.266  0.00  0.00    +0.000 OA
ATOM      9  C   UNL     1       3.256   5.149  18.300  0.00  0.00    +0.000 C 
BRANCH   9  10
ATOM     10  C   UNL     1       4.702   4.994  17.972  0.00  0.00    +0.000 A 
ATOM     11  C   UNL     1       5.124   4.449  16.751  0.00  0.00    +0.000 A 
ATOM     12  C   UNL     1       6.485   4.353  16.457  0.00  0.00    +0.000 A 
ATOM     13  C   UNL     1       7.432   4.767  17.396  0.00  0.00    +0.000 A 
ATOM     14  C   UNL     1       7.020   5.274  18.623  0.00  0.00    +0.000 A 
ATOM     15  C   UNL     1       5.657   5.386  18.917  0.00  0.00    +0.000 A 
ENDBRANCH   9  10
ENDBRANCH   2   9
ENDBRANCH   1   5
BRANCH   1  16
ATOM     16  C   UNL     1      -0.351  10.359  19.556  0.00  0.00    +0.000 C 
ATOM     17  O   UNL     1      -0.650  10.270  18.158  0.00  0.00    +0.000 OA
ATOM     18  C   UNL     1      -2.044  10.403  17.884  0.00  0.00    +0.000 C 
ATOM     19  C   UNL     1      -2.499  11.824  18.239  0.00  0.00    +0.000 C 
ATOM     20  C   UNL     1      -2.169  12.112  19.712  0.00  0.00    +0.000 C 
ATOM     21  C   UNL     1      -0.701  11.788  20.048  0.00  0.00    +0.000 C 
BRANCH  19  22
ATOM     22  O   UNL     1      -3.901  11.964  17.977  0.00  0.00    +0.000 OA
ATOM     23  H   UNL     1      -4.126  11.407  17.206  0.00  0.00    +0.000 HD
ENDBRANCH  19  22
BRANCH  20  24
ATOM     24  O   UNL     1      -2.501  13.474  20.008  0.00  0.00    +0.000 OA
ATOM     25  H   UNL     1      -2.952  13.502  20.872  0.00  0.00    +0.000 HD
ENDBRANCH  20  24
BRANCH  21  26
ATOM     26  O   UNL     1      -0.472  11.954  21.455  0.00  0.00    +0.000 OA
ATOM     27  H   UNL     1       0.453  12.214  21.600  0.00  0.00    +0.000 HD
ENDBRANCH  21  26
BRANCH  18  28
ATOM     28  C   UNL     1      -2.300  10.078  16.407  0.00  0.00    +0.000 C 
BRANCH  28  29
ATOM     29  O   UNL     1      -2.368  11.249  15.601  0.00  0.00    +0.000 OA
ATOM     30  H   UNL     1      -2.698  10.969  14.719  0.00  0.00    +0.000 HD
ENDBRANCH  28  29
ENDBRANCH  18  28
ENDBRANCH   1  16
TORSDOF 9
ENDMDL
