MODEL 1
REMARK VINA RESULT:      -6.3      0.000      0.000
REMARK  Name = 
REMARK  8 active torsions:
REMARK  status: ('A' for Active; 'I' for Inactive)
REMARK    1  A    between atoms: C_1  and  C_2
REMARK    2  A    between atoms: C_2  and  C_3
REMARK    3  A    between atoms: C_4  and  C_5
REMARK    4  A    between atoms: C_5  and  N_6
REMARK    5  A    between atoms: C_8  and  O_9
REMARK    6  A    between atoms: C_10  and  O_11
REMARK    7  A    between atoms: C_12  and  C_13
REMARK    8  A    between atoms: C_13  and  O_14
REMARK                            x       y       z     vdW  Elec       q    Type
REMARK                         _______ _______ _______ _____ _____    ______ ____
ROOT
ATOM      1  N   UNL     1       3.035   4.504  18.352  0.00  0.00    +0.000 NA
ATOM      2  C   UNL     1       1.698   4.016  17.953  0.00  0.00    +0.000 C 
ATOM      3  C   UNL     1       1.465   2.581  18.473  0.00  0.00    +0.000 C 
ATOM      4  C   UNL     1       1.707   2.477  19.992  0.00  0.00    +0.000 C 
ATOM      5  C   UNL     1       3.035   3.122  20.430  0.00  0.00    +0.000 C 
ATOM      6  C   UNL     1       3.155   4.530  19.823  0.00  0.00    +0.000 C 
ENDROOT
BRANCH   3   7
ATOM      7  O   UNL     1       2.324   1.679  17.767  0.00  0.00    +0.000 OA
ATOM      8  H   UNL     1       2.078   0.781  18.067  0.00  0.00    +0.000 HD
ENDBRANCH   3   7
BRANCH   4   9
ATOM      9  O   UNL     1       0.626   3.090  20.715  0.00  0.00    +0.000 OA
ATOM     10  H   UNL     1       0.952   3.888  21.166  0.00  0.00    +0.000 HD
ENDBRANCH   4   9
BRANCH   1  11
ATOM     11  C   UNL     1       3.315   5.847  17.824  0.00  0.00    +0.000 C 
BRANCH  11  15
ATOM     12  C   UNL     1       7.060   6.816  17.298  0.00  0.00    +0.000 C 
ATOM     13  C   UNL     1       5.689   6.272  17.002  0.00  0.00    +0.000 C 
ATOM     14  C   UNL     1       5.423   5.801  15.601  0.00  0.00    +0.000 C 
ATOM     15  C   UNL     1       4.755   6.244  17.974  0.00  0.00    +0.000 C 
ENDBRANCH  11  15
ENDBRANCH   1  11
BRANCH   5  16
ATOM     16  C   UNL     1       4.250   2.239  20.095  0.00  0.00    +0.000 C 
BRANCH  16  17
ATOM     17  O   UNL     1       5.241   2.970  19.379  0.00  0.00    +0.000 OA
ATOM     18  H   UNL     1       5.222   2.663  18.456  0.00  0.00    +0.000 HD
ENDBRANCH  16  17
ENDBRANCH   5  16
TORSDOF 6
ENDMDL
MODEL 2
REMARK VINA RESULT:      -6.2      2.438      5.599
REMARK  Name = 
REMARK  8 active torsions:
REMARK  status: ('A' for Active; 'I' for Inactive)
REMARK    1  A    between atoms: C_1  and  C_2
REMARK    2  A    between atoms: C_2  and  C_3
REMARK    3  A    between atoms: C_4  and  C_5
REMARK    4  A    between atoms: C_5  and  N_6
REMARK    5  A    between atoms: C_8  and  O_9
REMARK    6  A    between atoms: C_10  and  O_11
REMARK    7  A    between atoms: C_12  and  C_13
REMARK    8  A    between atoms: C_13  and  O_14
REMARK                            x       y       z     vdW  Elec       q    Type
REMARK                         _______ _______ _______ _____ _____    ______ ____
ROOT
ATOM      1  N   UNL     1       5.126   4.765  18.472  0.00  0.00    +0.000 NA
ATOM      2  C   UNL     1       6.300   5.375  19.130  0.00  0.00    +0.000 C 
ATOM      3  C   UNL     1       7.505   5.416  18.165  0.00  0.00    +0.000 C 
ATOM      4  C   UNL     1       7.147   6.102  16.832  0.00  0.00    +0.000 C 
ATOM      5  C   UNL     1       5.839   5.568  16.219  0.00  0.00    +0.000 C 
ATOM      6  C   UNL     1       4.733   5.553  17.287  0.00  0.00    +0.000 C 
ENDROOT
BRANCH   3   7
ATOM      7  O   UNL     1       7.967   4.080  17.933  0.00  0.00    +0.000 OA
ATOM      8  H   UNL     1       8.940   4.112  18.024  0.00  0.00    +0.000 HD
ENDBRANCH   3   7
BRANCH   4   9
ATOM      9  O   UNL     1       7.036   7.523  17.013  0.00  0.00    +0.000 OA
ATOM     10  H   UNL     1       6.967   7.954  16.143  0.00  0.00    +0.000 HD
ENDBRANCH   4   9
BRANCH   1  11
ATOM     11  C   UNL     1       3.976   4.657  19.381  0.00  0.00    +0.000 C 
BRANCH  11  15
ATOM     12  C   UNL     1       0.771   2.502  18.809  0.00  0.00    +0.000 C 
ATOM     13  C   UNL     1       1.811   3.320  19.525  0.00  0.00    +0.000 C 
ATOM     14  C   UNL     1       1.554   3.652  20.967  0.00  0.00    +0.000 C 
ATOM     15  C   UNL     1       2.905   3.742  18.860  0.00  0.00    +0.000 C 
ENDBRANCH  11  15
ENDBRANCH   1  11
BRANCH   5  16
ATOM     16  C   UNL     1       6.025   4.192  15.554  0.00  0.00    +0.000 C 
BRANCH  16  17
ATOM     17  O   UNL     1       5.524   3.146  16.381  0.00  0.00    +0.000 OA
ATOM     18  H   UNL     1       4.623   2.939  16.077  0.00  0.00    +0.000 HD
ENDBRANCH  16  17
ENDBRANCH   5  16
TORSDOF 6
ENDMDL
MODEL 3
REMARK VINA RESULT:      -6.2      0.988      1.393
REMARK  Name = 
REMARK  8 active torsions:
REMARK  status: ('A' for Active; 'I' for Inactive)
REMARK    1  A    between atoms: C_1  and  C_2
REMARK    2  A    between atoms: C_2  and  C_3
REMARK    3  A    between atoms: C_4  and  C_5
REMARK    4  A    between atoms: C_5  and  N_6
REMARK    5  A    between atoms: C_8  and  O_9
REMARK    6  A    between atoms: C_10  and  O_11
REMARK    7  A    between atoms: C_12  and  C_13
REMARK    8  A    between atoms: C_13  and  O_14
REMARK                            x       y       z     vdW  Elec       q    Type
REMARK                         _______ _______ _______ _____ _____    ______ ____
ROOT
ATOM      1  N   UNL     1       3.547   4.357  18.224  0.00  0.00    +0.000 NA
ATOM      2  C   UNL     1       2.224   4.026  17.653  0.00  0.00    +0.000 C 
ATOM      3  C   UNL     1       1.655   2.748  18.306  0.00  0.00    +0.000 C 
ATOM      4  C   UNL     1       1.630   2.853  19.844  0.00  0.00    +0.000 C 
ATOM      5  C   UNL     1       2.967   3.344  20.430  0.00  0.00    +0.000 C 
ATOM      6  C   UNL     1       3.435   4.600  19.676  0.00  0.00    +0.000 C 
ENDROOT
BRANCH   3   7
ATOM      7  O   UNL     1       2.437   1.620  17.895  0.00  0.00    +0.000 OA
ATOM      8  H   UNL     1       1.852   1.078  17.329  0.00  0.00    +0.000 HD
ENDBRANCH   3   7
BRANCH   4   9
ATOM      9  O   UNL     1       0.578   3.735  20.269  0.00  0.00    +0.000 OA
ATOM     10  H   UNL     1       0.927   4.359  20.928  0.00  0.00    +0.000 HD
ENDBRANCH   4   9
BRANCH   1  11
ATOM     11  C   UNL     1       4.146   5.537  17.584  0.00  0.00    +0.000 C 
BRANCH  11  15
ATOM     12  C   UNL     1       6.655   4.386  14.823  0.00  0.00    +0.000 C 
ATOM     13  C   UNL     1       6.135   4.794  16.175  0.00  0.00    +0.000 C 
ATOM     14  C   UNL     1       7.081   4.692  17.337  0.00  0.00    +0.000 C 
ATOM     15  C   UNL     1       4.858   5.208  16.304  0.00  0.00    +0.000 C 
ENDBRANCH  11  15
ENDBRANCH   1  11
BRANCH   5  16
ATOM     16  C   UNL     1       4.039   2.240  20.443  0.00  0.00    +0.000 C 
BRANCH  16  17
ATOM     17  O   UNL     1       5.082   2.520  19.515  0.00  0.00    +0.000 OA
ATOM     18  H   UNL     1       5.209   1.726  18.968  0.00  0.00    +0.000 HD
ENDBRANCH  16  17
ENDBRANCH   5  16
TORSDOF 6
ENDMDL
MODEL 4
REMARK VINA RESULT:      -6.1      2.914      4.669
REMARK  Name = 
REMARK  8 active torsions:
REMARK  status: ('A' for Active; 'I' for Inactive)
REMARK    1  A    between atoms: C_1  and  C_2
REMARK    2  A    between atoms: C_2  and  C_3
REMARK    3  A    between atoms: C_4  and  C_5
REMARK    4  A    between atoms: C_5  and  N_6
REMARK    5  A    between atoms: C_8  and  O_9
REMARK    6  A    between atoms: C_10  and  O_11
REMARK    7  A    between atoms: C_12  and  C_13
REMARK    8  A    between atoms: C_13  and  O_14
REMARK                            x       y       z     vdW  Elec       q    Type
REMARK                         _______ _______ _______ _____ _____    ______ ____
ROOT
ATOM      1  N   UNL     1       6.372   4.455  16.237  0.00  0.00    +0.000 NA
ATOM      2  C   UNL     1       4.997   3.960  16.453  0.00  0.00    +0.000 C 
ATOM      3  C   UNL     1       4.589   4.116  17.934  0.00  0.00    +0.000 C 
ATOM      4  C   UNL     1       4.786   5.562  18.432  0.00  0.00    +0.000 C 
ATOM      5  C   UNL     1       6.171   6.132  18.073  0.00  0.00    +0.000 C 
ATOM      6  C   UNL     1       6.465   5.887  16.584  0.00  0.00    +0.000 C 
ENDROOT
BRANCH   3   7
ATOM      7  O   UNL     1       5.352   3.204  18.732  0.00  0.00    +0.000 OA
ATOM      8  H   UNL     1       6.235   3.610  18.835  0.00  0.00    +0.000 HD
ENDBRANCH   3   7
BRANCH   4   9
ATOM      9  O   UNL     1       3.769   6.422  17.891  0.00  0.00    +0.000 OA
ATOM     10  H   UNL     1       3.740   7.248  18.404  0.00  0.00    +0.000 HD
ENDBRANCH   4   9
BRANCH   1  11
ATOM     11  C   UNL     1       6.816   4.268  14.848  0.00  0.00    +0.000 C 
BRANCH  11  15
ATOM     12  C   UNL     1       4.552   3.256  11.832  0.00  0.00    +0.000 C 
ATOM     13  C   UNL     1       5.781   3.662  12.599  0.00  0.00    +0.000 C 
ATOM     14  C   UNL     1       7.083   3.691  11.850  0.00  0.00    +0.000 C 
ATOM     15  C   UNL     1       5.684   3.960  13.910  0.00  0.00    +0.000 C 
ENDBRANCH  11  15
ENDBRANCH   1  11
BRANCH   5  16
ATOM     16  C   UNL     1       7.282   5.582  18.984  0.00  0.00    +0.000 C 
BRANCH  16  17
ATOM     17  O   UNL     1       8.001   4.531  18.347  0.00  0.00    +0.000 OA
ATOM     18  H   UNL     1       7.743   4.526  17.409  0.00  0.00    +0.000 HD
ENDBRANCH  16  17
ENDBRANCH   5  16
TORSDOF 6
ENDMDL
MODEL 5
REMARK VINA RESULT:      -6.1      3.174      5.219
REMARK  Name = 
REMARK  8 active torsions:
REMARK  status: ('A' for Active; 'I' for Inactive)
REMARK    1  A    between atoms: C_1  and  C_2
REMARK    2  A    between atoms: C_2  and  C_3
REMARK    3  A    between atoms: C_4  and  C_5
REMARK    4  A    between atoms: C_5  and  N_6
REMARK    5  A    between atoms: C_8  and  O_9
REMARK    6  A    between atoms: C_10  and  O_11
REMARK    7  A    between atoms: C_12  and  C_13
REMARK    8  A    between atoms: C_13  and  O_14
REMARK                            x       y       z     vdW  Elec       q    Type
REMARK                         _______ _______ _______ _____ _____    ______ ____
ROOT
ATOM      1  N   UNL     1       6.415   4.802  15.988  0.00  0.00    +0.000 NA
ATOM      2  C   UNL     1       7.397   4.495  17.050  0.00  0.00    +0.000 C 
ATOM      3  C   UNL     1       6.954   5.114  18.394  0.00  0.00    +0.000 C 
ATOM      4  C   UNL     1       5.519   4.696  18.772  0.00  0.00    +0.000 C 
ATOM      5  C   UNL     1       4.521   4.875  17.612  0.00  0.00    +0.000 C 
ATOM      6  C   UNL     1       5.093   4.242  16.332  0.00  0.00    +0.000 C 
ENDROOT
BRANCH   3   7
ATOM      7  O   UNL     1       7.055   6.540  18.312  0.00  0.00    +0.000 OA
ATOM      8  H   UNL     1       6.477   6.892  19.018  0.00  0.00    +0.000 HD
ENDBRANCH   3   7
BRANCH   4   9
ATOM      9  O   UNL     1       5.493   3.326  19.207  0.00  0.00    +0.000 OA
ATOM     10  H   UNL     1       6.110   3.213  19.950  0.00  0.00    +0.000 HD
ENDBRANCH   4   9
BRANCH   1  11
ATOM     11  C   UNL     1       6.834   4.277  14.680  0.00  0.00    +0.000 C 
BRANCH  11  15
ATOM     12  C   UNL     1       4.476   3.242  11.745  0.00  0.00    +0.000 C 
ATOM     13  C   UNL     1       5.741   3.586  12.484  0.00  0.00    +0.000 C 
ATOM     14  C   UNL     1       7.038   3.417  11.746  0.00  0.00    +0.000 C 
ATOM     15  C   UNL     1       5.676   4.006  13.764  0.00  0.00    +0.000 C 
ENDBRANCH  11  15
ENDBRANCH   1  11
BRANCH   5  16
ATOM     16  C   UNL     1       4.125   6.348  17.406  0.00  0.00    +0.000 C 
BRANCH  16  17
ATOM     17  O   UNL     1       4.746   6.894  16.247  0.00  0.00    +0.000 OA
ATOM     18  H   UNL     1       5.447   6.279  15.973  0.00  0.00    +0.000 HD
ENDBRANCH  16  17
ENDBRANCH   5  16
TORSDOF 6
ENDMDL
MODEL 6
REMARK VINA RESULT:      -6.1      2.815      5.425
REMARK  Name = 
REMARK  8 active torsions:
REMARK  status: ('A' for Active; 'I' for Inactive)
REMARK    1  A    between atoms: C_1  and  C_2
REMARK    2  A    between atoms: C_2  and  C_3
REMARK    3  A    between atoms: C_4  and  C_5
REMARK    4  A    between atoms: C_5  and  N_6
REMARK    5  A    between atoms: C_8  and  O_9
REMARK    6  A    between atoms: C_10  and  O_11
REMARK    7  A    between atoms: C_12  and  C_13
REMARK    8  A    between atoms: C_13  and  O_14
REMARK                            x       y       z     vdW  Elec       q    Type
REMARK                         _______ _______ _______ _____ _____    ______ ____
ROOT
ATOM      1  N   UNL     1       5.207   4.220  17.955  0.00  0.00    +0.000 NA
ATOM      2  C   UNL     1       6.200   4.928  18.790  0.00  0.00    +0.000 C 
ATOM      3  C   UNL     1       7.452   5.286  17.961  0.00  0.00    +0.000 C 
ATOM      4  C   UNL     1       7.087   6.066  16.681  0.00  0.00    +0.000 C 
ATOM      5  C   UNL     1       5.946   5.405  15.886  0.00  0.00    +0.000 C 
ATOM      6  C   UNL     1       4.778   5.075  16.830  0.00  0.00    +0.000 C 
ENDROOT
BRANCH   3   7
ATOM      7  O   UNL     1       8.158   4.085  17.631  0.00  0.00    +0.000 OA
ATOM      8  H   UNL     1       7.475   3.427  17.394  0.00  0.00    +0.000 HD
ENDBRANCH   3   7
BRANCH   4   9
ATOM      9  O   UNL     1       6.715   7.416  17.005  0.00  0.00    +0.000 OA
ATOM     10  H   UNL     1       7.516   7.933  17.198  0.00  0.00    +0.000 HD
ENDBRANCH   4   9
BRANCH   1  11
ATOM     11  C   UNL     1       4.024   3.812  18.726  0.00  0.00    +0.000 C 
BRANCH  11  15
ATOM     12  C   UNL     1       1.645   6.179  20.721  0.00  0.00    +0.000 C 
ATOM     13  C   UNL     1       2.113   4.981  19.941  0.00  0.00    +0.000 C 
ATOM     14  C   UNL     1       1.153   3.834  19.796  0.00  0.00    +0.000 C 
ATOM     15  C   UNL     1       3.358   4.962  19.425  0.00  0.00    +0.000 C 
ENDBRANCH  11  15
ENDBRANCH   1  11
BRANCH   5  16
ATOM     16  C   UNL     1       6.422   4.173  15.097  0.00  0.00    +0.000 C 
BRANCH  16  17
ATOM     17  O   UNL     1       5.988   2.964  15.712  0.00  0.00    +0.000 OA
ATOM     18  H   UNL     1       6.777   2.417  15.872  0.00  0.00    +0.000 HD
ENDBRANCH  16  17
ENDBRANCH   5  16
TORSDOF 6
ENDMDL
MODEL 7
REMARK VINA RESULT:      -6.1      3.068      5.583
REMARK  Name = 
REMARK  8 active torsions:
REMARK  status: ('A' for Active; 'I' for Inactive)
REMARK    1  A    between atoms: C_1  and  C_2
REMARK    2  A    between atoms: C_2  and  C_3
REMARK    3  A    between atoms: C_4  and  C_5
REMARK    4  A    between atoms: C_5  and  N_6
REMARK    5  A    between atoms: C_8  and  O_9
REMARK    6  A    between atoms: C_10  and  O_11
REMARK    7  A    between atoms: C_12  and  C_13
REMARK    8  A    between atoms: C_13  and  O_14
REMARK                            x       y       z     vdW  Elec       q    Type
REMARK                         _______ _______ _______ _____ _____    ______ ____
ROOT
ATOM      1  N   UNL     1       5.048   3.899  17.363  0.00  0.00    +0.000 NA
ATOM      2  C   UNL     1       5.915   4.414  18.444  0.00  0.00    +0.000 C 
ATOM      3  C   UNL     1       7.156   5.120  17.855  0.00  0.00    +0.000 C 
ATOM      4  C   UNL     1       6.765   6.209  16.836  0.00  0.00    +0.000 C 
ATOM      5  C   UNL     1       5.742   5.713  15.797  0.00  0.00    +0.000 C 
ATOM      6  C   UNL     1       4.577   5.007  16.509  0.00  0.00    +0.000 C 
ENDROOT
BRANCH   3   7
ATOM      7  O   UNL     1       8.007   4.145  17.243  0.00  0.00    +0.000 OA
ATOM      8  H   UNL     1       8.750   4.644  16.850  0.00  0.00    +0.000 HD
ENDBRANCH   3   7
BRANCH   4   9
ATOM      9  O   UNL     1       6.228   7.359  17.512  0.00  0.00    +0.000 OA
ATOM     10  H   UNL     1       6.401   7.281  18.466  0.00  0.00    +0.000 HD
ENDBRANCH   4   9
BRANCH   1  11
ATOM     11  C   UNL     1       3.885   3.169  17.888  0.00  0.00    +0.000 C 
BRANCH  11  15
ATOM     12  C   UNL     1       1.295   4.512  20.483  0.00  0.00    +0.000 C 
ATOM     13  C   UNL     1       1.873   3.689  19.363  0.00  0.00    +0.000 C 
ATOM     14  C   UNL     1       1.026   2.575  18.818  0.00  0.00    +0.000 C 
ATOM     15  C   UNL     1       3.114   3.956  18.908  0.00  0.00    +0.000 C 
ENDBRANCH  11  15
ENDBRANCH   1  11
BRANCH   5  16
ATOM     16  C   UNL     1       6.390   4.825  14.720  0.00  0.00    +0.000 C 
BRANCH  16  17
ATOM     17  O   UNL     1       7.708   5.266  14.409  0.00  0.00    +0.000 OA
ATOM     18  H   UNL     1       8.177   4.519  13.998  0.00  0.00    +0.000 HD
ENDBRANCH  16  17
ENDBRANCH   5  16
TORSDOF 6
ENDMDL
MODEL 8
REMARK VINA RESULT:      -6.0      2.732      5.174
REMARK  Name = 
REMARK  8 active torsions:
REMARK  status: ('A' for Active; 'I' for Inactive)
REMARK    1  A    between atoms: C_1  and  C_2
REMARK    2  A    between atoms: C_2  and  C_3
REMARK    3  A    between atoms: C_4  and  C_5
REMARK    4  A    between atoms: C_5  and  N_6
REMARK    5  A    between atoms: C_8  and  O_9
REMARK    6  A    between atoms: C_10  and  O_11
REMARK    7  A    between atoms: C_12  and  C_13
REMARK    8  A    between atoms: C_13  and  O_14
REMARK                            x       y       z     vdW  Elec       q    Type
REMARK                         _______ _______ _______ _____ _____    ______ ____
ROOT
ATOM      1  N   UNL     1       4.540   5.847  18.598  0.00  0.00    +0.000 NA
ATOM      2  C   UNL     1       4.390   5.900  17.129  0.00  0.00    +0.000 C 
ATOM      3  C   UNL     1       5.771   5.987  16.444  0.00  0.00    +0.000 C 
ATOM      4  C   UNL     1       6.711   4.855  16.906  0.00  0.00    +0.000 C 
ATOM      5  C   UNL     1       6.752   4.701  18.438  0.00  0.00    +0.000 C 
ATOM      6  C   UNL     1       5.319   4.656  18.994  0.00  0.00    +0.000 C 
ENDROOT
BRANCH   3   7
ATOM      7  O   UNL     1       6.355   7.266  16.721  0.00  0.00    +0.000 OA
ATOM      8  H   UNL     1       5.747   7.928  16.336  0.00  0.00    +0.000 HD
ENDBRANCH   3   7
BRANCH   4   9
ATOM      9  O   UNL     1       6.317   3.605  16.318  0.00  0.00    +0.000 OA
ATOM     10  H   UNL     1       5.879   3.773  15.465  0.00  0.00    +0.000 HD
ENDBRANCH   4   9
BRANCH   1  11
ATOM     11  C   UNL     1       3.241   5.822  19.287  0.00  0.00    +0.000 C 
BRANCH  11  15
ATOM     12  C   UNL     1       0.831   2.756  19.104  0.00  0.00    +0.000 C 
ATOM     13  C   UNL     1       1.756   3.790  19.687  0.00  0.00    +0.000 C 
ATOM     14  C   UNL     1       1.914   3.811  21.180  0.00  0.00    +0.000 C 
ATOM     15  C   UNL     1       2.384   4.662  18.872  0.00  0.00    +0.000 C 
ENDBRANCH  11  15
ENDBRANCH   1  11
BRANCH   5  16
ATOM     16  C   UNL     1       7.603   5.792  19.111  0.00  0.00    +0.000 C 
BRANCH  16  17
ATOM     17  O   UNL     1       7.957   5.426  20.441  0.00  0.00    +0.000 OA
ATOM     18  H   UNL     1       8.920   5.530  20.528  0.00  0.00    +0.000 HD
ENDBRANCH  16  17
ENDBRANCH   5  16
TORSDOF 6
ENDMDL
MODEL 9
REMARK VINA RESULT:      -6.0      2.696      5.339
REMARK  Name = 
REMARK  8 active torsions:
REMARK  status: ('A' for Active; 'I' for Inactive)
REMARK    1  A    between atoms: C_1  and  C_2
REMARK    2  A    between atoms: C_2  and  C_3
REMARK    3  A    between atoms: C_4  and  C_5
REMARK    4  A    between atoms: C_5  and  N_6
REMARK    5  A    between atoms: C_8  and  O_9
REMARK    6  A    between atoms: C_10  and  O_11
REMARK    7  A    between atoms: C_12  and  C_13
REMARK    8  A    between atoms: C_13  and  O_14
REMARK                            x       y       z     vdW  Elec       q    Type
REMARK                         _______ _______ _______ _____ _____    ______ ____
ROOT
ATOM      1  N   UNL     1       4.581   3.199  17.852  0.00  0.00    +0.000 NA
ATOM      2  C   UNL     1       4.998   4.086  18.958  0.00  0.00    +0.000 C 
ATOM      3  C   UNL     1       6.144   5.018  18.506  0.00  0.00    +0.000 C 
ATOM      4  C   UNL     1       5.778   5.795  17.225  0.00  0.00    +0.000 C 
ATOM      5  C   UNL     1       5.201   4.888  16.122  0.00  0.00    +0.000 C 
ATOM      6  C   UNL     1       4.094   3.996  16.708  0.00  0.00    +0.000 C 
ENDROOT
BRANCH   3   7
ATOM      7  O   UNL     1       7.329   4.240  18.298  0.00  0.00    +0.000 OA
ATOM      8  H   UNL     1       8.024   4.874  18.033  0.00  0.00    +0.000 HD
ENDBRANCH   3   7
BRANCH   4   9
ATOM      9  O   UNL     1       4.831   6.834  17.523  0.00  0.00    +0.000 OA
ATOM     10  H   UNL     1       4.049   6.730  16.954  0.00  0.00    +0.000 HD
ENDBRANCH   4   9
BRANCH   1  11
ATOM     11  C   UNL     1       3.530   2.257  18.264  0.00  0.00    +0.000 C 
BRANCH  11  15
ATOM     12  C   UNL     1       1.500   2.701  21.569  0.00  0.00    +0.000 C 
ATOM     13  C   UNL     1       1.794   2.607  20.096  0.00  0.00    +0.000 C 
ATOM     14  C   UNL     1       0.624   2.637  19.156  0.00  0.00    +0.000 C 
ATOM     15  C   UNL     1       3.069   2.480  19.675  0.00  0.00    +0.000 C 
ENDBRANCH  11  15
ENDBRANCH   1  11
BRANCH   5  16
ATOM     16  C   UNL     1       6.292   4.069  15.410  0.00  0.00    +0.000 C 
BRANCH  16  17
ATOM     17  O   UNL     1       7.519   4.790  15.343  0.00  0.00    +0.000 OA
ATOM     18  H   UNL     1       7.302   5.722  15.171  0.00  0.00    +0.000 HD
ENDBRANCH  16  17
ENDBRANCH   5  16
TORSDOF 6
ENDMDL
