MODEL 1
REMARK VINA RESULT:      -8.7      0.000      0.000
REMARK  Name = 
REMARK  6 active torsions:
REMARK  status: ('A' for Active; 'I' for Inactive)
REMARK    1  A    between atoms: C_1  and  C_2
REMARK    2  A    between atoms: C_7  and  C_9
REMARK    3  A    between atoms: N_11  and  C_12
REMARK    4  A    between atoms: C_15  and  O_16
REMARK    5  A    between atoms: O_16  and  C_17
REMARK    6  A    between atoms: C_17  and  C_18
REMARK                            x       y       z     vdW  Elec       q    Type
REMARK                         _______ _______ _______ _____ _____    ______ ____
ROOT
ATOM      1  C   UNL     1       5.086   3.834  18.244  0.00  0.00    +0.000 A 
ATOM      2  N   UNL     1       4.707   3.633  16.964  0.00  0.00    +0.000 NA
ATOM      3  N   UNL     1       5.360   4.573  16.261  0.00  0.00    +0.000 N 
ATOM      4  C   UNL     1       5.191   4.655  14.832  0.00  0.00    +0.000 C 
ATOM      5  C   UNL     1       6.161   5.372  17.018  0.00  0.00    +0.000 A 
ATOM      6  N   UNL     1       6.889   6.419  16.583  0.00  0.00    +0.000 NA
ATOM      7  C   UNL     1       7.598   7.012  17.567  0.00  0.00    +0.000 A 
ATOM      8  C   UNL     1       7.633   6.602  18.895  0.00  0.00    +0.000 A 
ATOM      9  C   UNL     1       6.857   5.507  19.291  0.00  0.00    +0.000 A 
ATOM     10  C   UNL     1       6.065   4.883  18.311  0.00  0.00    +0.000 A 
ENDROOT
BRANCH   1  17
ATOM     11  C   UNL     1       2.417   5.812  19.753  0.00  0.00    +0.000 C 
ATOM     12  C   UNL     1       2.237   4.344  19.350  0.00  0.00    +0.000 C 
ATOM     13  C   UNL     1       0.941   3.785  19.953  0.00  0.00    +0.000 C 
ATOM     14  C   UNL     1       1.378   3.321  21.335  0.00  0.00    +0.000 C 
ATOM     15  C   UNL     1       2.748   2.723  21.059  0.00  0.00    +0.000 C 
ATOM     16  N   UNL     1       3.269   3.463  19.919  0.00  0.00    +0.000 N 
ATOM     17  C   UNL     1       4.520   3.113  19.404  0.00  0.00    +0.000 C 
ATOM     18  O   UNL     1       5.163   2.203  19.936  0.00  0.00    +0.000 OA
ENDBRANCH   1  17
BRANCH   7  19
ATOM     19  O   UNL     1       8.310   8.160  17.274  0.00  0.00    +0.000 OA
BRANCH  19  20
ATOM     20  C   UNL     1       7.604   9.346  17.647  0.00  0.00    +0.000 C 
BRANCH  20  21
ATOM     21  C   UNL     1       8.581  10.338  18.239  0.00  0.00    +0.000 A 
ATOM     22  C   UNL     1       9.331   9.990  19.365  0.00  0.00    +0.000 A 
ATOM     23  C   UNL     1      10.214  10.921  19.896  0.00  0.00    +0.000 A 
ATOM     24  C   UNL     1      10.334  12.168  19.295  0.00  0.00    +0.000 A 
ATOM     25  C   UNL     1       9.553  12.436  18.183  0.00  0.00    +0.000 A 
ATOM     26  N   UNL     1       8.683  11.554  17.648  0.00  0.00    +0.000 NA
ENDBRANCH  20  21
ENDBRANCH  19  20
ENDBRANCH   7  19
TORSDOF 4
ENDMDL
MODEL 2
REMARK VINA RESULT:      -8.2      0.663      1.048
REMARK  Name = 
REMARK  6 active torsions:
REMARK  status: ('A' for Active; 'I' for Inactive)
REMARK    1  A    between atoms: C_1  and  C_2
REMARK    2  A    between atoms: C_7  and  C_9
REMARK    3  A    between atoms: N_11  and  C_12
REMARK    4  A    between atoms: C_15  and  O_16
REMARK    5  A    between atoms: O_16  and  C_17
REMARK    6  A    between atoms: C_17  and  C_18
REMARK                            x       y       z     vdW  Elec       q    Type
REMARK                         _______ _______ _______ _____ _____    ______ ____
ROOT
ATOM      1  C   UNL     1       5.020   3.812  18.185  0.00  0.00    +0.000 A 
ATOM      2  N   UNL     1       4.694   3.623  16.888  0.00  0.00    +0.000 NA
ATOM      3  N   UNL     1       5.337   4.599  16.227  0.00  0.00    +0.000 N 
ATOM      4  C   UNL     1       5.216   4.703  14.794  0.00  0.00    +0.000 C 
ATOM      5  C   UNL     1       6.083   5.410  17.027  0.00  0.00    +0.000 A 
ATOM      6  N   UNL     1       6.788   6.490  16.639  0.00  0.00    +0.000 NA
ATOM      7  C   UNL     1       7.441   7.087  17.658  0.00  0.00    +0.000 A 
ATOM      8  C   UNL     1       7.443   6.652  18.978  0.00  0.00    +0.000 A 
ATOM      9  C   UNL     1       6.693   5.523  19.326  0.00  0.00    +0.000 A 
ATOM     10  C   UNL     1       5.959   4.891  18.307  0.00  0.00    +0.000 A 
ENDROOT
BRANCH   1  17
ATOM     11  C   UNL     1       2.458   5.807  19.847  0.00  0.00    +0.000 C 
ATOM     12  C   UNL     1       2.211   4.374  19.363  0.00  0.00    +0.000 C 
ATOM     13  C   UNL     1       0.900   3.835  19.953  0.00  0.00    +0.000 C 
ATOM     14  C   UNL     1       1.336   3.273  21.298  0.00  0.00    +0.000 C 
ATOM     15  C   UNL     1       2.675   2.636  20.967  0.00  0.00    +0.000 C 
ATOM     16  N   UNL     1       3.212   3.419  19.864  0.00  0.00    +0.000 N 
ATOM     17  C   UNL     1       4.440   3.047  19.310  0.00  0.00    +0.000 C 
ATOM     18  O   UNL     1       5.051   2.082  19.778  0.00  0.00    +0.000 OA
ENDBRANCH   1  17
BRANCH   7  19
ATOM     19  O   UNL     1       8.122   8.265  17.413  0.00  0.00    +0.000 OA
BRANCH  19  20
ATOM     20  C   UNL     1       8.796   8.754  18.575  0.00  0.00    +0.000 C 
BRANCH  20  21
ATOM     21  C   UNL     1       8.978  10.250  18.448  0.00  0.00    +0.000 A 
ATOM     22  C   UNL     1       8.172  10.977  17.569  0.00  0.00    +0.000 A 
ATOM     23  C   UNL     1       8.365  12.349  17.462  0.00  0.00    +0.000 A 
ATOM     24  C   UNL     1       9.347  12.962  18.231  0.00  0.00    +0.000 A 
ATOM     25  C   UNL     1      10.105  12.170  19.075  0.00  0.00    +0.000 A 
ATOM     26  N   UNL     1       9.945  10.835  19.197  0.00  0.00    +0.000 NA
ENDBRANCH  20  21
ENDBRANCH  19  20
ENDBRANCH   7  19
TORSDOF 4
ENDMDL
MODEL 3
REMARK VINA RESULT:      -8.1      2.935      6.294
REMARK  Name = 
REMARK  6 active torsions:
REMARK  status: ('A' for Active; 'I' for Inactive)
REMARK    1  A    between atoms: C_1  and  C_2
REMARK    2  A    between atoms: C_7  and  C_9
REMARK    3  A    between atoms: N_11  and  C_12
REMARK    4  A    between atoms: C_15  and  O_16
REMARK    5  A    between atoms: O_16  and  C_17
REMARK    6  A    between atoms: C_17  and  C_18
REMARK                            x       y       z     vdW  Elec       q    Type
REMARK                         _______ _______ _______ _____ _____    ______ ____
ROOT
ATOM      1  C   UNL     1       5.522   4.220  18.893  0.00  0.00    +0.000 A 
ATOM      2  N   UNL     1       6.317   5.100  19.540  0.00  0.00    +0.000 NA
ATOM      3  N   UNL     1       7.103   5.619  18.583  0.00  0.00    +0.000 N 
ATOM      4  C   UNL     1       8.092   6.613  18.918  0.00  0.00    +0.000 C 
ATOM      5  C   UNL     1       6.851   5.132  17.336  0.00  0.00    +0.000 A 
ATOM      6  N   UNL     1       7.517   5.440  16.206  0.00  0.00    +0.000 NA
ATOM      7  C   UNL     1       7.027   4.809  15.118  0.00  0.00    +0.000 A 
ATOM      8  C   UNL     1       5.934   3.950  15.109  0.00  0.00    +0.000 A 
ATOM      9  C   UNL     1       5.279   3.667  16.312  0.00  0.00    +0.000 A 
ATOM     10  C   UNL     1       5.780   4.265  17.481  0.00  0.00    +0.000 A 
ENDROOT
BRANCH   1  17
ATOM     11  C   UNL     1       2.280   5.855  19.255  0.00  0.00    +0.000 C 
ATOM     12  C   UNL     1       2.445   4.465  18.630  0.00  0.00    +0.000 C 
ATOM     13  C   UNL     1       1.077   3.779  18.498  0.00  0.00    +0.000 C 
ATOM     14  C   UNL     1       0.894   3.116  19.855  0.00  0.00    +0.000 C 
ATOM     15  C   UNL     1       2.294   2.609  20.162  0.00  0.00    +0.000 C 
ATOM     16  N   UNL     1       3.194   3.535  19.490  0.00  0.00    +0.000 N 
ATOM     17  C   UNL     1       4.571   3.308  19.564  0.00  0.00    +0.000 C 
ATOM     18  O   UNL     1       4.994   2.345  20.210  0.00  0.00    +0.000 OA
ENDBRANCH   1  17
BRANCH   7  19
ATOM     19  O   UNL     1       7.683   4.960  13.910  0.00  0.00    +0.000 OA
BRANCH  19  20
ATOM     20  C   UNL     1       6.774   5.098  12.814  0.00  0.00    +0.000 C 
BRANCH  20  21
ATOM     21  C   UNL     1       6.599   3.752  12.145  0.00  0.00    +0.000 A 
ATOM     22  C   UNL     1       5.319   3.222  11.972  0.00  0.00    +0.000 A 
ATOM     23  C   UNL     1       5.185   1.979  11.365  0.00  0.00    +0.000 A 
ATOM     24  C   UNL     1       6.321   1.300  10.942  0.00  0.00    +0.000 A 
ATOM     25  C   UNL     1       7.554   1.893  11.154  0.00  0.00    +0.000 A 
ATOM     26  N   UNL     1       7.716   3.096  11.746  0.00  0.00    +0.000 NA
ENDBRANCH  20  21
ENDBRANCH  19  20
ENDBRANCH   7  19
TORSDOF 4
ENDMDL
MODEL 4
REMARK VINA RESULT:      -8.0      3.561      6.451
REMARK  Name = 
REMARK  6 active torsions:
REMARK  status: ('A' for Active; 'I' for Inactive)
REMARK    1  A    between atoms: C_1  and  C_2
REMARK    2  A    between atoms: C_7  and  C_9
REMARK    3  A    between atoms: N_11  and  C_12
REMARK    4  A    between atoms: C_15  and  O_16
REMARK    5  A    between atoms: O_16  and  C_17
REMARK    6  A    between atoms: C_17  and  C_18
REMARK                            x       y       z     vdW  Elec       q    Type
REMARK                         _______ _______ _______ _____ _____    ______ ____
ROOT
ATOM      1  C   UNL     1       4.782   5.525  18.899  0.00  0.00    +0.000 A 
ATOM      2  N   UNL     1       5.846   5.590  19.729  0.00  0.00    +0.000 NA
ATOM      3  N   UNL     1       6.913   5.412  18.933  0.00  0.00    +0.000 N 
ATOM      4  C   UNL     1       8.242   5.424  19.492  0.00  0.00    +0.000 C 
ATOM      5  C   UNL     1       6.601   5.249  17.618  0.00  0.00    +0.000 A 
ATOM      6  N   UNL     1       7.465   5.007  16.614  0.00  0.00    +0.000 NA
ATOM      7  C   UNL     1       6.861   4.907  15.411  0.00  0.00    +0.000 A 
ATOM      8  C   UNL     1       5.499   5.063  15.179  0.00  0.00    +0.000 A 
ATOM      9  C   UNL     1       4.647   5.315  16.259  0.00  0.00    +0.000 A 
ATOM     10  C   UNL     1       5.223   5.383  17.540  0.00  0.00    +0.000 A 
ENDROOT
BRANCH   1  17
ATOM     11  C   UNL     1       3.518   2.110  19.119  0.00  0.00    +0.000 C 
ATOM     12  C   UNL     1       3.402   3.114  20.271  0.00  0.00    +0.000 C 
ATOM     13  C   UNL     1       2.433   2.586  21.338  0.00  0.00    +0.000 C 
ATOM     14  C   UNL     1       1.077   3.055  20.831  0.00  0.00    +0.000 C 
ATOM     15  C   UNL     1       1.392   4.443  20.297  0.00  0.00    +0.000 C 
ATOM     16  N   UNL     1       2.780   4.384  19.864  0.00  0.00    +0.000 N 
ATOM     17  C   UNL     1       3.373   5.539  19.347  0.00  0.00    +0.000 C 
ATOM     18  O   UNL     1       2.707   6.574  19.251  0.00  0.00    +0.000 OA
ENDBRANCH   1  17
BRANCH   7  19
ATOM     19  O   UNL     1       7.622   4.562  14.310  0.00  0.00    +0.000 OA
BRANCH  19  20
ATOM     20  C   UNL     1       6.993   4.929  13.079  0.00  0.00    +0.000 C 
BRANCH  20  21
ATOM     21  C   UNL     1       6.635   3.674  12.314  0.00  0.00    +0.000 A 
ATOM     22  C   UNL     1       7.646   2.876  11.773  0.00  0.00    +0.000 A 
ATOM     23  C   UNL     1       7.292   1.734  11.065  0.00  0.00    +0.000 A 
ATOM     24  C   UNL     1       5.948   1.412  10.917  0.00  0.00    +0.000 A 
ATOM     25  C   UNL     1       5.007   2.257  11.481  0.00  0.00    +0.000 A 
ATOM     26  N   UNL     1       5.321   3.376  12.169  0.00  0.00    +0.000 NA
ENDBRANCH  20  21
ENDBRANCH  19  20
ENDBRANCH   7  19
TORSDOF 4
ENDMDL
MODEL 5
REMARK VINA RESULT:      -7.7      4.244      7.222
REMARK  Name = 
REMARK  6 active torsions:
REMARK  status: ('A' for Active; 'I' for Inactive)
REMARK    1  A    between atoms: C_1  and  C_2
REMARK    2  A    between atoms: C_7  and  C_9
REMARK    3  A    between atoms: N_11  and  C_12
REMARK    4  A    between atoms: C_15  and  O_16
REMARK    5  A    between atoms: O_16  and  C_17
REMARK    6  A    between atoms: C_17  and  C_18
REMARK                            x       y       z     vdW  Elec       q    Type
REMARK                         _______ _______ _______ _____ _____    ______ ____
ROOT
ATOM      1  C   UNL     1       3.141   4.295  18.414  0.00  0.00    +0.000 A 
ATOM      2  N   UNL     1       2.956   3.433  19.437  0.00  0.00    +0.000 NA
ATOM      3  N   UNL     1       2.441   4.180  20.426  0.00  0.00    +0.000 N 
ATOM      4  C   UNL     1       2.111   3.576  21.693  0.00  0.00    +0.000 C 
ATOM      5  C   UNL     1       2.264   5.489  20.096  0.00  0.00    +0.000 A 
ATOM      6  N   UNL     1       1.812   6.466  20.905  0.00  0.00    +0.000 NA
ATOM      7  C   UNL     1       1.729   7.665  20.290  0.00  0.00    +0.000 A 
ATOM      8  C   UNL     1       2.035   7.907  18.955  0.00  0.00    +0.000 A 
ATOM      9  C   UNL     1       2.500   6.855  18.160  0.00  0.00    +0.000 A 
ATOM     10  C   UNL     1       2.646   5.595  18.767  0.00  0.00    +0.000 A 
ENDROOT
BRANCH   1  17
ATOM     11  C   UNL     1       6.034   6.459  17.910  0.00  0.00    +0.000 C 
ATOM     12  C   UNL     1       6.115   4.931  17.825  0.00  0.00    +0.000 C 
ATOM     13  C   UNL     1       7.453   4.506  17.202  0.00  0.00    +0.000 C 
ATOM     14  C   UNL     1       7.164   4.545  15.709  0.00  0.00    +0.000 C 
ATOM     15  C   UNL     1       5.751   3.989  15.636  0.00  0.00    +0.000 C 
ATOM     16  N   UNL     1       5.127   4.356  16.899  0.00  0.00    +0.000 N 
ATOM     17  C   UNL     1       3.813   3.948  17.143  0.00  0.00    +0.000 C 
ATOM     18  O   UNL     1       3.205   3.306  16.281  0.00  0.00    +0.000 OA
ENDBRANCH   1  17
BRANCH   7  19
ATOM     19  O   UNL     1       1.374   8.773  21.036  0.00  0.00    +0.000 OA
BRANCH  19  20
ATOM     20  C   UNL     1       0.773   9.795  20.236  0.00  0.00    +0.000 C 
BRANCH  20  21
ATOM     21  C   UNL     1      -0.211  10.571  21.084  0.00  0.00    +0.000 A 
ATOM     22  C   UNL     1      -0.377  10.244  22.432  0.00  0.00    +0.000 A 
ATOM     23  C   UNL     1      -1.295  10.964  23.188  0.00  0.00    +0.000 A 
ATOM     24  C   UNL     1      -2.016  11.990  22.589  0.00  0.00    +0.000 A 
ATOM     25  C   UNL     1      -1.795  12.249  21.247  0.00  0.00    +0.000 A 
ATOM     26  N   UNL     1      -0.915  11.563  20.486  0.00  0.00    +0.000 NA
ENDBRANCH  20  21
ENDBRANCH  19  20
ENDBRANCH   7  19
TORSDOF 4
ENDMDL
MODEL 6
REMARK VINA RESULT:      -7.6      4.061      6.658
REMARK  Name = 
REMARK  6 active torsions:
REMARK  status: ('A' for Active; 'I' for Inactive)
REMARK    1  A    between atoms: C_1  and  C_2
REMARK    2  A    between atoms: C_7  and  C_9
REMARK    3  A    between atoms: N_11  and  C_12
REMARK    4  A    between atoms: C_15  and  O_16
REMARK    5  A    between atoms: O_16  and  C_17
REMARK    6  A    between atoms: C_17  and  C_18
REMARK                            x       y       z     vdW  Elec       q    Type
REMARK                         _______ _______ _______ _____ _____    ______ ____
ROOT
ATOM      1  C   UNL     1       2.172   7.688  18.985  0.00  0.00    +0.000 A 
ATOM      2  N   UNL     1       1.781   6.884  19.997  0.00  0.00    +0.000 NA
ATOM      3  N   UNL     1       2.540   5.783  19.872  0.00  0.00    +0.000 N 
ATOM      4  C   UNL     1       2.391   4.692  20.803  0.00  0.00    +0.000 C 
ATOM      5  C   UNL     1       3.421   5.832  18.835  0.00  0.00    +0.000 A 
ATOM      6  N   UNL     1       4.264   4.854  18.452  0.00  0.00    +0.000 NA
ATOM      7  C   UNL     1       5.029   5.201  17.395  0.00  0.00    +0.000 A 
ATOM      8  C   UNL     1       5.008   6.436  16.758  0.00  0.00    +0.000 A 
ATOM      9  C   UNL     1       4.113   7.417  17.198  0.00  0.00    +0.000 A 
ATOM     10  C   UNL     1       3.262   7.087  18.268  0.00  0.00    +0.000 A 
ENDROOT
BRANCH   1  17
ATOM     11  C   UNL     1      -0.261   8.572  21.555  0.00  0.00    +0.000 C 
ATOM     12  C   UNL     1       0.829   9.537  21.076  0.00  0.00    +0.000 C 
ATOM     13  C   UNL     1       0.538  10.957  21.581  0.00  0.00    +0.000 C 
ATOM     14  C   UNL     1      -0.388  11.518  20.512  0.00  0.00    +0.000 C 
ATOM     15  C   UNL     1       0.220  10.967  19.233  0.00  0.00    +0.000 C 
ATOM     16  N   UNL     1       0.842   9.707  19.614  0.00  0.00    +0.000 N 
ATOM     17  C   UNL     1       1.522   8.971  18.640  0.00  0.00    +0.000 C 
ATOM     18  O   UNL     1       1.563   9.389  17.480  0.00  0.00    +0.000 OA
ENDBRANCH   1  17
BRANCH   7  19
ATOM     19  O   UNL     1       5.867   4.252  16.840  0.00  0.00    +0.000 OA
BRANCH  19  20
ATOM     20  C   UNL     1       7.050   4.833  16.285  0.00  0.00    +0.000 C 
BRANCH  20  21
ATOM     21  C   UNL     1       7.030   4.651  14.783  0.00  0.00    +0.000 A 
ATOM     22  C   UNL     1       6.129   3.756  14.202  0.00  0.00    +0.000 A 
ATOM     23  C   UNL     1       6.138   3.598  12.821  0.00  0.00    +0.000 A 
ATOM     24  C   UNL     1       7.034   4.334  12.056  0.00  0.00    +0.000 A 
ATOM     25  C   UNL     1       7.896   5.198  12.709  0.00  0.00    +0.000 A 
ATOM     26  N   UNL     1       7.915   5.368  14.049  0.00  0.00    +0.000 NA
ENDBRANCH  20  21
ENDBRANCH  19  20
ENDBRANCH   7  19
TORSDOF 4
ENDMDL
MODEL 7
REMARK VINA RESULT:      -7.6      4.214      7.282
REMARK  Name = 
REMARK  6 active torsions:
REMARK  status: ('A' for Active; 'I' for Inactive)
REMARK    1  A    between atoms: C_1  and  C_2
REMARK    2  A    between atoms: C_7  and  C_9
REMARK    3  A    between atoms: N_11  and  C_12
REMARK    4  A    between atoms: C_15  and  O_16
REMARK    5  A    between atoms: O_16  and  C_17
REMARK    6  A    between atoms: C_17  and  C_18
REMARK                            x       y       z     vdW  Elec       q    Type
REMARK                         _______ _______ _______ _____ _____    ______ ____
ROOT
ATOM      1  C   UNL     1       3.145   4.321  18.396  0.00  0.00    +0.000 A 
ATOM      2  N   UNL     1       2.959   3.449  19.411  0.00  0.00    +0.000 NA
ATOM      3  N   UNL     1       2.452   4.189  20.410  0.00  0.00    +0.000 N 
ATOM      4  C   UNL     1       2.124   3.573  21.672  0.00  0.00    +0.000 C 
ATOM      5  C   UNL     1       2.281   5.502  20.095  0.00  0.00    +0.000 A 
ATOM      6  N   UNL     1       1.838   6.473  20.916  0.00  0.00    +0.000 NA
ATOM      7  C   UNL     1       1.760   7.678  20.314  0.00  0.00    +0.000 A 
ATOM      8  C   UNL     1       2.061   7.933  18.981  0.00  0.00    +0.000 A 
ATOM      9  C   UNL     1       2.516   6.887  18.172  0.00  0.00    +0.000 A 
ATOM     10  C   UNL     1       2.658   5.620  18.766  0.00  0.00    +0.000 A 
ENDROOT
BRANCH   1  17
ATOM     11  C   UNL     1       6.046   6.477  17.901  0.00  0.00    +0.000 C 
ATOM     12  C   UNL     1       6.119   4.949  17.800  0.00  0.00    +0.000 C 
ATOM     13  C   UNL     1       7.452   4.525  17.167  0.00  0.00    +0.000 C 
ATOM     14  C   UNL     1       7.156   4.580  15.676  0.00  0.00    +0.000 C 
ATOM     15  C   UNL     1       5.741   4.031  15.603  0.00  0.00    +0.000 C 
ATOM     16  N   UNL     1       5.124   4.388  16.872  0.00  0.00    +0.000 N 
ATOM     17  C   UNL     1       3.809   3.984  17.119  0.00  0.00    +0.000 C 
ATOM     18  O   UNL     1       3.194   3.354  16.253  0.00  0.00    +0.000 OA
ENDBRANCH   1  17
BRANCH   7  19
ATOM     19  O   UNL     1       1.414   8.780  21.073  0.00  0.00    +0.000 OA
BRANCH  19  20
ATOM     20  C   UNL     1       0.077   8.695  21.574  0.00  0.00    +0.000 C 
BRANCH  20  21
ATOM     21  C   UNL     1      -0.493  10.091  21.700  0.00  0.00    +0.000 A 
ATOM     22  C   UNL     1      -0.623  10.895  20.565  0.00  0.00    +0.000 A 
ATOM     23  C   UNL     1      -1.139  12.178  20.708  0.00  0.00    +0.000 A 
ATOM     24  C   UNL     1      -1.515  12.625  21.968  0.00  0.00    +0.000 A 
ATOM     25  C   UNL     1      -1.351  11.768  23.043  0.00  0.00    +0.000 A 
ATOM     26  N   UNL     1      -0.848  10.519  22.936  0.00  0.00    +0.000 NA
ENDBRANCH  20  21
ENDBRANCH  19  20
ENDBRANCH   7  19
TORSDOF 4
ENDMDL
MODEL 8
REMARK VINA RESULT:      -7.6      4.095      6.910
REMARK  Name = 
REMARK  6 active torsions:
REMARK  status: ('A' for Active; 'I' for Inactive)
REMARK    1  A    between atoms: C_1  and  C_2
REMARK    2  A    between atoms: C_7  and  C_9
REMARK    3  A    between atoms: N_11  and  C_12
REMARK    4  A    between atoms: C_15  and  O_16
REMARK    5  A    between atoms: O_16  and  C_17
REMARK    6  A    between atoms: C_17  and  C_18
REMARK                            x       y       z     vdW  Elec       q    Type
REMARK                         _______ _______ _______ _____ _____    ______ ____
ROOT
ATOM      1  C   UNL     1       3.147   4.371  18.424  0.00  0.00    +0.000 A 
ATOM      2  N   UNL     1       2.950   3.531  19.463  0.00  0.00    +0.000 NA
ATOM      3  N   UNL     1       2.435   4.302  20.434  0.00  0.00    +0.000 N 
ATOM      4  C   UNL     1       2.094   3.726  21.711  0.00  0.00    +0.000 C 
ATOM      5  C   UNL     1       2.270   5.605  20.077  0.00  0.00    +0.000 A 
ATOM      6  N   UNL     1       1.822   6.602  20.864  0.00  0.00    +0.000 NA
ATOM      7  C   UNL     1       1.752   7.789  20.223  0.00  0.00    +0.000 A 
ATOM      8  C   UNL     1       2.066   8.002  18.886  0.00  0.00    +0.000 A 
ATOM      9  C   UNL     1       2.526   6.930  18.114  0.00  0.00    +0.000 A 
ATOM     10  C   UNL     1       2.660   5.682  18.748  0.00  0.00    +0.000 A 
ENDROOT
BRANCH   1  17
ATOM     11  C   UNL     1       6.042   6.521  17.876  0.00  0.00    +0.000 C 
ATOM     12  C   UNL     1       6.123   4.991  17.828  0.00  0.00    +0.000 C 
ATOM     13  C   UNL     1       7.462   4.551  17.220  0.00  0.00    +0.000 C 
ATOM     14  C   UNL     1       7.177   4.554  15.725  0.00  0.00    +0.000 C 
ATOM     15  C   UNL     1       5.765   3.997  15.662  0.00  0.00    +0.000 C 
ATOM     16  N   UNL     1       5.136   4.394  16.913  0.00  0.00    +0.000 N 
ATOM     17  C   UNL     1       3.822   3.993  17.163  0.00  0.00    +0.000 C 
ATOM     18  O   UNL     1       3.216   3.331  16.316  0.00  0.00    +0.000 OA
ENDBRANCH   1  17
BRANCH   7  19
ATOM     19  O   UNL     1       1.401   8.914  20.945  0.00  0.00    +0.000 OA
BRANCH  19  20
ATOM     20  C   UNL     1       0.000   9.192  20.869  0.00  0.00    +0.000 C 
BRANCH  20  21
ATOM     21  C   UNL     1      -0.211  10.435  20.032  0.00  0.00    +0.000 A 
ATOM     22  C   UNL     1      -1.171  10.437  19.018  0.00  0.00    +0.000 A 
ATOM     23  C   UNL     1      -1.339  11.587  18.256  0.00  0.00    +0.000 A 
ATOM     24  C   UNL     1      -0.556  12.703  18.523  0.00  0.00    +0.000 A 
ATOM     25  C   UNL     1       0.376  12.619  19.544  0.00  0.00    +0.000 A 
ATOM     26  N   UNL     1       0.565  11.514  20.297  0.00  0.00    +0.000 NA
ENDBRANCH  20  21
ENDBRANCH  19  20
ENDBRANCH   7  19
TORSDOF 4
ENDMDL
MODEL 9
REMARK VINA RESULT:      -7.3      5.842      9.501
REMARK  Name = 
REMARK  6 active torsions:
REMARK  status: ('A' for Active; 'I' for Inactive)
REMARK    1  A    between atoms: C_1  and  C_2
REMARK    2  A    between atoms: C_7  and  C_9
REMARK    3  A    between atoms: N_11  and  C_12
REMARK    4  A    between atoms: C_15  and  O_16
REMARK    5  A    between atoms: O_16  and  C_17
REMARK    6  A    between atoms: C_17  and  C_18
REMARK                            x       y       z     vdW  Elec       q    Type
REMARK                         _______ _______ _______ _____ _____    ______ ____
ROOT
ATOM      1  C   UNL     1       0.362  11.053  19.765  0.00  0.00    +0.000 A 
ATOM      2  N   UNL     1       0.184  10.773  21.075  0.00  0.00    +0.000 NA
ATOM      3  N   UNL     1       0.765   9.575  21.251  0.00  0.00    +0.000 N 
ATOM      4  C   UNL     1       0.767   8.958  22.554  0.00  0.00    +0.000 C 
ATOM      5  C   UNL     1       1.328   9.062  20.123  0.00  0.00    +0.000 A 
ATOM      6  N   UNL     1       1.931   7.864  20.003  0.00  0.00    +0.000 NA
ATOM      7  C   UNL     1       2.408   7.636  18.760  0.00  0.00    +0.000 A 
ATOM      8  C   UNL     1       2.338   8.527  17.696  0.00  0.00    +0.000 A 
ATOM      9  C   UNL     1       1.701   9.759  17.877  0.00  0.00    +0.000 A 
ATOM     10  C   UNL     1       1.147  10.025  19.142  0.00  0.00    +0.000 A 
ENDROOT
BRANCH   1  17
ATOM     11  C   UNL     1       1.566  14.134  21.303  0.00  0.00    +0.000 C 
ATOM     12  C   UNL     1       1.641  13.874  19.794  0.00  0.00    +0.000 C 
ATOM     13  C   UNL     1       1.976  15.174  19.050  0.00  0.00    +0.000 C 
ATOM     14  C   UNL     1       0.609  15.812  18.843  0.00  0.00    +0.000 C 
ATOM     15  C   UNL     1      -0.264  14.612  18.514  0.00  0.00    +0.000 C 
ATOM     16  N   UNL     1       0.344  13.489  19.214  0.00  0.00    +0.000 N 
ATOM     17  C   UNL     1      -0.225  12.221  19.075  0.00  0.00    +0.000 C 
ATOM     18  O   UNL     1      -1.238  12.082  18.383  0.00  0.00    +0.000 OA
ENDBRANCH   1  17
BRANCH   7  19
ATOM     19  O   UNL     1       2.962   6.402  18.475  0.00  0.00    +0.000 OA
BRANCH  19  20
ATOM     20  C   UNL     1       1.967   5.390  18.298  0.00  0.00    +0.000 C 
BRANCH  20  21
ATOM     21  C   UNL     1       2.122   4.350  19.386  0.00  0.00    +0.000 A 
ATOM     22  C   UNL     1       1.051   4.069  20.238  0.00  0.00    +0.000 A 
ATOM     23  C   UNL     1       1.221   3.118  21.237  0.00  0.00    +0.000 A 
ATOM     24  C   UNL     1       2.443   2.468  21.359  0.00  0.00    +0.000 A 
ATOM     25  C   UNL     1       3.455   2.806  20.477  0.00  0.00    +0.000 A 
ATOM     26  N   UNL     1       3.321   3.730  19.500  0.00  0.00    +0.000 NA
ENDBRANCH  20  21
ENDBRANCH  19  20
ENDBRANCH   7  19
TORSDOF 4
ENDMDL
