MODEL 1
REMARK VINA RESULT:      -6.5      0.000      0.000
REMARK  Name = 
REMARK  7 active torsions:
REMARK  status: ('A' for Active; 'I' for Inactive)
REMARK    1  A    between atoms: C_1  and  C_2
REMARK    2  A    between atoms: C_7  and  N_8
REMARK    3  A    between atoms: N_10  and  C_11
REMARK    4  A    between atoms: C_17  and  C_19
REMARK    5  A    between atoms: C_19  and  N_20
REMARK    6  A    between atoms: C_24  and  C_25
REMARK    7  A    between atoms: C_26  and  C_27
REMARK                            x       y       z     vdW  Elec       q    Type
REMARK                         _______ _______ _______ _____ _____    ______ ____
ROOT
ATOM      1  N   UNL     1      -2.549  14.590  24.578  0.00  0.00    +0.000 N 
ATOM      2  C   UNL     1      -1.241  14.746  24.332  0.00  0.00    +0.000 C 
ATOM      3  N   UNL     1      -0.447  15.563  24.978  0.00  0.00    +0.000 NA
ATOM      4  N   UNL     1      -0.764  14.100  23.184  0.00  0.00    +0.000 N 
ATOM      5  C   UNL     1       0.046  15.024  22.423  0.00  0.00    +0.000 C 
ATOM      6  C   UNL     1       0.592  14.256  21.301  0.00  0.00    +0.000 C 
ATOM      7  N   UNL     1       0.273  13.271  20.368  0.00  0.00    +0.000 N 
ATOM      8  C   UNL     1       0.610  13.739  19.067  0.00  0.00    +0.000 C 
ATOM      9  O   UNL     1       0.432  13.195  17.989  0.00  0.00    +0.000 OA
ATOM     10  C   UNL     1      -0.520  12.168  20.997  0.00  0.00    +0.000 C 
ATOM     11  C   UNL     1      -1.086  12.657  22.591  0.00  0.00    +0.000 C 
ATOM     12  H   UNL     1      -2.828  14.821  25.523  0.00  0.00    +0.000 HD
ENDROOT
BRANCH   1  19
ATOM     13  C   UNL     1      -4.299  12.484  24.642  0.00  0.00    +0.000 C 
ATOM     14  C   UNL     1      -4.495  13.598  23.654  0.00  0.00    +0.000 A 
ATOM     15  C   UNL     1      -5.521  13.553  22.715  0.00  0.00    +0.000 A 
ATOM     16  C   UNL     1      -5.682  14.567  21.776  0.00  0.00    +0.000 A 
ATOM     17  C   UNL     1      -4.845  15.677  21.815  0.00  0.00    +0.000 A 
ATOM     18  C   UNL     1      -3.822  15.744  22.760  0.00  0.00    +0.000 A 
ATOM     19  C   UNL     1      -3.627  14.689  23.673  0.00  0.00    +0.000 A 
ENDBRANCH   1  19
BRANCH  10  20
ATOM     20  C   UNL     1      -1.339  11.470  19.887  0.00  0.00    +0.000 A 
ATOM     21  C   UNL     1      -0.753  10.355  19.214  0.00  0.00    +0.000 A 
ATOM     22  C   UNL     1      -1.107   9.944  17.927  0.00  0.00    +0.000 A 
ATOM     23  C   UNL     1      -2.200  10.573  17.337  0.00  0.00    +0.000 A 
ATOM     24  C   UNL     1      -2.910  11.543  18.009  0.00  0.00    +0.000 A 
ATOM     25  C   UNL     1      -2.519  11.982  19.296  0.00  0.00    +0.000 A 
ENDBRANCH  10  20
BRANCH   3  26
ATOM     26  C   UNL     1      -0.928  16.378  25.920  0.00  0.00    +0.000 C 
ATOM     27  N   UNL     1      -1.386  17.039  26.751  0.00  0.00    +0.000 NA
ENDBRANCH   3  26
BRANCH   8  28
ATOM     28  C   UNL     1       1.234  15.137  19.215  0.00  0.00    +0.000 C 
BRANCH  28  29
ATOM     29  N   UNL     1       0.809  16.196  18.349  0.00  0.00    +0.000 N 
ATOM     30  N   UNL     1      -0.383  16.754  18.678  0.00  0.00    +0.000 NA
ATOM     31  C   UNL     1      -0.291  17.998  18.222  0.00  0.00    +0.000 A 
ATOM     32  C   UNL     1       0.969  18.269  17.625  0.00  0.00    +0.000 A 
ATOM     33  C   UNL     1       1.693  17.099  17.798  0.00  0.00    +0.000 A 
ATOM     34  C   UNL     1       3.124  16.778  17.588  0.00  0.00    +0.000 C 
ENDBRANCH  28  29
ENDBRANCH   8  28
TORSDOF 5
ENDMDL
MODEL 2
REMARK VINA RESULT:      -6.4      0.879      1.549
REMARK  Name = 
REMARK  7 active torsions:
REMARK  status: ('A' for Active; 'I' for Inactive)
REMARK    1  A    between atoms: C_1  and  C_2
REMARK    2  A    between atoms: C_7  and  N_8
REMARK    3  A    between atoms: N_10  and  C_11
REMARK    4  A    between atoms: C_17  and  C_19
REMARK    5  A    between atoms: C_19  and  N_20
REMARK    6  A    between atoms: C_24  and  C_25
REMARK    7  A    between atoms: C_26  and  C_27
REMARK                            x       y       z     vdW  Elec       q    Type
REMARK                         _______ _______ _______ _____ _____    ______ ____
ROOT
ATOM      1  N   UNL     1      -2.553  14.658  24.679  0.00  0.00    +0.000 N 
ATOM      2  C   UNL     1      -1.246  14.803  24.424  0.00  0.00    +0.000 C 
ATOM      3  N   UNL     1      -0.439  15.611  25.066  0.00  0.00    +0.000 NA
ATOM      4  N   UNL     1      -0.783  14.155  23.271  0.00  0.00    +0.000 N 
ATOM      5  C   UNL     1       0.030  15.074  22.506  0.00  0.00    +0.000 C 
ATOM      6  C   UNL     1       0.560  14.304  21.378  0.00  0.00    +0.000 C 
ATOM      7  N   UNL     1       0.226  13.323  20.446  0.00  0.00    +0.000 N 
ATOM      8  C   UNL     1       0.558  13.792  19.143  0.00  0.00    +0.000 C 
ATOM      9  O   UNL     1       0.367  13.252  18.065  0.00  0.00    +0.000 OA
ATOM     10  C   UNL     1      -0.573  12.227  21.077  0.00  0.00    +0.000 C 
ATOM     11  C   UNL     1      -1.123  12.717  22.677  0.00  0.00    +0.000 C 
ATOM     12  H   UNL     1      -2.823  14.889  25.627  0.00  0.00    +0.000 HD
ENDROOT
BRANCH   1  19
ATOM     13  C   UNL     1      -4.249  12.508  24.656  0.00  0.00    +0.000 C 
ATOM     14  C   UNL     1      -4.477  13.659  23.718  0.00  0.00    +0.000 A 
ATOM     15  C   UNL     1      -5.505  13.629  22.780  0.00  0.00    +0.000 A 
ATOM     16  C   UNL     1      -5.696  14.678  21.887  0.00  0.00    +0.000 A 
ATOM     17  C   UNL     1      -4.886  15.807  21.972  0.00  0.00    +0.000 A 
ATOM     18  C   UNL     1      -3.862  15.858  22.916  0.00  0.00    +0.000 A 
ATOM     19  C   UNL     1      -3.637  14.770  23.782  0.00  0.00    +0.000 A 
ENDBRANCH   1  19
BRANCH  10  20
ATOM     20  C   UNL     1      -1.406  11.538  19.972  0.00  0.00    +0.000 A 
ATOM     21  C   UNL     1      -0.832  10.427  19.285  0.00  0.00    +0.000 A 
ATOM     22  C   UNL     1      -1.201  10.025  17.999  0.00  0.00    +0.000 A 
ATOM     23  C   UNL     1      -2.298  10.661  17.426  0.00  0.00    +0.000 A 
ATOM     24  C   UNL     1      -2.998  11.629  18.112  0.00  0.00    +0.000 A 
ATOM     25  C   UNL     1      -2.591  12.059  19.397  0.00  0.00    +0.000 A 
ENDBRANCH  10  20
BRANCH   3  26
ATOM     26  C   UNL     1      -0.906  16.428  26.013  0.00  0.00    +0.000 C 
ATOM     27  N   UNL     1      -1.365  17.103  26.833  0.00  0.00    +0.000 NA
ENDBRANCH   3  26
BRANCH   8  28
ATOM     28  C   UNL     1       1.195  15.183  19.289  0.00  0.00    +0.000 C 
BRANCH  28  29
ATOM     29  N   UNL     1       2.569  15.374  18.929  0.00  0.00    +0.000 N 
ATOM     30  N   UNL     1       3.346  14.269  19.054  0.00  0.00    +0.000 NA
ATOM     31  C   UNL     1       4.303  14.447  18.150  0.00  0.00    +0.000 A 
ATOM     32  C   UNL     1       4.138  15.647  17.410  0.00  0.00    +0.000 A 
ATOM     33  C   UNL     1       2.953  16.187  17.885  0.00  0.00    +0.000 A 
ATOM     34  C   UNL     1       2.114  17.312  17.408  0.00  0.00    +0.000 C 
ENDBRANCH  28  29
ENDBRANCH   8  28
TORSDOF 5
ENDMDL
MODEL 3
REMARK VINA RESULT:      -6.3      2.625      3.804
REMARK  Name = 
REMARK  7 active torsions:
REMARK  status: ('A' for Active; 'I' for Inactive)
REMARK    1  A    between atoms: C_1  and  C_2
REMARK    2  A    between atoms: C_7  and  N_8
REMARK    3  A    between atoms: N_10  and  C_11
REMARK    4  A    between atoms: C_17  and  C_19
REMARK    5  A    between atoms: C_19  and  N_20
REMARK    6  A    between atoms: C_24  and  C_25
REMARK    7  A    between atoms: C_26  and  C_27
REMARK                            x       y       z     vdW  Elec       q    Type
REMARK                         _______ _______ _______ _____ _____    ______ ____
ROOT
ATOM      1  N   UNL     1      -6.634  13.925  21.320  0.00  0.00    +0.000 N 
ATOM      2  C   UNL     1      -5.584  14.453  21.964  0.00  0.00    +0.000 C 
ATOM      3  N   UNL     1      -5.655  15.392  22.875  0.00  0.00    +0.000 NA
ATOM      4  N   UNL     1      -4.327  14.070  21.479  0.00  0.00    +0.000 N 
ATOM      5  C   UNL     1      -3.499  15.245  21.327  0.00  0.00    +0.000 C 
ATOM      6  C   UNL     1      -2.178  14.761  20.920  0.00  0.00    +0.000 C 
ATOM      7  N   UNL     1      -1.537  13.817  20.120  0.00  0.00    +0.000 N 
ATOM      8  C   UNL     1      -0.575  14.478  19.305  0.00  0.00    +0.000 C 
ATOM      9  O   UNL     1       0.144  14.008  18.438  0.00  0.00    +0.000 OA
ATOM     10  C   UNL     1      -2.219  12.487  20.202  0.00  0.00    +0.000 C 
ATOM     11  C   UNL     1      -3.789  12.655  20.983  0.00  0.00    +0.000 C 
ATOM     12  H   UNL     1      -7.509  13.984  21.826  0.00  0.00    +0.000 HD
ENDROOT
BRANCH   1  19
ATOM     13  C   UNL     1      -7.336  11.420  20.465  0.00  0.00    +0.000 C 
ATOM     14  C   UNL     1      -7.142  12.530  19.471  0.00  0.00    +0.000 A 
ATOM     15  C   UNL     1      -7.248  12.295  18.103  0.00  0.00    +0.000 A 
ATOM     16  C   UNL     1      -7.033  13.314  17.180  0.00  0.00    +0.000 A 
ATOM     17  C   UNL     1      -6.770  14.604  17.631  0.00  0.00    +0.000 A 
ATOM     18  C   UNL     1      -6.676  14.857  18.998  0.00  0.00    +0.000 A 
ATOM     19  C   UNL     1      -6.839  13.812  19.928  0.00  0.00    +0.000 A 
ENDBRANCH   1  19
BRANCH  10  20
ATOM     20  C   UNL     1      -1.896  11.698  18.913  0.00  0.00    +0.000 A 
ATOM     21  C   UNL     1      -2.810  11.786  17.819  0.00  0.00    +0.000 A 
ATOM     22  C   UNL     1      -2.941  10.811  16.828  0.00  0.00    +0.000 A 
ATOM     23  C   UNL     1      -2.017   9.769  16.836  0.00  0.00    +0.000 A 
ATOM     24  C   UNL     1      -1.007   9.722  17.771  0.00  0.00    +0.000 A 
ATOM     25  C   UNL     1      -0.907  10.692  18.796  0.00  0.00    +0.000 A 
ENDBRANCH  10  20
BRANCH   3  26
ATOM     26  C   UNL     1      -6.826  15.954  23.183  0.00  0.00    +0.000 C 
ATOM     27  N   UNL     1      -7.831  16.424  23.509  0.00  0.00    +0.000 NA
ENDBRANCH   3  26
BRANCH   8  28
ATOM     28  C   UNL     1      -0.597  15.972  19.665  0.00  0.00    +0.000 C 
BRANCH  28  29
ATOM     29  N   UNL     1       0.546  16.786  19.376  0.00  0.00    +0.000 N 
ATOM     30  N   UNL     1       1.712  16.336  19.906  0.00  0.00    +0.000 NA
ATOM     31  C   UNL     1       2.639  16.794  19.073  0.00  0.00    +0.000 A 
ATOM     32  C   UNL     1       2.086  17.514  17.981  0.00  0.00    +0.000 A 
ATOM     33  C   UNL     1       0.715  17.419  18.164  0.00  0.00    +0.000 A 
ATOM     34  C   UNL     1      -0.429  17.774  17.290  0.00  0.00    +0.000 C 
ENDBRANCH  28  29
ENDBRANCH   8  28
TORSDOF 5
ENDMDL
MODEL 4
REMARK VINA RESULT:      -6.3      2.472      3.839
REMARK  Name = 
REMARK  7 active torsions:
REMARK  status: ('A' for Active; 'I' for Inactive)
REMARK    1  A    between atoms: C_1  and  C_2
REMARK    2  A    between atoms: C_7  and  N_8
REMARK    3  A    between atoms: N_10  and  C_11
REMARK    4  A    between atoms: C_17  and  C_19
REMARK    5  A    between atoms: C_19  and  N_20
REMARK    6  A    between atoms: C_24  and  C_25
REMARK    7  A    between atoms: C_26  and  C_27
REMARK                            x       y       z     vdW  Elec       q    Type
REMARK                         _______ _______ _______ _____ _____    ______ ____
ROOT
ATOM      1  N   UNL     1      -5.869  13.367  22.526  0.00  0.00    +0.000 N 
ATOM      2  C   UNL     1      -4.975  14.141  23.154  0.00  0.00    +0.000 C 
ATOM      3  N   UNL     1      -5.221  15.333  23.639  0.00  0.00    +0.000 NA
ATOM      4  N   UNL     1      -3.652  13.681  23.120  0.00  0.00    +0.000 N 
ATOM      5  C   UNL     1      -2.780  14.772  22.748  0.00  0.00    +0.000 C 
ATOM      6  C   UNL     1      -1.415  14.248  22.833  0.00  0.00    +0.000 C 
ATOM      7  N   UNL     1      -0.638  13.120  22.575  0.00  0.00    +0.000 N 
ATOM      8  C   UNL     1       0.498  13.506  21.809  0.00  0.00    +0.000 C 
ATOM      9  O   UNL     1       1.378  12.803  21.340  0.00  0.00    +0.000 OA
ATOM     10  C   UNL     1      -1.357  11.868  22.970  0.00  0.00    +0.000 C 
ATOM     11  C   UNL     1      -3.055  12.213  23.283  0.00  0.00    +0.000 C 
ATOM     12  H   UNL     1      -6.833  13.551  22.777  0.00  0.00    +0.000 HD
ENDROOT
BRANCH   1  19
ATOM     13  C   UNL     1      -7.907  11.648  21.899  0.00  0.00    +0.000 C 
ATOM     14  C   UNL     1      -6.764  11.843  20.944  0.00  0.00    +0.000 A 
ATOM     15  C   UNL     1      -6.683  11.113  19.762  0.00  0.00    +0.000 A 
ATOM     16  C   UNL     1      -5.607  11.267  18.894  0.00  0.00    +0.000 A 
ATOM     17  C   UNL     1      -4.626  12.212  19.178  0.00  0.00    +0.000 A 
ATOM     18  C   UNL     1      -4.702  12.962  20.350  0.00  0.00    +0.000 A 
ATOM     19  C   UNL     1      -5.764  12.764  21.254  0.00  0.00    +0.000 A 
ENDBRANCH   1  19
BRANCH  10  20
ATOM     20  C   UNL     1      -0.777  10.698  22.143  0.00  0.00    +0.000 A 
ATOM     21  C   UNL     1       0.114   9.788  22.790  0.00  0.00    +0.000 A 
ATOM     22  C   UNL     1       1.071   9.021  22.122  0.00  0.00    +0.000 A 
ATOM     23  C   UNL     1       1.043   9.042  20.731  0.00  0.00    +0.000 A 
ATOM     24  C   UNL     1       0.096   9.773  20.049  0.00  0.00    +0.000 A 
ATOM     25  C   UNL     1      -0.843  10.580  20.733  0.00  0.00    +0.000 A 
ENDBRANCH  10  20
BRANCH   3  26
ATOM     26  C   UNL     1      -6.415  15.904  23.468  0.00  0.00    +0.000 C 
ATOM     27  N   UNL     1      -7.454  16.405  23.382  0.00  0.00    +0.000 NA
ENDBRANCH   3  26
BRANCH   8  28
ATOM     28  C   UNL     1       0.437  15.029  21.607  0.00  0.00    +0.000 C 
BRANCH  28  29
ATOM     29  N   UNL     1       1.183  15.632  20.543  0.00  0.00    +0.000 N 
ATOM     30  N   UNL     1       2.487  15.872  20.830  0.00  0.00    +0.000 NA
ATOM     31  C   UNL     1       3.090  15.816  19.648  0.00  0.00    +0.000 A 
ATOM     32  C   UNL     1       2.193  15.507  18.592  0.00  0.00    +0.000 A 
ATOM     33  C   UNL     1       0.973  15.312  19.220  0.00  0.00    +0.000 A 
ATOM     34  C   UNL     1      -0.321  14.778  18.730  0.00  0.00    +0.000 C 
ENDBRANCH  28  29
ENDBRANCH   8  28
TORSDOF 5
ENDMDL
MODEL 5
REMARK VINA RESULT:      -6.3      2.522      3.879
REMARK  Name = 
REMARK  7 active torsions:
REMARK  status: ('A' for Active; 'I' for Inactive)
REMARK    1  A    between atoms: C_1  and  C_2
REMARK    2  A    between atoms: C_7  and  N_8
REMARK    3  A    between atoms: N_10  and  C_11
REMARK    4  A    between atoms: C_17  and  C_19
REMARK    5  A    between atoms: C_19  and  N_20
REMARK    6  A    between atoms: C_24  and  C_25
REMARK    7  A    between atoms: C_26  and  C_27
REMARK                            x       y       z     vdW  Elec       q    Type
REMARK                         _______ _______ _______ _____ _____    ______ ____
ROOT
ATOM      1  N   UNL     1      -5.961  13.279  21.929  0.00  0.00    +0.000 N 
ATOM      2  C   UNL     1      -5.124  14.123  22.547  0.00  0.00    +0.000 C 
ATOM      3  N   UNL     1      -5.423  15.346  22.912  0.00  0.00    +0.000 NA
ATOM      4  N   UNL     1      -3.794  13.692  22.638  0.00  0.00    +0.000 N 
ATOM      5  C   UNL     1      -2.919  14.768  22.232  0.00  0.00    +0.000 C 
ATOM      6  C   UNL     1      -1.553  14.285  22.450  0.00  0.00    +0.000 C 
ATOM      7  N   UNL     1      -0.742  13.158  22.339  0.00  0.00    +0.000 N 
ATOM      8  C   UNL     1       0.436  13.504  21.619  0.00  0.00    +0.000 C 
ATOM      9  O   UNL     1       1.358  12.785  21.269  0.00  0.00    +0.000 OA
ATOM     10  C   UNL     1      -1.463  11.926  22.790  0.00  0.00    +0.000 C 
ATOM     11  C   UNL     1      -3.184  12.257  22.961  0.00  0.00    +0.000 C 
ATOM     12  H   UNL     1      -6.942  13.461  22.100  0.00  0.00    +0.000 HD
ENDROOT
BRANCH   1  19
ATOM     13  C   UNL     1      -7.839  11.358  21.395  0.00  0.00    +0.000 C 
ATOM     14  C   UNL     1      -6.677  11.556  20.464  0.00  0.00    +0.000 A 
ATOM     15  C   UNL     1      -6.495  10.732  19.358  0.00  0.00    +0.000 A 
ATOM     16  C   UNL     1      -5.399  10.891  18.515  0.00  0.00    +0.000 A 
ATOM     17  C   UNL     1      -4.503  11.932  18.744  0.00  0.00    +0.000 A 
ATOM     18  C   UNL     1      -4.681  12.775  19.839  0.00  0.00    +0.000 A 
ATOM     19  C   UNL     1      -5.761  12.576  20.722  0.00  0.00    +0.000 A 
ENDBRANCH   1  19
BRANCH  10  20
ATOM     20  C   UNL     1      -0.809  10.705  22.104  0.00  0.00    +0.000 A 
ATOM     21  C   UNL     1       0.066   9.883  22.877  0.00  0.00    +0.000 A 
ATOM     22  C   UNL     1       1.077   9.088  22.334  0.00  0.00    +0.000 A 
ATOM     23  C   UNL     1       1.128   8.985  20.947  0.00  0.00    +0.000 A 
ATOM     24  C   UNL     1       0.202   9.625  20.152  0.00  0.00    +0.000 A 
ATOM     25  C   UNL     1      -0.793  10.461  20.709  0.00  0.00    +0.000 A 
ENDBRANCH  10  20
BRANCH   3  26
ATOM     26  C   UNL     1      -6.613  15.873  22.616  0.00  0.00    +0.000 C 
ATOM     27  N   UNL     1      -7.625  16.334  22.300  0.00  0.00    +0.000 NA
ENDBRANCH   3  26
BRANCH   8  28
ATOM     28  C   UNL     1       0.362  15.003  21.286  0.00  0.00    +0.000 C 
BRANCH  28  29
ATOM     29  N   UNL     1       0.529  15.436  19.930  0.00  0.00    +0.000 N 
ATOM     30  N   UNL     1      -0.601  15.905  19.342  0.00  0.00    +0.000 NA
ATOM     31  C   UNL     1      -0.156  16.770  18.438  0.00  0.00    +0.000 A 
ATOM     32  C   UNL     1       1.258  16.896  18.454  0.00  0.00    +0.000 A 
ATOM     33  C   UNL     1       1.668  16.076  19.494  0.00  0.00    +0.000 A 
ATOM     34  C   UNL     1       2.979  15.905  20.164  0.00  0.00    +0.000 C 
ENDBRANCH  28  29
ENDBRANCH   8  28
TORSDOF 5
ENDMDL
MODEL 6
REMARK VINA RESULT:      -6.2      4.052      7.833
REMARK  Name = 
REMARK  7 active torsions:
REMARK  status: ('A' for Active; 'I' for Inactive)
REMARK    1  A    between atoms: C_1  and  C_2
REMARK    2  A    between atoms: C_7  and  N_8
REMARK    3  A    between atoms: N_10  and  C_11
REMARK    4  A    between atoms: C_17  and  C_19
REMARK    5  A    between atoms: C_19  and  N_20
REMARK    6  A    between atoms: C_24  and  C_25
REMARK    7  A    between atoms: C_26  and  C_27
REMARK                            x       y       z     vdW  Elec       q    Type
REMARK                         _______ _______ _______ _____ _____    ______ ____
ROOT
ATOM      1  N   UNL     1      -4.410  11.612  16.396  0.00  0.00    +0.000 N 
ATOM      2  C   UNL     1      -3.153  11.181  16.228  0.00  0.00    +0.000 C 
ATOM      3  N   UNL     1      -2.710  10.551  15.168  0.00  0.00    +0.000 NA
ATOM      4  N   UNL     1      -2.327  11.278  17.355  0.00  0.00    +0.000 N 
ATOM      5  C   UNL     1      -1.626  10.028  17.537  0.00  0.00    +0.000 C 
ATOM      6  C   UNL     1      -0.711  10.235  18.663  0.00  0.00    +0.000 C 
ATOM      7  N   UNL     1      -0.606  10.843  19.912  0.00  0.00    +0.000 N 
ATOM      8  C   UNL     1      -0.145   9.882  20.857  0.00  0.00    +0.000 C 
ATOM      9  O   UNL     1       0.019  10.010  22.059  0.00  0.00    +0.000 OA
ATOM     10  C   UNL     1      -1.225  12.205  19.905  0.00  0.00    +0.000 C 
ATOM     11  C   UNL     1      -2.184  12.431  18.445  0.00  0.00    +0.000 C 
ATOM     12  H   UNL     1      -4.911  11.792  15.535  0.00  0.00    +0.000 HD
ENDROOT
BRANCH   1  19
ATOM     13  C   UNL     1      -6.360  13.499  16.772  0.00  0.00    +0.000 C 
ATOM     14  C   UNL     1      -6.251  12.329  17.708  0.00  0.00    +0.000 A 
ATOM     15  C   UNL     1      -7.087  12.215  18.815  0.00  0.00    +0.000 A 
ATOM     16  C   UNL     1      -6.964  11.152  19.704  0.00  0.00    +0.000 A 
ATOM     17  C   UNL     1      -6.032  10.150  19.449  0.00  0.00    +0.000 A 
ATOM     18  C   UNL     1      -5.198  10.243  18.336  0.00  0.00    +0.000 A 
ATOM     19  C   UNL     1      -5.288  11.350  17.469  0.00  0.00    +0.000 A 
ENDBRANCH   1  19
BRANCH  10  20
ATOM     20  C   UNL     1      -1.630  12.560  21.354  0.00  0.00    +0.000 A 
ATOM     21  C   UNL     1      -2.996  12.389  21.735  0.00  0.00    +0.000 A 
ATOM     22  C   UNL     1      -3.611  13.089  22.776  0.00  0.00    +0.000 A 
ATOM     23  C   UNL     1      -2.796  13.885  23.575  0.00  0.00    +0.000 A 
ATOM     24  C   UNL     1      -1.438  13.958  23.357  0.00  0.00    +0.000 A 
ATOM     25  C   UNL     1      -0.830  13.278  22.275  0.00  0.00    +0.000 A 
ENDBRANCH  10  20
BRANCH   3  26
ATOM     26  C   UNL     1      -3.540  10.224  14.174  0.00  0.00    +0.000 C 
ATOM     27  N   UNL     1      -4.306   9.951  13.353  0.00  0.00    +0.000 NA
ENDBRANCH   3  26
BRANCH   8  28
ATOM     28  C   UNL     1       0.094   8.561  20.108  0.00  0.00    +0.000 C 
BRANCH  28  29
ATOM     29  N   UNL     1       1.368   7.913  20.205  0.00  0.00    +0.000 N 
ATOM     30  N   UNL     1       1.402   6.852  21.050  0.00  0.00    +0.000 NA
ATOM     31  C   UNL     1       2.360   6.078  20.553  0.00  0.00    +0.000 A 
ATOM     32  C   UNL     1       2.932   6.610  19.368  0.00  0.00    +0.000 A 
ATOM     33  C   UNL     1       2.207   7.766  19.122  0.00  0.00    +0.000 A 
ATOM     34  C   UNL     1       2.159   8.677  17.954  0.00  0.00    +0.000 C 
ENDBRANCH  28  29
ENDBRANCH   8  28
TORSDOF 5
ENDMDL
MODEL 7
REMARK VINA RESULT:      -6.1      1.429      1.839
REMARK  Name = 
REMARK  7 active torsions:
REMARK  status: ('A' for Active; 'I' for Inactive)
REMARK    1  A    between atoms: C_1  and  C_2
REMARK    2  A    between atoms: C_7  and  N_8
REMARK    3  A    between atoms: N_10  and  C_11
REMARK    4  A    between atoms: C_17  and  C_19
REMARK    5  A    between atoms: C_19  and  N_20
REMARK    6  A    between atoms: C_24  and  C_25
REMARK    7  A    between atoms: C_26  and  C_27
REMARK                            x       y       z     vdW  Elec       q    Type
REMARK                         _______ _______ _______ _____ _____    ______ ____
ROOT
ATOM      1  N   UNL     1      -4.340  14.237  23.700  0.00  0.00    +0.000 N 
ATOM      2  C   UNL     1      -3.165  14.865  23.843  0.00  0.00    +0.000 C 
ATOM      3  N   UNL     1      -2.991  15.998  24.477  0.00  0.00    +0.000 NA
ATOM      4  N   UNL     1      -2.103  14.330  23.102  0.00  0.00    +0.000 N 
ATOM      5  C   UNL     1      -1.410  15.403  22.425  0.00  0.00    +0.000 C 
ATOM      6  C   UNL     1      -0.259  14.787  21.761  0.00  0.00    +0.000 C 
ATOM      7  N   UNL     1       0.143  13.655  21.055  0.00  0.00    +0.000 N 
ATOM      8  C   UNL     1       0.781  14.063  19.849  0.00  0.00    +0.000 C 
ATOM      9  O   UNL     1       1.217  13.372  18.944  0.00  0.00    +0.000 OA
ATOM     10  C   UNL     1      -0.427  12.410  21.660  0.00  0.00    +0.000 C 
ATOM     11  C   UNL     1      -1.686  12.819  22.821  0.00  0.00    +0.000 C 
ATOM     12  H   UNL     1      -5.019  14.447  24.420  0.00  0.00    +0.000 HD
ENDROOT
BRANCH   1  19
ATOM     13  C   UNL     1      -6.555  12.669  24.067  0.00  0.00    +0.000 C 
ATOM     14  C   UNL     1      -6.053  12.952  22.680  0.00  0.00    +0.000 A 
ATOM     15  C   UNL     1      -6.656  12.376  21.566  0.00  0.00    +0.000 A 
ATOM     16  C   UNL     1      -6.170  12.608  20.283  0.00  0.00    +0.000 A 
ATOM     17  C   UNL     1      -5.102  13.483  20.102  0.00  0.00    +0.000 A 
ATOM     18  C   UNL     1      -4.498  14.080  21.207  0.00  0.00    +0.000 A 
ATOM     19  C   UNL     1      -4.958  13.798  22.509  0.00  0.00    +0.000 A 
ENDBRANCH   1  19
BRANCH  10  20
ATOM     20  C   UNL     1      -0.483  11.322  20.564  0.00  0.00    +0.000 A 
ATOM     21  C   UNL     1       0.622  10.425  20.443  0.00  0.00    +0.000 A 
ATOM     22  C   UNL     1       0.957   9.750  19.268  0.00  0.00    +0.000 A 
ATOM     23  C   UNL     1       0.067   9.849  18.202  0.00  0.00    +0.000 A 
ATOM     24  C   UNL     1      -1.103  10.567  18.317  0.00  0.00    +0.000 A 
ATOM     25  C   UNL     1      -1.414  11.282  19.498  0.00  0.00    +0.000 A 
ENDBRANCH  10  20
BRANCH   3  26
ATOM     26  C   UNL     1      -4.033  16.661  24.985  0.00  0.00    +0.000 C 
ATOM     27  N   UNL     1      -4.973  17.195  25.394  0.00  0.00    +0.000 NA
ENDBRANCH   3  26
BRANCH   8  28
ATOM     28  C   UNL     1       0.811  15.600  19.828  0.00  0.00    +0.000 C 
BRANCH  28  29
ATOM     29  N   UNL     1       0.618  16.294  18.590  0.00  0.00    +0.000 N 
ATOM     30  N   UNL     1      -0.607  16.860  18.442  0.00  0.00    +0.000 NA
ATOM     31  C   UNL     1      -0.388  17.891  17.634  0.00  0.00    +0.000 A 
ATOM     32  C   UNL     1       0.980  18.024  17.278  0.00  0.00    +0.000 A 
ATOM     33  C   UNL     1       1.621  17.018  17.984  0.00  0.00    +0.000 A 
ATOM     34  C   UNL     1       3.056  16.728  18.216  0.00  0.00    +0.000 C 
ENDBRANCH  28  29
ENDBRANCH   8  28
TORSDOF 5
ENDMDL
MODEL 8
REMARK VINA RESULT:      -6.1      3.573      6.403
REMARK  Name = 
REMARK  7 active torsions:
REMARK  status: ('A' for Active; 'I' for Inactive)
REMARK    1  A    between atoms: C_1  and  C_2
REMARK    2  A    between atoms: C_7  and  N_8
REMARK    3  A    between atoms: N_10  and  C_11
REMARK    4  A    between atoms: C_17  and  C_19
REMARK    5  A    between atoms: C_19  and  N_20
REMARK    6  A    between atoms: C_24  and  C_25
REMARK    7  A    between atoms: C_26  and  C_27
REMARK                            x       y       z     vdW  Elec       q    Type
REMARK                         _______ _______ _______ _____ _____    ______ ____
ROOT
ATOM      1  N   UNL     1       0.094  10.046  19.268  0.00  0.00    +0.000 N 
ATOM      2  C   UNL     1       0.991  10.660  18.485  0.00  0.00    +0.000 C 
ATOM      3  N   UNL     1       1.969  10.062  17.850  0.00  0.00    +0.000 NA
ATOM      4  N   UNL     1       0.952  12.060  18.508  0.00  0.00    +0.000 N 
ATOM      5  C   UNL     1       2.295  12.569  18.670  0.00  0.00    +0.000 C 
ATOM      6  C   UNL     1       2.190  14.027  18.582  0.00  0.00    +0.000 C 
ATOM      7  N   UNL     1       1.394  15.109  18.953  0.00  0.00    +0.000 N 
ATOM      8  C   UNL     1       2.210  16.087  19.590  0.00  0.00    +0.000 C 
ATOM      9  O   UNL     1       1.878  17.143  20.103  0.00  0.00    +0.000 OA
ATOM     10  C   UNL     1      -0.059  14.794  18.784  0.00  0.00    +0.000 C 
ATOM     11  C   UNL     1      -0.282  13.067  18.523  0.00  0.00    +0.000 C 
ATOM     12  H   UNL     1      -0.055   9.069  19.049  0.00  0.00    +0.000 HD
ENDROOT
BRANCH   1  19
ATOM     13  C   UNL     1       0.926   8.191  21.103  0.00  0.00    +0.000 C 
ATOM     14  C   UNL     1       0.119   9.379  21.544  0.00  0.00    +0.000 A 
ATOM     15  C   UNL     1      -0.277   9.527  22.870  0.00  0.00    +0.000 A 
ATOM     16  C   UNL     1      -1.054  10.608  23.273  0.00  0.00    +0.000 A 
ATOM     17  C   UNL     1      -1.390  11.593  22.349  0.00  0.00    +0.000 A 
ATOM     18  C   UNL     1      -0.988  11.467  21.020  0.00  0.00    +0.000 A 
ATOM     19  C   UNL     1      -0.248  10.342  20.605  0.00  0.00    +0.000 A 
ENDBRANCH   1  19
BRANCH  10  20
ATOM     20  C   UNL     1      -0.866  15.708  19.735  0.00  0.00    +0.000 A 
ATOM     21  C   UNL     1      -1.312  16.972  19.242  0.00  0.00    +0.000 A 
ATOM     22  C   UNL     1      -1.593  18.074  20.053  0.00  0.00    +0.000 A 
ATOM     23  C   UNL     1      -1.578  17.869  21.430  0.00  0.00    +0.000 A 
ATOM     24  C   UNL     1      -1.317  16.625  21.961  0.00  0.00    +0.000 A 
ATOM     25  C   UNL     1      -0.992  15.525  21.133  0.00  0.00    +0.000 A 
ENDBRANCH  10  20
BRANCH   3  26
ATOM     26  C   UNL     1       2.182   8.753  18.006  0.00  0.00    +0.000 C 
ATOM     27  N   UNL     1       2.419   7.626  18.107  0.00  0.00    +0.000 NA
ENDBRANCH   3  26
BRANCH   8  28
ATOM     28  C   UNL     1       3.660  15.575  19.575  0.00  0.00    +0.000 C 
BRANCH  28  29
ATOM     29  N   UNL     1       4.713  16.446  19.147  0.00  0.00    +0.000 N 
ATOM     30  N   UNL     1       4.936  17.508  19.961  0.00  0.00    +0.000 NA
ATOM     31  C   UNL     1       6.223  17.785  19.782  0.00  0.00    +0.000 A 
ATOM     32  C   UNL     1       6.853  16.888  18.879  0.00  0.00    +0.000 A 
ATOM     33  C   UNL     1       5.862  15.977  18.547  0.00  0.00    +0.000 A 
ATOM     34  C   UNL     1       5.903  14.688  17.816  0.00  0.00    +0.000 C 
ENDBRANCH  28  29
ENDBRANCH   8  28
TORSDOF 5
ENDMDL
MODEL 9
REMARK VINA RESULT:      -6.1      3.377      6.505
REMARK  Name = 
REMARK  7 active torsions:
REMARK  status: ('A' for Active; 'I' for Inactive)
REMARK    1  A    between atoms: C_1  and  C_2
REMARK    2  A    between atoms: C_7  and  N_8
REMARK    3  A    between atoms: N_10  and  C_11
REMARK    4  A    between atoms: C_17  and  C_19
REMARK    5  A    between atoms: C_19  and  N_20
REMARK    6  A    between atoms: C_24  and  C_25
REMARK    7  A    between atoms: C_26  and  C_27
REMARK                            x       y       z     vdW  Elec       q    Type
REMARK                         _______ _______ _______ _____ _____    ______ ____
ROOT
ATOM      1  N   UNL     1       0.186   9.925  19.226  0.00  0.00    +0.000 N 
ATOM      2  C   UNL     1       1.073  10.530  18.425  0.00  0.00    +0.000 C 
ATOM      3  N   UNL     1       2.027   9.921  17.765  0.00  0.00    +0.000 NA
ATOM      4  N   UNL     1       1.054  11.930  18.456  0.00  0.00    +0.000 N 
ATOM      5  C   UNL     1       2.408  12.419  18.589  0.00  0.00    +0.000 C 
ATOM      6  C   UNL     1       2.321  13.880  18.510  0.00  0.00    +0.000 C 
ATOM      7  N   UNL     1       1.550  14.971  18.904  0.00  0.00    +0.000 N 
ATOM      8  C   UNL     1       2.394  15.934  19.526  0.00  0.00    +0.000 C 
ATOM      9  O   UNL     1       2.089  16.992  20.051  0.00  0.00    +0.000 OA
ATOM     10  C   UNL     1       0.088  14.677  18.768  0.00  0.00    +0.000 C 
ATOM     11  C   UNL     1      -0.165  12.955  18.505  0.00  0.00    +0.000 C 
ATOM     12  H   UNL     1       0.018   8.951  19.007  0.00  0.00    +0.000 HD
ENDROOT
BRANCH   1  19
ATOM     13  C   UNL     1       1.130   8.106  21.043  0.00  0.00    +0.000 C 
ATOM     14  C   UNL     1       0.304   9.273  21.504  0.00  0.00    +0.000 A 
ATOM     15  C   UNL     1      -0.052   9.418  22.841  0.00  0.00    +0.000 A 
ATOM     16  C   UNL     1      -0.847  10.478  23.264  0.00  0.00    +0.000 A 
ATOM     17  C   UNL     1      -1.241  11.448  22.346  0.00  0.00    +0.000 A 
ATOM     18  C   UNL     1      -0.879  11.325  21.006  0.00  0.00    +0.000 A 
ATOM     19  C   UNL     1      -0.121  10.219  20.572  0.00  0.00    +0.000 A 
ENDBRANCH   1  19
BRANCH  10  20
ATOM     20  C   UNL     1      -0.682  15.598  19.742  0.00  0.00    +0.000 A 
ATOM     21  C   UNL     1      -0.962  15.111  21.055  0.00  0.00    +0.000 A 
ATOM     22  C   UNL     1      -2.016  15.565  21.850  0.00  0.00    +0.000 A 
ATOM     23  C   UNL     1      -2.738  16.660  21.384  0.00  0.00    +0.000 A 
ATOM     24  C   UNL     1      -2.406  17.278  20.198  0.00  0.00    +0.000 A 
ATOM     25  C   UNL     1      -1.362  16.786  19.379  0.00  0.00    +0.000 A 
ENDBRANCH  10  20
BRANCH   3  26
ATOM     26  C   UNL     1       2.225   8.609  17.910  0.00  0.00    +0.000 C 
ATOM     27  N   UNL     1       2.368   7.464  17.980  0.00  0.00    +0.000 NA
ENDBRANCH   3  26
BRANCH   8  28
ATOM     28  C   UNL     1       3.836  15.401  19.475  0.00  0.00    +0.000 C 
BRANCH  28  29
ATOM     29  N   UNL     1       4.594  15.295  20.685  0.00  0.00    +0.000 N 
ATOM     30  N   UNL     1       3.999  14.571  21.666  0.00  0.00    +0.000 NA
ATOM     31  C   UNL     1       5.016  14.086  22.369  0.00  0.00    +0.000 A 
ATOM     32  C   UNL     1       6.277  14.461  21.834  0.00  0.00    +0.000 A 
ATOM     33  C   UNL     1       5.967  15.180  20.689  0.00  0.00    +0.000 A 
ATOM     34  C   UNL     1       6.807  15.680  19.574  0.00  0.00    +0.000 C 
ENDBRANCH  28  29
ENDBRANCH   8  28
TORSDOF 5
ENDMDL
