MODEL 1
REMARK VINA RESULT:      -7.9      0.000      0.000
REMARK  Name = 
REMARK  11 active torsions:
REMARK  status: ('A' for Active; 'I' for Inactive)
REMARK    1  A    between atoms: C_1  and  C_2
REMARK    2  A    between atoms: C_2  and  C_3
REMARK    3  A    between atoms: C_3  and  C_27
REMARK    4  A    between atoms: C_4  and  C_5
REMARK    5  A    between atoms: C_8  and  O_9
REMARK    6  A    between atoms: O_9  and  C_10
REMARK    7  A    between atoms: C_11  and  C_12
REMARK    8  A    between atoms: N_14  and  C_15
REMARK    9  A    between atoms: C_15  and  C_16
REMARK   10  A    between atoms: C_19  and  C_20
REMARK   11  A    between atoms: C_27  and  O_29
REMARK                            x       y       z     vdW  Elec       q    Type
REMARK                         _______ _______ _______ _____ _____    ______ ____
ROOT
ATOM      1  C   UNL     1       3.650   3.886  17.191  0.00  0.00    +0.000 A 
ATOM      2  C   UNL     1       3.141   2.597  17.296  0.00  0.00    +0.000 A 
ATOM      3  C   UNL     1       2.295   2.266  18.355  0.00  0.00    +0.000 A 
ATOM      4  C   UNL     1       1.925   3.218  19.324  0.00  0.00    +0.000 A 
ATOM      5  C   UNL     1       2.419   4.533  19.207  0.00  0.00    +0.000 A 
ATOM      6  C   UNL     1       3.257   4.852  18.119  0.00  0.00    +0.000 A 
ENDROOT
BRANCH   5   7
ATOM      7  C   UNL     1       2.167   5.667  20.151  0.00  0.00    +0.000 C 
ATOM      8  O   UNL     1       1.929   5.418  21.337  0.00  0.00    +0.000 OA
ATOM      9  N   UNL     1       2.171   6.957  19.680  0.00  0.00    +0.000 N 
ATOM     10  H   UNL     1       2.371   7.118  18.700  0.00  0.00    +0.000 HD
BRANCH   9  11
ATOM     11  C   UNL     1       1.890   8.080  20.550  0.00  0.00    +0.000 C 
BRANCH  11  12
ATOM     12  C   UNL     1       0.986   9.089  19.888  0.00  0.00    +0.000 A 
ATOM     13  C   UNL     1       1.031   9.283  18.501  0.00  0.00    +0.000 A 
ATOM     14  C   UNL     1       0.184  10.208  17.882  0.00  0.00    +0.000 A 
ATOM     15  C   UNL     1      -0.723  10.960  18.642  0.00  0.00    +0.000 A 
ATOM     16  C   UNL     1      -0.765  10.767  20.031  0.00  0.00    +0.000 A 
ATOM     17  C   UNL     1       0.080   9.842  20.648  0.00  0.00    +0.000 A 
BRANCH  15  18
ATOM     18  C   UNL     1      -1.640  11.970  17.995  0.00  0.00    +0.000 C 
ATOM     19  F   UNL     1      -2.749  12.256  18.733  0.00  0.00    +0.000 F 
ATOM     20  F   UNL     1      -1.023  13.164  17.771  0.00  0.00    +0.000 F 
ATOM     21  F   UNL     1      -2.097  11.554  16.781  0.00  0.00    +0.000 F 
ENDBRANCH  15  18
ENDBRANCH  11  12
ENDBRANCH   9  11
ENDBRANCH   5   7
BRANCH   1  23
ATOM     22  C   UNL     1       5.946   4.468  16.386  0.00  0.00    +0.000 C 
ATOM     23  C   UNL     1       4.638   4.206  16.165  0.00  0.00    +0.000 C 
BRANCH  22  25
ATOM     24  C   UNL     1       6.795   5.630  18.628  0.00  0.00    +0.000 C 
ATOM     25  C   UNL     1       6.745   4.438  17.679  0.00  0.00    +0.000 C 
ENDBRANCH  22  25
BRANCH  22  26
ATOM     26  C   UNL     1       6.839   4.767  15.214  0.00  0.00    +0.000 C 
ATOM     27  O   UNL     1       7.703   5.620  15.242  0.00  0.00    +0.000 OA
BRANCH  26  28
ATOM     28  O   UNL     1       6.591   4.048  14.095  0.00  0.00    +0.000 OA
ATOM     29  H   UNL     1       5.688   4.136  13.735  0.00  0.00    +0.000 HD
ENDBRANCH  26  28
ENDBRANCH  22  26
ENDBRANCH   1  23
BRANCH   4  30
ATOM     30  O   UNL     1       1.120   2.908  20.395  0.00  0.00    +0.000 OA
ATOM     31  C   UNL     1       1.763   2.295  21.515  0.00  0.00    +0.000 C 
ENDBRANCH   4  30
TORSDOF 9
ENDMDL
MODEL 2
REMARK VINA RESULT:      -7.8      1.982      2.735
REMARK  Name = 
REMARK  11 active torsions:
REMARK  status: ('A' for Active; 'I' for Inactive)
REMARK    1  A    between atoms: C_1  and  C_2
REMARK    2  A    between atoms: C_2  and  C_3
REMARK    3  A    between atoms: C_3  and  C_27
REMARK    4  A    between atoms: C_4  and  C_5
REMARK    5  A    between atoms: C_8  and  O_9
REMARK    6  A    between atoms: O_9  and  C_10
REMARK    7  A    between atoms: C_11  and  C_12
REMARK    8  A    between atoms: N_14  and  C_15
REMARK    9  A    between atoms: C_15  and  C_16
REMARK   10  A    between atoms: C_19  and  C_20
REMARK   11  A    between atoms: C_27  and  O_29
REMARK                            x       y       z     vdW  Elec       q    Type
REMARK                         _______ _______ _______ _____ _____    ______ ____
ROOT
ATOM      1  C   UNL     1       4.128   5.473  16.887  0.00  0.00    +0.000 A 
ATOM      2  C   UNL     1       3.909   4.510  17.866  0.00  0.00    +0.000 A 
ATOM      3  C   UNL     1       3.190   4.838  19.016  0.00  0.00    +0.000 A 
ATOM      4  C   UNL     1       2.661   6.129  19.209  0.00  0.00    +0.000 A 
ATOM      5  C   UNL     1       2.860   7.101  18.207  0.00  0.00    +0.000 A 
ATOM      6  C   UNL     1       3.573   6.745  17.044  0.00  0.00    +0.000 A 
ENDROOT
BRANCH   5   7
ATOM      7  C   UNL     1       2.407   8.527  18.246  0.00  0.00    +0.000 C 
ATOM      8  O   UNL     1       2.884   9.330  17.438  0.00  0.00    +0.000 OA
ATOM      9  N   UNL     1       1.499   8.925  19.196  0.00  0.00    +0.000 N 
ATOM     10  H   UNL     1       1.132   8.234  19.840  0.00  0.00    +0.000 HD
BRANCH   9  11
ATOM     11  C   UNL     1       1.065  10.303  19.296  0.00  0.00    +0.000 C 
BRANCH  11  12
ATOM     12  C   UNL     1      -0.326  10.493  18.747  0.00  0.00    +0.000 A 
ATOM     13  C   UNL     1      -0.767   9.741  17.650  0.00  0.00    +0.000 A 
ATOM     14  C   UNL     1      -2.061   9.905  17.145  0.00  0.00    +0.000 A 
ATOM     15  C   UNL     1      -2.940  10.828  17.729  0.00  0.00    +0.000 A 
ATOM     16  C   UNL     1      -2.496  11.584  18.826  0.00  0.00    +0.000 A 
ATOM     17  C   UNL     1      -1.204  11.418  19.329  0.00  0.00    +0.000 A 
BRANCH  15  18
ATOM     18  C   UNL     1      -4.337  11.028  17.196  0.00  0.00    +0.000 C 
ATOM     19  F   UNL     1      -4.726  12.332  17.148  0.00  0.00    +0.000 F 
ATOM     20  F   UNL     1      -4.484  10.548  15.928  0.00  0.00    +0.000 F 
ATOM     21  F   UNL     1      -5.277  10.387  17.946  0.00  0.00    +0.000 F 
ENDBRANCH  15  18
ENDBRANCH  11  12
ENDBRANCH   9  11
ENDBRANCH   5   7
BRANCH   1  23
ATOM     22  C   UNL     1       6.340   5.235  15.742  0.00  0.00    +0.000 C 
ATOM     23  C   UNL     1       4.989   5.179  15.746  0.00  0.00    +0.000 C 
BRANCH  22  25
ATOM     24  C   UNL     1       7.435   6.921  17.491  0.00  0.00    +0.000 C 
ATOM     25  C   UNL     1       7.309   5.532  16.875  0.00  0.00    +0.000 C 
ENDBRANCH  22  25
BRANCH  22  26
ATOM     26  C   UNL     1       7.083   4.886  14.483  0.00  0.00    +0.000 C 
ATOM     27  O   UNL     1       6.785   3.942  13.779  0.00  0.00    +0.000 OA
BRANCH  26  28
ATOM     28  O   UNL     1       8.147   5.672  14.199  0.00  0.00    +0.000 OA
ATOM     29  H   UNL     1       8.179   6.017  13.287  0.00  0.00    +0.000 HD
ENDBRANCH  26  28
ENDBRANCH  22  26
ENDBRANCH   1  23
BRANCH   4  30
ATOM     30  O   UNL     1       1.979   6.485  20.348  0.00  0.00    +0.000 OA
ATOM     31  C   UNL     1       1.378   5.419  21.087  0.00  0.00    +0.000 C 
ENDBRANCH   4  30
TORSDOF 9
ENDMDL
MODEL 3
REMARK VINA RESULT:      -7.8      2.707      4.355
REMARK  Name = 
REMARK  11 active torsions:
REMARK  status: ('A' for Active; 'I' for Inactive)
REMARK    1  A    between atoms: C_1  and  C_2
REMARK    2  A    between atoms: C_2  and  C_3
REMARK    3  A    between atoms: C_3  and  C_27
REMARK    4  A    between atoms: C_4  and  C_5
REMARK    5  A    between atoms: C_8  and  O_9
REMARK    6  A    between atoms: O_9  and  C_10
REMARK    7  A    between atoms: C_11  and  C_12
REMARK    8  A    between atoms: N_14  and  C_15
REMARK    9  A    between atoms: C_15  and  C_16
REMARK   10  A    between atoms: C_19  and  C_20
REMARK   11  A    between atoms: C_27  and  O_29
REMARK                            x       y       z     vdW  Elec       q    Type
REMARK                         _______ _______ _______ _____ _____    ______ ____
ROOT
ATOM      1  C   UNL     1       3.298   6.532  18.379  0.00  0.00    +0.000 A 
ATOM      2  C   UNL     1       3.018   5.904  19.587  0.00  0.00    +0.000 A 
ATOM      3  C   UNL     1       2.158   6.509  20.504  0.00  0.00    +0.000 A 
ATOM      4  C   UNL     1       1.547   7.749  20.231  0.00  0.00    +0.000 A 
ATOM      5  C   UNL     1       1.810   8.377  18.997  0.00  0.00    +0.000 A 
ATOM      6  C   UNL     1       2.666   7.740  18.075  0.00  0.00    +0.000 A 
ENDROOT
BRANCH   5   7
ATOM      7  C   UNL     1       1.285   9.704  18.543  0.00  0.00    +0.000 C 
ATOM      8  O   UNL     1       2.063  10.511  18.024  0.00  0.00    +0.000 OA
ATOM      9  N   UNL     1      -0.038  10.013  18.739  0.00  0.00    +0.000 N 
ATOM     10  H   UNL     1      -0.643   9.322  19.168  0.00  0.00    +0.000 HD
BRANCH   9  11
ATOM     11  C   UNL     1      -0.578  11.301  18.353  0.00  0.00    +0.000 C 
BRANCH  11  12
ATOM     12  C   UNL     1      -2.085  11.313  18.402  0.00  0.00    +0.000 A 
ATOM     13  C   UNL     1      -2.762  12.157  19.293  0.00  0.00    +0.000 A 
ATOM     14  C   UNL     1      -4.160  12.180  19.332  0.00  0.00    +0.000 A 
ATOM     15  C   UNL     1      -4.908  11.356  18.480  0.00  0.00    +0.000 A 
ATOM     16  C   UNL     1      -4.229  10.508  17.591  0.00  0.00    +0.000 A 
ATOM     17  C   UNL     1      -2.834  10.487  17.552  0.00  0.00    +0.000 A 
BRANCH  15  18
ATOM     18  C   UNL     1      -6.417  11.358  18.512  0.00  0.00    +0.000 C 
ATOM     19  F   UNL     1      -6.969  10.113  18.510  0.00  0.00    +0.000 F 
ATOM     20  F   UNL     1      -6.914  11.984  19.616  0.00  0.00    +0.000 F 
ATOM     21  F   UNL     1      -6.958  12.006  17.442  0.00  0.00    +0.000 F 
ENDBRANCH  15  18
ENDBRANCH  11  12
ENDBRANCH   9  11
ENDBRANCH   5   7
BRANCH   1  23
ATOM     22  C   UNL     1       4.295   4.716  16.978  0.00  0.00    +0.000 C 
ATOM     23  C   UNL     1       4.296   5.973  17.473  0.00  0.00    +0.000 C 
BRANCH  22  25
ATOM     24  C   UNL     1       3.540   2.391  18.037  0.00  0.00    +0.000 C 
ATOM     25  C   UNL     1       3.276   3.599  17.147  0.00  0.00    +0.000 C 
ENDBRANCH  22  25
BRANCH  22  26
ATOM     26  C   UNL     1       5.392   4.298  16.039  0.00  0.00    +0.000 C 
ATOM     27  O   UNL     1       5.311   4.413  14.833  0.00  0.00    +0.000 OA
BRANCH  26  28
ATOM     28  O   UNL     1       6.475   3.735  16.624  0.00  0.00    +0.000 OA
ATOM     29  H   UNL     1       7.337   4.019  16.266  0.00  0.00    +0.000 HD
ENDBRANCH  26  28
ENDBRANCH  22  26
ENDBRANCH   1  23
BRANCH   4  30
ATOM     30  O   UNL     1       0.724   8.381  21.132  0.00  0.00    +0.000 OA
ATOM     31  C   UNL     1       1.365   9.002  22.249  0.00  0.00    +0.000 C 
ENDBRANCH   4  30
TORSDOF 9
ENDMDL
MODEL 4
REMARK VINA RESULT:      -7.8      2.471      3.566
REMARK  Name = 
REMARK  11 active torsions:
REMARK  status: ('A' for Active; 'I' for Inactive)
REMARK    1  A    between atoms: C_1  and  C_2
REMARK    2  A    between atoms: C_2  and  C_3
REMARK    3  A    between atoms: C_3  and  C_27
REMARK    4  A    between atoms: C_4  and  C_5
REMARK    5  A    between atoms: C_8  and  O_9
REMARK    6  A    between atoms: O_9  and  C_10
REMARK    7  A    between atoms: C_11  and  C_12
REMARK    8  A    between atoms: N_14  and  C_15
REMARK    9  A    between atoms: C_15  and  C_16
REMARK   10  A    between atoms: C_19  and  C_20
REMARK   11  A    between atoms: C_27  and  O_29
REMARK                            x       y       z     vdW  Elec       q    Type
REMARK                         _______ _______ _______ _____ _____    ______ ____
ROOT
ATOM      1  C   UNL     1       3.615   5.961  17.965  0.00  0.00    +0.000 A 
ATOM      2  C   UNL     1       3.463   5.394  19.225  0.00  0.00    +0.000 A 
ATOM      3  C   UNL     1       2.768   6.083  20.220  0.00  0.00    +0.000 A 
ATOM      4  C   UNL     1       2.196   7.346  19.975  0.00  0.00    +0.000 A 
ATOM      5  C   UNL     1       2.326   7.914  18.691  0.00  0.00    +0.000 A 
ATOM      6  C   UNL     1       3.015   7.193  17.694  0.00  0.00    +0.000 A 
ENDROOT
BRANCH   5   7
ATOM      7  C   UNL     1       1.819   9.252  18.253  0.00  0.00    +0.000 C 
ATOM      8  O   UNL     1       2.369   9.820  17.304  0.00  0.00    +0.000 OA
ATOM      9  N   UNL     1       0.779   9.839  18.930  0.00  0.00    +0.000 N 
ATOM     10  H   UNL     1       0.356   9.339  19.704  0.00  0.00    +0.000 HD
BRANCH   9  11
ATOM     11  C   UNL     1       0.285  11.152  18.566  0.00  0.00    +0.000 C 
BRANCH  11  12
ATOM     12  C   UNL     1      -1.220  11.180  18.487  0.00  0.00    +0.000 A 
ATOM     13  C   UNL     1      -1.907  10.274  17.669  0.00  0.00    +0.000 A 
ATOM     14  C   UNL     1      -3.304  10.289  17.602  0.00  0.00    +0.000 A 
ATOM     15  C   UNL     1      -4.041  11.215  18.354  0.00  0.00    +0.000 A 
ATOM     16  C   UNL     1      -3.351  12.125  19.170  0.00  0.00    +0.000 A 
ATOM     17  C   UNL     1      -1.957  12.108  19.236  0.00  0.00    +0.000 A 
BRANCH  15  18
ATOM     18  C   UNL     1      -5.548  11.255  18.290  0.00  0.00    +0.000 C 
ATOM     19  F   UNL     1      -6.139  10.046  18.500  0.00  0.00    +0.000 F 
ATOM     20  F   UNL     1      -6.087  12.098  19.216  0.00  0.00    +0.000 F 
ATOM     21  F   UNL     1      -6.006  11.689  17.083  0.00  0.00    +0.000 F 
ENDBRANCH  15  18
ENDBRANCH  11  12
ENDBRANCH   9  11
ENDBRANCH   5   7
BRANCH   1  23
ATOM     22  C   UNL     1       5.713   5.665  16.636  0.00  0.00    +0.000 C 
ATOM     23  C   UNL     1       4.450   5.310  16.960  0.00  0.00    +0.000 C 
BRANCH  22  25
ATOM     24  C   UNL     1       7.567   6.440  18.386  0.00  0.00    +0.000 C 
ATOM     25  C   UNL     1       6.613   6.736  17.235  0.00  0.00    +0.000 C 
ENDBRANCH  22  25
BRANCH  22  26
ATOM     26  C   UNL     1       6.447   4.880  15.585  0.00  0.00    +0.000 C 
ATOM     27  O   UNL     1       6.141   3.747  15.272  0.00  0.00    +0.000 OA
BRANCH  26  28
ATOM     28  O   UNL     1       7.513   5.503  15.031  0.00  0.00    +0.000 OA
ATOM     29  H   UNL     1       8.361   5.027  15.110  0.00  0.00    +0.000 HD
ENDBRANCH  26  28
ENDBRANCH  22  26
ENDBRANCH   1  23
BRANCH   4  30
ATOM     30  O   UNL     1       1.537   8.059  20.949  0.00  0.00    +0.000 OA
ATOM     31  C   UNL     1       0.230   7.598  21.297  0.00  0.00    +0.000 C 
ENDBRANCH   4  30
TORSDOF 9
ENDMDL
MODEL 5
REMARK VINA RESULT:      -7.7      0.874      1.452
REMARK  Name = 
REMARK  11 active torsions:
REMARK  status: ('A' for Active; 'I' for Inactive)
REMARK    1  A    between atoms: C_1  and  C_2
REMARK    2  A    between atoms: C_2  and  C_3
REMARK    3  A    between atoms: C_3  and  C_27
REMARK    4  A    between atoms: C_4  and  C_5
REMARK    5  A    between atoms: C_8  and  O_9
REMARK    6  A    between atoms: O_9  and  C_10
REMARK    7  A    between atoms: C_11  and  C_12
REMARK    8  A    between atoms: N_14  and  C_15
REMARK    9  A    between atoms: C_15  and  C_16
REMARK   10  A    between atoms: C_19  and  C_20
REMARK   11  A    between atoms: C_27  and  O_29
REMARK                            x       y       z     vdW  Elec       q    Type
REMARK                         _______ _______ _______ _____ _____    ______ ____
ROOT
ATOM      1  C   UNL     1       3.629   4.024  16.961  0.00  0.00    +0.000 A 
ATOM      2  C   UNL     1       2.962   2.839  17.246  0.00  0.00    +0.000 A 
ATOM      3  C   UNL     1       2.145   2.754  18.374  0.00  0.00    +0.000 A 
ATOM      4  C   UNL     1       1.964   3.854  19.234  0.00  0.00    +0.000 A 
ATOM      5  C   UNL     1       2.619   5.065  18.935  0.00  0.00    +0.000 A 
ATOM      6  C   UNL     1       3.425   5.137  17.780  0.00  0.00    +0.000 A 
ENDROOT
BRANCH   5   7
ATOM      7  C   UNL     1       2.577   6.325  19.742  0.00  0.00    +0.000 C 
ATOM      8  O   UNL     1       3.589   7.030  19.806  0.00  0.00    +0.000 OA
ATOM      9  N   UNL     1       1.431   6.657  20.422  0.00  0.00    +0.000 N 
ATOM     10  H   UNL     1       0.623   6.051  20.342  0.00  0.00    +0.000 HD
BRANCH   9  11
ATOM     11  C   UNL     1       1.360   7.845  21.248  0.00  0.00    +0.000 C 
BRANCH  11  12
ATOM     12  C   UNL     1       0.713   8.995  20.520  0.00  0.00    +0.000 A 
ATOM     13  C   UNL     1      -0.269   9.773  21.148  0.00  0.00    +0.000 A 
ATOM     14  C   UNL     1      -0.863  10.849  20.480  0.00  0.00    +0.000 A 
ATOM     15  C   UNL     1      -0.485  11.166  19.168  0.00  0.00    +0.000 A 
ATOM     16  C   UNL     1       0.496  10.384  18.539  0.00  0.00    +0.000 A 
ATOM     17  C   UNL     1       1.089   9.311  19.207  0.00  0.00    +0.000 A 
BRANCH  15  18
ATOM     18  C   UNL     1      -1.119  12.317  18.425  0.00  0.00    +0.000 C 
ATOM     19  F   UNL     1      -0.218  13.171  17.864  0.00  0.00    +0.000 F 
ATOM     20  F   UNL     1      -1.922  11.901  17.406  0.00  0.00    +0.000 F 
ATOM     21  F   UNL     1      -1.907  13.084  19.230  0.00  0.00    +0.000 F 
ENDBRANCH  15  18
ENDBRANCH  11  12
ENDBRANCH   9  11
ENDBRANCH   5   7
BRANCH   1  23
ATOM     22  C   UNL     1       5.907   4.348  15.979  0.00  0.00    +0.000 C 
ATOM     23  C   UNL     1       4.587   4.084  15.861  0.00  0.00    +0.000 C 
BRANCH  22  25
ATOM     24  C   UNL     1       6.971   5.964  17.810  0.00  0.00    +0.000 C 
ATOM     25  C   UNL     1       6.752   4.575  17.223  0.00  0.00    +0.000 C 
ENDBRANCH  22  25
BRANCH  22  26
ATOM     26  C   UNL     1       6.765   4.357  14.744  0.00  0.00    +0.000 C 
ATOM     27  O   UNL     1       7.649   5.169  14.559  0.00  0.00    +0.000 OA
BRANCH  26  28
ATOM     28  O   UNL     1       6.460   3.420  13.817  0.00  0.00    +0.000 OA
ATOM     29  H   UNL     1       6.495   2.496  14.130  0.00  0.00    +0.000 HD
ENDBRANCH  26  28
ENDBRANCH  22  26
ENDBRANCH   1  23
BRANCH   4  30
ATOM     30  O   UNL     1       1.192   3.783  20.370  0.00  0.00    +0.000 OA
ATOM     31  C   UNL     1       1.761   3.089  21.482  0.00  0.00    +0.000 C 
ENDBRANCH   4  30
TORSDOF 9
ENDMDL
MODEL 6
REMARK VINA RESULT:      -7.7      1.280      1.694
REMARK  Name = 
REMARK  11 active torsions:
REMARK  status: ('A' for Active; 'I' for Inactive)
REMARK    1  A    between atoms: C_1  and  C_2
REMARK    2  A    between atoms: C_2  and  C_3
REMARK    3  A    between atoms: C_3  and  C_27
REMARK    4  A    between atoms: C_4  and  C_5
REMARK    5  A    between atoms: C_8  and  O_9
REMARK    6  A    between atoms: O_9  and  C_10
REMARK    7  A    between atoms: C_11  and  C_12
REMARK    8  A    between atoms: N_14  and  C_15
REMARK    9  A    between atoms: C_15  and  C_16
REMARK   10  A    between atoms: C_19  and  C_20
REMARK   11  A    between atoms: C_27  and  O_29
REMARK                            x       y       z     vdW  Elec       q    Type
REMARK                         _______ _______ _______ _____ _____    ______ ____
ROOT
ATOM      1  C   UNL     1       3.771   4.301  17.256  0.00  0.00    +0.000 A 
ATOM      2  C   UNL     1       3.455   3.093  17.868  0.00  0.00    +0.000 A 
ATOM      3  C   UNL     1       2.727   3.086  19.058  0.00  0.00    +0.000 A 
ATOM      4  C   UNL     1       2.286   4.282  19.657  0.00  0.00    +0.000 A 
ATOM      5  C   UNL     1       2.583   5.507  19.027  0.00  0.00    +0.000 A 
ATOM      6  C   UNL     1       3.303   5.492  17.814  0.00  0.00    +0.000 A 
ENDROOT
BRANCH   5   7
ATOM      7  C   UNL     1       2.232   6.874  19.525  0.00  0.00    +0.000 C 
ATOM      8  O   UNL     1       1.899   7.014  20.706  0.00  0.00    +0.000 OA
ATOM      9  N   UNL     1       2.253   7.938  18.658  0.00  0.00    +0.000 N 
ATOM     10  H   UNL     1       2.533   7.780  17.697  0.00  0.00    +0.000 HD
BRANCH   9  11
ATOM     11  C   UNL     1       1.880   9.270  19.088  0.00  0.00    +0.000 C 
BRANCH  11  12
ATOM     12  C   UNL     1       0.484   9.630  18.648  0.00  0.00    +0.000 A 
ATOM     13  C   UNL     1       0.030   9.289  17.367  0.00  0.00    +0.000 A 
ATOM     14  C   UNL     1      -1.269   9.609  16.960  0.00  0.00    +0.000 A 
ATOM     15  C   UNL     1      -2.140  10.280  17.829  0.00  0.00    +0.000 A 
ATOM     16  C   UNL     1      -1.684  10.624  19.111  0.00  0.00    +0.000 A 
ATOM     17  C   UNL     1      -0.387  10.302  19.517  0.00  0.00    +0.000 A 
BRANCH  15  18
ATOM     18  C   UNL     1      -3.543  10.642  17.408  0.00  0.00    +0.000 C 
ATOM     19  F   UNL     1      -3.763  11.984  17.326  0.00  0.00    +0.000 F 
ATOM     20  F   UNL     1      -3.867  10.137  16.184  0.00  0.00    +0.000 F 
ATOM     21  F   UNL     1      -4.485  10.163  18.269  0.00  0.00    +0.000 F 
ENDBRANCH  15  18
ENDBRANCH  11  12
ENDBRANCH   9  11
ENDBRANCH   5   7
BRANCH   1  23
ATOM     22  C   UNL     1       5.971   4.578  16.097  0.00  0.00    +0.000 C 
ATOM     23  C   UNL     1       4.643   4.326  16.085  0.00  0.00    +0.000 C 
BRANCH  22  25
ATOM     24  C   UNL     1       7.115   6.207  17.867  0.00  0.00    +0.000 C 
ATOM     25  C   UNL     1       6.910   4.821  17.269  0.00  0.00    +0.000 C 
ENDBRANCH  22  25
BRANCH  22  26
ATOM     26  C   UNL     1       6.732   4.552  14.801  0.00  0.00    +0.000 C 
ATOM     27  O   UNL     1       6.403   3.866  13.854  0.00  0.00    +0.000 OA
BRANCH  26  28
ATOM     28  O   UNL     1       7.848   5.317  14.766  0.00  0.00    +0.000 OA
ATOM     29  H   UNL     1       8.627   4.938  15.214  0.00  0.00    +0.000 HD
ENDBRANCH  26  28
ENDBRANCH  22  26
ENDBRANCH   1  23
BRANCH   4  30
ATOM     30  O   UNL     1       1.597   4.301  20.847  0.00  0.00    +0.000 OA
ATOM     31  C   UNL     1       1.557   3.073  21.577  0.00  0.00    +0.000 C 
ENDBRANCH   4  30
TORSDOF 9
ENDMDL
MODEL 7
REMARK VINA RESULT:      -7.7      4.664      8.435
REMARK  Name = 
REMARK  11 active torsions:
REMARK  status: ('A' for Active; 'I' for Inactive)
REMARK    1  A    between atoms: C_1  and  C_2
REMARK    2  A    between atoms: C_2  and  C_3
REMARK    3  A    between atoms: C_3  and  C_27
REMARK    4  A    between atoms: C_4  and  C_5
REMARK    5  A    between atoms: C_8  and  O_9
REMARK    6  A    between atoms: O_9  and  C_10
REMARK    7  A    between atoms: C_11  and  C_12
REMARK    8  A    between atoms: N_14  and  C_15
REMARK    9  A    between atoms: C_15  and  C_16
REMARK   10  A    between atoms: C_19  and  C_20
REMARK   11  A    between atoms: C_27  and  O_29
REMARK                            x       y       z     vdW  Elec       q    Type
REMARK                         _______ _______ _______ _____ _____    ______ ____
ROOT
ATOM      1  C   UNL     1       1.799   6.542  20.481  0.00  0.00    +0.000 A 
ATOM      2  C   UNL     1       1.146   5.327  20.651  0.00  0.00    +0.000 A 
ATOM      3  C   UNL     1       1.656   4.173  20.055  0.00  0.00    +0.000 A 
ATOM      4  C   UNL     1       2.838   4.203  19.289  0.00  0.00    +0.000 A 
ATOM      5  C   UNL     1       3.517   5.428  19.136  0.00  0.00    +0.000 A 
ATOM      6  C   UNL     1       2.995   6.580  19.762  0.00  0.00    +0.000 A 
ENDROOT
BRANCH   5   7
ATOM      7  C   UNL     1       4.760   5.664  18.337  0.00  0.00    +0.000 C 
ATOM      8  O   UNL     1       4.810   6.639  17.580  0.00  0.00    +0.000 OA
ATOM      9  N   UNL     1       5.807   4.781  18.433  0.00  0.00    +0.000 N 
ATOM     10  H   UNL     1       5.725   3.994  19.066  0.00  0.00    +0.000 HD
BRANCH   9  11
ATOM     11  C   UNL     1       7.012   4.948  17.646  0.00  0.00    +0.000 C 
BRANCH  11  12
ATOM     12  C   UNL     1       6.789   4.593  16.198  0.00  0.00    +0.000 A 
ATOM     13  C   UNL     1       7.473   5.275  15.184  0.00  0.00    +0.000 A 
ATOM     14  C   UNL     1       7.279   4.940  13.840  0.00  0.00    +0.000 A 
ATOM     15  C   UNL     1       6.391   3.914  13.486  0.00  0.00    +0.000 A 
ATOM     16  C   UNL     1       5.703   3.234  14.502  0.00  0.00    +0.000 A 
ATOM     17  C   UNL     1       5.899   3.569  15.843  0.00  0.00    +0.000 A 
BRANCH  15  18
ATOM     18  C   UNL     1       6.159   3.541  12.042  0.00  0.00    +0.000 C 
ATOM     19  F   UNL     1       6.985   4.184  11.169  0.00  0.00    +0.000 F 
ATOM     20  F   UNL     1       6.338   2.210  11.812  0.00  0.00    +0.000 F 
ATOM     21  F   UNL     1       4.891   3.822  11.629  0.00  0.00    +0.000 F 
ENDBRANCH  15  18
ENDBRANCH  11  12
ENDBRANCH   9  11
ENDBRANCH   5   7
BRANCH   1  23
ATOM     22  C   UNL     1       1.082   8.932  20.300  0.00  0.00    +0.000 C 
ATOM     23  C   UNL     1       1.203   7.775  20.988  0.00  0.00    +0.000 C 
BRANCH  22  25
ATOM     24  C   UNL     1       1.492  10.686  18.337  0.00  0.00    +0.000 C 
ATOM     25  C   UNL     1       1.440   9.255  18.857  0.00  0.00    +0.000 C 
ENDBRANCH  22  25
BRANCH  22  26
ATOM     26  C   UNL     1       0.428  10.112  20.963  0.00  0.00    +0.000 C 
ATOM     27  O   UNL     1       1.012  10.844  21.736  0.00  0.00    +0.000 OA
BRANCH  26  28
ATOM     28  O   UNL     1      -0.883  10.286  20.678  0.00  0.00    +0.000 OA
ATOM     29  H   UNL     1      -1.155  10.013  19.782  0.00  0.00    +0.000 HD
ENDBRANCH  26  28
ENDBRANCH  22  26
ENDBRANCH   1  23
BRANCH   4  30
ATOM     30  O   UNL     1       3.341   3.086  18.664  0.00  0.00    +0.000 OA
ATOM     31  C   UNL     1       2.609   2.608  17.534  0.00  0.00    +0.000 C 
ENDBRANCH   4  30
TORSDOF 9
ENDMDL
MODEL 8
REMARK VINA RESULT:      -7.7      0.998      1.283
REMARK  Name = 
REMARK  11 active torsions:
REMARK  status: ('A' for Active; 'I' for Inactive)
REMARK    1  A    between atoms: C_1  and  C_2
REMARK    2  A    between atoms: C_2  and  C_3
REMARK    3  A    between atoms: C_3  and  C_27
REMARK    4  A    between atoms: C_4  and  C_5
REMARK    5  A    between atoms: C_8  and  O_9
REMARK    6  A    between atoms: O_9  and  C_10
REMARK    7  A    between atoms: C_11  and  C_12
REMARK    8  A    between atoms: N_14  and  C_15
REMARK    9  A    between atoms: C_15  and  C_16
REMARK   10  A    between atoms: C_19  and  C_20
REMARK   11  A    between atoms: C_27  and  O_29
REMARK                            x       y       z     vdW  Elec       q    Type
REMARK                         _______ _______ _______ _____ _____    ______ ____
ROOT
ATOM      1  C   UNL     1       3.763   3.785  17.156  0.00  0.00    +0.000 A 
ATOM      2  C   UNL     1       2.968   2.678  17.427  0.00  0.00    +0.000 A 
ATOM      3  C   UNL     1       2.039   2.726  18.467  0.00  0.00    +0.000 A 
ATOM      4  C   UNL     1       1.871   3.884  19.249  0.00  0.00    +0.000 A 
ATOM      5  C   UNL     1       2.657   5.018  18.961  0.00  0.00    +0.000 A 
ATOM      6  C   UNL     1       3.577   4.956  17.894  0.00  0.00    +0.000 A 
ENDROOT
BRANCH   5   7
ATOM      7  C   UNL     1       2.646   6.321  19.697  0.00  0.00    +0.000 C 
ATOM      8  O   UNL     1       3.639   7.054  19.634  0.00  0.00    +0.000 OA
ATOM      9  N   UNL     1       1.553   6.664  20.454  0.00  0.00    +0.000 N 
ATOM     10  H   UNL     1       0.759   6.035  20.478  0.00  0.00    +0.000 HD
BRANCH   9  11
ATOM     11  C   UNL     1       1.517   7.896  21.215  0.00  0.00    +0.000 C 
BRANCH  11  12
ATOM     12  C   UNL     1       0.768   8.982  20.487  0.00  0.00    +0.000 A 
ATOM     13  C   UNL     1       0.972   9.194  19.117  0.00  0.00    +0.000 A 
ATOM     14  C   UNL     1       0.269  10.192  18.435  0.00  0.00    +0.000 A 
ATOM     15  C   UNL     1      -0.653  11.002  19.114  0.00  0.00    +0.000 A 
ATOM     16  C   UNL     1      -0.854  10.792  20.487  0.00  0.00    +0.000 A 
ATOM     17  C   UNL     1      -0.152   9.793  21.166  0.00  0.00    +0.000 A 
BRANCH  15  18
ATOM     18  C   UNL     1      -1.416  12.091  18.400  0.00  0.00    +0.000 C 
ATOM     19  F   UNL     1      -0.697  13.232  18.213  0.00  0.00    +0.000 F 
ATOM     20  F   UNL     1      -1.835  11.707  17.162  0.00  0.00    +0.000 F 
ATOM     21  F   UNL     1      -2.540  12.464  19.074  0.00  0.00    +0.000 F 
ENDBRANCH  15  18
ENDBRANCH  11  12
ENDBRANCH   9  11
ENDBRANCH   5   7
BRANCH   1  23
ATOM     22  C   UNL     1       5.469   4.751  15.602  0.00  0.00    +0.000 C 
ATOM     23  C   UNL     1       4.827   3.701  16.160  0.00  0.00    +0.000 C 
BRANCH  22  25
ATOM     24  C   UNL     1       6.118   6.931  16.989  0.00  0.00    +0.000 C 
ATOM     25  C   UNL     1       5.334   6.241  15.880  0.00  0.00    +0.000 C 
ENDBRANCH  22  25
BRANCH  22  26
ATOM     26  C   UNL     1       6.558   4.493  14.598  0.00  0.00    +0.000 C 
ATOM     27  O   UNL     1       7.531   5.210  14.479  0.00  0.00    +0.000 OA
BRANCH  26  28
ATOM     28  O   UNL     1       6.365   3.423  13.792  0.00  0.00    +0.000 OA
ATOM     29  H   UNL     1       5.522   3.418  13.301  0.00  0.00    +0.000 HD
ENDBRANCH  26  28
ENDBRANCH  22  26
ENDBRANCH   1  23
BRANCH   4  30
ATOM     30  O   UNL     1       0.986   3.944  20.300  0.00  0.00    +0.000 OA
ATOM     31  C   UNL     1       1.223   3.039  21.380  0.00  0.00    +0.000 C 
ENDBRANCH   4  30
TORSDOF 9
ENDMDL
MODEL 9
REMARK VINA RESULT:      -7.7      4.696      8.508
REMARK  Name = 
REMARK  11 active torsions:
REMARK  status: ('A' for Active; 'I' for Inactive)
REMARK    1  A    between atoms: C_1  and  C_2
REMARK    2  A    between atoms: C_2  and  C_3
REMARK    3  A    between atoms: C_3  and  C_27
REMARK    4  A    between atoms: C_4  and  C_5
REMARK    5  A    between atoms: C_8  and  O_9
REMARK    6  A    between atoms: O_9  and  C_10
REMARK    7  A    between atoms: C_11  and  C_12
REMARK    8  A    between atoms: N_14  and  C_15
REMARK    9  A    between atoms: C_15  and  C_16
REMARK   10  A    between atoms: C_19  and  C_20
REMARK   11  A    between atoms: C_27  and  O_29
REMARK                            x       y       z     vdW  Elec       q    Type
REMARK                         _______ _______ _______ _____ _____    ______ ____
ROOT
ATOM      1  C   UNL     1       1.573   6.254  20.609  0.00  0.00    +0.000 A 
ATOM      2  C   UNL     1       0.901   5.039  20.549  0.00  0.00    +0.000 A 
ATOM      3  C   UNL     1       1.377   4.020  19.722  0.00  0.00    +0.000 A 
ATOM      4  C   UNL     1       2.541   4.187  18.947  0.00  0.00    +0.000 A 
ATOM      5  C   UNL     1       3.239   5.409  19.024  0.00  0.00    +0.000 A 
ATOM      6  C   UNL     1       2.753   6.418  19.880  0.00  0.00    +0.000 A 
ENDROOT
BRANCH   5   7
ATOM      7  C   UNL     1       4.468   5.783  18.257  0.00  0.00    +0.000 C 
ATOM      8  O   UNL     1       4.454   6.804  17.562  0.00  0.00    +0.000 OA
ATOM      9  N   UNL     1       5.575   4.973  18.310  0.00  0.00    +0.000 N 
ATOM     10  H   UNL     1       5.546   4.144  18.893  0.00  0.00    +0.000 HD
BRANCH   9  11
ATOM     11  C   UNL     1       6.771   5.275  17.551  0.00  0.00    +0.000 C 
BRANCH  11  12
ATOM     12  C   UNL     1       6.654   4.818  16.119  0.00  0.00    +0.000 A 
ATOM     13  C   UNL     1       5.656   3.912  15.739  0.00  0.00    +0.000 A 
ATOM     14  C   UNL     1       5.536   3.495  14.410  0.00  0.00    +0.000 A 
ATOM     15  C   UNL     1       6.418   3.978  13.432  0.00  0.00    +0.000 A 
ATOM     16  C   UNL     1       7.420   4.884  13.814  0.00  0.00    +0.000 A 
ATOM     17  C   UNL     1       7.537   5.299  15.142  0.00  0.00    +0.000 A 
BRANCH  15  18
ATOM     18  C   UNL     1       6.313   3.536  11.993  0.00  0.00    +0.000 C 
ATOM     19  F   UNL     1       5.059   3.651  11.473  0.00  0.00    +0.000 F 
ATOM     20  F   UNL     1       7.126   4.252  11.167  0.00  0.00    +0.000 F 
ATOM     21  F   UNL     1       6.668   2.231  11.823  0.00  0.00    +0.000 F 
ENDBRANCH  15  18
ENDBRANCH  11  12
ENDBRANCH   9  11
ENDBRANCH   5   7
BRANCH   1  23
ATOM     22  C   UNL     1       0.936   8.650  20.944  0.00  0.00    +0.000 C 
ATOM     23  C   UNL     1       1.012   7.369  21.366  0.00  0.00    +0.000 C 
BRANCH  22  25
ATOM     24  C   UNL     1       0.313   9.451  18.480  0.00  0.00    +0.000 C 
ATOM     25  C   UNL     1       1.322   9.264  19.607  0.00  0.00    +0.000 C 
ENDBRANCH  22  25
BRANCH  22  26
ATOM     26  C   UNL     1       0.313   9.681  21.843  0.00  0.00    +0.000 C 
ATOM     27  O   UNL     1      -0.548  10.452  21.468  0.00  0.00    +0.000 OA
BRANCH  26  28
ATOM     28  O   UNL     1       0.806   9.730  23.102  0.00  0.00    +0.000 OA
ATOM     29  H   UNL     1       0.682  10.579  23.566  0.00  0.00    +0.000 HD
ENDBRANCH  26  28
ENDBRANCH  22  26
ENDBRANCH   1  23
BRANCH   4  30
ATOM     30  O   UNL     1       3.010   3.211  18.099  0.00  0.00    +0.000 OA
ATOM     31  C   UNL     1       3.482   2.010  18.714  0.00  0.00    +0.000 C 
ENDBRANCH   4  30
TORSDOF 9
ENDMDL
