MODEL 1
REMARK VINA RESULT:      -6.9      0.000      0.000
REMARK  Name = 
REMARK  13 active torsions:
REMARK  status: ('A' for Active; 'I' for Inactive)
REMARK    1  A    between atoms: C_1  and  C_2
REMARK    2  A    between atoms: C_2  and  O_3
REMARK    3  A    between atoms: O_3  and  C_4
REMARK    4  A    between atoms: C_4  and  C_6
REMARK    5  A    between atoms: C_6  and  C_7
REMARK    6  A    between atoms: C_7  and  C_8
REMARK    7  A    between atoms: C_9  and  C_10
REMARK    8  A    between atoms: C_10  and  C_11
REMARK    9  A    between atoms: C_11  and  O_13
REMARK   10  A    between atoms: O_13  and  C_14
REMARK   11  A    between atoms: C_14  and  C_15
REMARK   12  A    between atoms: C_18  and  C_19
REMARK   13  A    between atoms: N_20  and  O_21
REMARK                            x       y       z     vdW  Elec       q    Type
REMARK                         _______ _______ _______ _____ _____    ______ ____
ROOT
ATOM      1  C   UNL     1       5.081   4.352  17.249  0.00  0.00    +0.000 A 
ATOM      2  C   UNL     1       4.211   3.568  18.005  0.00  0.00    +0.000 A 
ATOM      3  C   UNL     1       4.635   3.661  19.319  0.00  0.00    +0.000 A 
ATOM      4  N   UNL     1       5.705   4.472  19.399  0.00  0.00    +0.000 N 
ATOM      5  C   UNL     1       5.981   4.906  18.152  0.00  0.00    +0.000 A 
ATOM      6  H   UNL     1       6.218   4.721  20.275  0.00  0.00    +0.000 HD
ENDROOT
BRANCH   5   7
ATOM      7  C   UNL     1       7.072   5.848  17.836  0.00  0.00    +0.000 C 
ATOM      8  N   UNL     1       6.805   7.046  17.460  0.00  0.00    +0.000 NA
BRANCH   8   9
ATOM      9  O   UNL     1       7.771   7.885  17.153  0.00  0.00    +0.000 OA
ATOM     10  H   UNL     1       8.550   7.957  17.723  0.00  0.00    +0.000 HD
ENDBRANCH   8   9
ENDBRANCH   5   7
BRANCH   1  11
ATOM     11  C   UNL     1       5.043   4.577  15.758  0.00  0.00    +0.000 C 
BRANCH  11  12
ATOM     12  C   UNL     1       6.048   3.678  15.022  0.00  0.00    +0.000 C 
BRANCH  12  13
ATOM     13  C   UNL     1       6.848   4.477  14.026  0.00  0.00    +0.000 C 
ATOM     14  O   UNL     1       7.579   5.372  14.423  0.00  0.00    +0.000 OA
BRANCH  13  15
ATOM     15  O   UNL     1       6.751   4.194  12.697  0.00  0.00    +0.000 OA
BRANCH  15  17
ATOM     16  C   UNL     1       6.832   2.159  11.386  0.00  0.00    +0.000 C 
ATOM     17  C   UNL     1       5.982   3.178  12.143  0.00  0.00    +0.000 C 
ENDBRANCH  15  17
ENDBRANCH  13  15
ENDBRANCH  12  13
ENDBRANCH  11  12
ENDBRANCH   1  11
BRANCH   2  18
ATOM     18  C   UNL     1       3.019   2.775  17.532  0.00  0.00    +0.000 C 
BRANCH  18  19
ATOM     19  C   UNL     1       1.738   3.361  18.050  0.00  0.00    +0.000 C 
ATOM     20  O   UNL     1       1.194   4.260  17.422  0.00  0.00    +0.000 OA
BRANCH  19  21
ATOM     21  O   UNL     1       1.200   2.903  19.209  0.00  0.00    +0.000 OA
BRANCH  21  22
ATOM     22  C   UNL     1       1.087   3.661  20.361  0.00  0.00    +0.000 C 
ATOM     23  C   UNL     1       1.664   2.895  21.550  0.00  0.00    +0.000 C 
ENDBRANCH  21  22
ENDBRANCH  19  21
ENDBRANCH  18  19
ENDBRANCH   2  18
TORSDOF 11
ENDMDL
MODEL 2
REMARK VINA RESULT:      -6.8      1.563      1.748
REMARK  Name = 
REMARK  13 active torsions:
REMARK  status: ('A' for Active; 'I' for Inactive)
REMARK    1  A    between atoms: C_1  and  C_2
REMARK    2  A    between atoms: C_2  and  O_3
REMARK    3  A    between atoms: O_3  and  C_4
REMARK    4  A    between atoms: C_4  and  C_6
REMARK    5  A    between atoms: C_6  and  C_7
REMARK    6  A    between atoms: C_7  and  C_8
REMARK    7  A    between atoms: C_9  and  C_10
REMARK    8  A    between atoms: C_10  and  C_11
REMARK    9  A    between atoms: C_11  and  O_13
REMARK   10  A    between atoms: O_13  and  C_14
REMARK   11  A    between atoms: C_14  and  C_15
REMARK   12  A    between atoms: C_18  and  C_19
REMARK   13  A    between atoms: N_20  and  O_21
REMARK                            x       y       z     vdW  Elec       q    Type
REMARK                         _______ _______ _______ _____ _____    ______ ____
ROOT
ATOM      1  C   UNL     1       4.543   4.720  17.955  0.00  0.00    +0.000 A 
ATOM      2  C   UNL     1       3.198   4.779  18.316  0.00  0.00    +0.000 A 
ATOM      3  C   UNL     1       3.140   5.481  19.508  0.00  0.00    +0.000 A 
ATOM      4  N   UNL     1       4.376   5.861  19.877  0.00  0.00    +0.000 N 
ATOM      5  C   UNL     1       5.237   5.414  18.939  0.00  0.00    +0.000 A 
ATOM      6  H   UNL     1       4.616   6.411  20.733  0.00  0.00    +0.000 HD
ENDROOT
BRANCH   5   7
ATOM      7  C   UNL     1       6.691   5.666  18.976  0.00  0.00    +0.000 C 
ATOM      8  N   UNL     1       7.397   5.232  19.956  0.00  0.00    +0.000 NA
BRANCH   8   9
ATOM      9  O   UNL     1       8.690   5.473  20.009  0.00  0.00    +0.000 OA
ATOM     10  H   UNL     1       9.323   4.758  19.854  0.00  0.00    +0.000 HD
ENDBRANCH   8   9
ENDBRANCH   5   7
BRANCH   1  11
ATOM     11  C   UNL     1       5.129   4.058  16.732  0.00  0.00    +0.000 C 
BRANCH  11  12
ATOM     12  C   UNL     1       5.349   5.063  15.592  0.00  0.00    +0.000 C 
BRANCH  12  13
ATOM     13  C   UNL     1       6.491   4.628  14.710  0.00  0.00    +0.000 C 
ATOM     14  O   UNL     1       7.551   5.234  14.760  0.00  0.00    +0.000 OA
BRANCH  13  15
ATOM     15  O   UNL     1       6.333   3.568  13.870  0.00  0.00    +0.000 OA
BRANCH  15  17
ATOM     16  C   UNL     1       5.020   3.209  11.867  0.00  0.00    +0.000 C 
ATOM     17  C   UNL     1       6.354   3.629  12.483  0.00  0.00    +0.000 C 
ENDBRANCH  15  17
ENDBRANCH  13  15
ENDBRANCH  12  13
ENDBRANCH  11  12
ENDBRANCH   1  11
BRANCH   2  18
ATOM     18  C   UNL     1       2.007   4.224  17.578  0.00  0.00    +0.000 C 
BRANCH  18  19
ATOM     19  C   UNL     1       1.683   2.833  18.039  0.00  0.00    +0.000 C 
ATOM     20  O   UNL     1       2.362   1.896  17.639  0.00  0.00    +0.000 OA
BRANCH  19  21
ATOM     21  O   UNL     1       0.639   2.621  18.882  0.00  0.00    +0.000 OA
BRANCH  21  22
ATOM     22  C   UNL     1       0.534   3.190  20.139  0.00  0.00    +0.000 C 
ATOM     23  C   UNL     1       1.573   2.580  21.078  0.00  0.00    +0.000 C 
ENDBRANCH  21  22
ENDBRANCH  19  21
ENDBRANCH  18  19
ENDBRANCH   2  18
TORSDOF 11
ENDMDL
MODEL 3
REMARK VINA RESULT:      -6.5      3.513      5.498
REMARK  Name = 
REMARK  13 active torsions:
REMARK  status: ('A' for Active; 'I' for Inactive)
REMARK    1  A    between atoms: C_1  and  C_2
REMARK    2  A    between atoms: C_2  and  O_3
REMARK    3  A    between atoms: O_3  and  C_4
REMARK    4  A    between atoms: C_4  and  C_6
REMARK    5  A    between atoms: C_6  and  C_7
REMARK    6  A    between atoms: C_7  and  C_8
REMARK    7  A    between atoms: C_9  and  C_10
REMARK    8  A    between atoms: C_10  and  C_11
REMARK    9  A    between atoms: C_11  and  O_13
REMARK   10  A    between atoms: O_13  and  C_14
REMARK   11  A    between atoms: C_14  and  C_15
REMARK   12  A    between atoms: C_18  and  C_19
REMARK   13  A    between atoms: N_20  and  O_21
REMARK                            x       y       z     vdW  Elec       q    Type
REMARK                         _______ _______ _______ _____ _____    ______ ____
ROOT
ATOM      1  C   UNL     1       3.672   5.224  18.374  0.00  0.00    +0.000 A 
ATOM      2  C   UNL     1       2.914   4.187  17.833  0.00  0.00    +0.000 A 
ATOM      3  C   UNL     1       3.804   3.189  17.479  0.00  0.00    +0.000 A 
ATOM      4  N   UNL     1       5.058   3.561  17.791  0.00  0.00    +0.000 N 
ATOM      5  C   UNL     1       4.993   4.790  18.344  0.00  0.00    +0.000 A 
ATOM      6  H   UNL     1       5.921   2.991  17.637  0.00  0.00    +0.000 HD
ENDROOT
BRANCH   5   7
ATOM      7  C   UNL     1       6.169   5.524  18.850  0.00  0.00    +0.000 C 
ATOM      8  N   UNL     1       6.888   5.025  19.790  0.00  0.00    +0.000 NA
BRANCH   8   9
ATOM      9  O   UNL     1       7.924   5.683  20.264  0.00  0.00    +0.000 OA
ATOM     10  H   UNL     1       7.788   6.464  20.820  0.00  0.00    +0.000 HD
ENDBRANCH   8   9
ENDBRANCH   5   7
BRANCH   1  11
ATOM     11  C   UNL     1       3.166   6.541  18.908  0.00  0.00    +0.000 C 
BRANCH  11  12
ATOM     12  C   UNL     1       3.127   7.620  17.815  0.00  0.00    +0.000 C 
BRANCH  12  13
ATOM     13  C   UNL     1       2.177   8.727  18.192  0.00  0.00    +0.000 C 
ATOM     14  O   UNL     1       1.978   9.640  17.405  0.00  0.00    +0.000 OA
BRANCH  13  15
ATOM     15  O   UNL     1       1.549   8.699  19.401  0.00  0.00    +0.000 OA
BRANCH  15  17
ATOM     16  C   UNL     1       0.913  10.689  20.627  0.00  0.00    +0.000 C 
ATOM     17  C   UNL     1       0.477   9.501  19.770  0.00  0.00    +0.000 C 
ENDBRANCH  15  17
ENDBRANCH  13  15
ENDBRANCH  12  13
ENDBRANCH  11  12
ENDBRANCH   1  11
BRANCH   2  18
ATOM     18  C   UNL     1       1.417   4.114  17.667  0.00  0.00    +0.000 C 
BRANCH  18  19
ATOM     19  C   UNL     1       0.789   3.300  18.760  0.00  0.00    +0.000 C 
ATOM     20  O   UNL     1       0.436   2.151  18.524  0.00  0.00    +0.000 OA
BRANCH  19  21
ATOM     21  O   UNL     1       0.606   3.840  19.992  0.00  0.00    +0.000 OA
BRANCH  21  22
ATOM     22  C   UNL     1       1.580   3.870  20.975  0.00  0.00    +0.000 C 
ATOM     23  C   UNL     1       1.620   2.533  21.713  0.00  0.00    +0.000 C 
ENDBRANCH  21  22
ENDBRANCH  19  21
ENDBRANCH  18  19
ENDBRANCH   2  18
TORSDOF 11
ENDMDL
MODEL 4
REMARK VINA RESULT:      -6.4      1.474      1.850
REMARK  Name = 
REMARK  13 active torsions:
REMARK  status: ('A' for Active; 'I' for Inactive)
REMARK    1  A    between atoms: C_1  and  C_2
REMARK    2  A    between atoms: C_2  and  O_3
REMARK    3  A    between atoms: O_3  and  C_4
REMARK    4  A    between atoms: C_4  and  C_6
REMARK    5  A    between atoms: C_6  and  C_7
REMARK    6  A    between atoms: C_7  and  C_8
REMARK    7  A    between atoms: C_9  and  C_10
REMARK    8  A    between atoms: C_10  and  C_11
REMARK    9  A    between atoms: C_11  and  O_13
REMARK   10  A    between atoms: O_13  and  C_14
REMARK   11  A    between atoms: C_14  and  C_15
REMARK   12  A    between atoms: C_18  and  C_19
REMARK   13  A    between atoms: N_20  and  O_21
REMARK                            x       y       z     vdW  Elec       q    Type
REMARK                         _______ _______ _______ _____ _____    ______ ____
ROOT
ATOM      1  C   UNL     1       4.355   3.863  17.921  0.00  0.00    +0.000 A 
ATOM      2  C   UNL     1       3.581   2.803  18.390  0.00  0.00    +0.000 A 
ATOM      3  C   UNL     1       4.203   2.336  19.535  0.00  0.00    +0.000 A 
ATOM      4  N   UNL     1       5.303   3.066  19.789  0.00  0.00    +0.000 N 
ATOM      5  C   UNL     1       5.403   4.003  18.823  0.00  0.00    +0.000 A 
ATOM      6  H   UNL     1       5.953   2.931  20.597  0.00  0.00    +0.000 HD
ENDROOT
BRANCH   5   7
ATOM      7  C   UNL     1       6.469   5.022  18.779  0.00  0.00    +0.000 C 
ATOM      8  N   UNL     1       7.186   5.255  19.819  0.00  0.00    +0.000 NA
BRANCH   8   9
ATOM      9  O   UNL     1       8.122   6.179  19.795  0.00  0.00    +0.000 OA
ATOM     10  H   UNL     1       7.993   6.986  19.276  0.00  0.00    +0.000 HD
ENDBRANCH   8   9
ENDBRANCH   5   7
BRANCH   1  11
ATOM     11  C   UNL     1       4.099   4.706  16.696  0.00  0.00    +0.000 C 
BRANCH  11  12
ATOM     12  C   UNL     1       5.003   4.294  15.524  0.00  0.00    +0.000 C 
BRANCH  12  13
ATOM     13  C   UNL     1       5.768   5.481  14.998  0.00  0.00    +0.000 C 
ATOM     14  O   UNL     1       5.559   6.587  15.473  0.00  0.00    +0.000 OA
BRANCH  13  15
ATOM     15  O   UNL     1       6.682   5.311  14.002  0.00  0.00    +0.000 OA
BRANCH  15  17
ATOM     16  C   UNL     1       6.322   3.634  12.292  0.00  0.00    +0.000 C 
ATOM     17  C   UNL     1       7.122   4.088  13.512  0.00  0.00    +0.000 C 
ENDBRANCH  15  17
ENDBRANCH  13  15
ENDBRANCH  12  13
ENDBRANCH  11  12
ENDBRANCH   1  11
BRANCH   2  18
ATOM     18  C   UNL     1       2.301   2.254  17.813  0.00  0.00    +0.000 C 
BRANCH  18  19
ATOM     19  C   UNL     1       1.110   2.708  18.606  0.00  0.00    +0.000 C 
ATOM     20  O   UNL     1       0.198   1.919  18.821  0.00  0.00    +0.000 OA
BRANCH  19  21
ATOM     21  O   UNL     1       1.045   3.983  19.067  0.00  0.00    +0.000 OA
BRANCH  21  22
ATOM     22  C   UNL     1       0.967   4.317  20.407  0.00  0.00    +0.000 C 
ATOM     23  C   UNL     1       1.953   5.439  20.726  0.00  0.00    +0.000 C 
ENDBRANCH  21  22
ENDBRANCH  19  21
ENDBRANCH  18  19
ENDBRANCH   2  18
TORSDOF 11
ENDMDL
MODEL 5
REMARK VINA RESULT:      -6.4      1.489      6.655
REMARK  Name = 
REMARK  13 active torsions:
REMARK  status: ('A' for Active; 'I' for Inactive)
REMARK    1  A    between atoms: C_1  and  C_2
REMARK    2  A    between atoms: C_2  and  O_3
REMARK    3  A    between atoms: O_3  and  C_4
REMARK    4  A    between atoms: C_4  and  C_6
REMARK    5  A    between atoms: C_6  and  C_7
REMARK    6  A    between atoms: C_7  and  C_8
REMARK    7  A    between atoms: C_9  and  C_10
REMARK    8  A    between atoms: C_10  and  C_11
REMARK    9  A    between atoms: C_11  and  O_13
REMARK   10  A    between atoms: O_13  and  C_14
REMARK   11  A    between atoms: C_14  and  C_15
REMARK   12  A    between atoms: C_18  and  C_19
REMARK   13  A    between atoms: N_20  and  O_21
REMARK                            x       y       z     vdW  Elec       q    Type
REMARK                         _______ _______ _______ _____ _____    ______ ____
ROOT
ATOM      1  C   UNL     1       4.862   4.609  17.512  0.00  0.00    +0.000 A 
ATOM      2  C   UNL     1       5.835   4.936  16.569  0.00  0.00    +0.000 A 
ATOM      3  C   UNL     1       7.060   4.690  17.165  0.00  0.00    +0.000 A 
ATOM      4  N   UNL     1       6.878   4.220  18.411  0.00  0.00    +0.000 N 
ATOM      5  C   UNL     1       5.548   4.156  18.632  0.00  0.00    +0.000 A 
ATOM      6  H   UNL     1       7.635   3.947  19.078  0.00  0.00    +0.000 HD
ENDROOT
BRANCH   5   7
ATOM      7  C   UNL     1       4.950   3.652  19.884  0.00  0.00    +0.000 C 
ATOM      8  N   UNL     1       4.898   2.390  20.114  0.00  0.00    +0.000 NA
BRANCH   8   9
ATOM      9  O   UNL     1       4.343   1.932  21.216  0.00  0.00    +0.000 OA
ATOM     10  H   UNL     1       4.608   1.070  21.569  0.00  0.00    +0.000 HD
ENDBRANCH   8   9
ENDBRANCH   5   7
BRANCH   1  11
ATOM     11  C   UNL     1       3.365   4.704  17.347  0.00  0.00    +0.000 C 
BRANCH  11  12
ATOM     12  C   UNL     1       2.729   3.324  17.124  0.00  0.00    +0.000 C 
BRANCH  12  13
ATOM     13  C   UNL     1       1.910   2.915  18.320  0.00  0.00    +0.000 C 
ATOM     14  O   UNL     1       2.036   1.789  18.778  0.00  0.00    +0.000 OA
BRANCH  13  15
ATOM     15  O   UNL     1       1.039   3.801  18.881  0.00  0.00    +0.000 OA
BRANCH  15  17
ATOM     16  C   UNL     1       1.775   5.278  20.654  0.00  0.00    +0.000 C 
ATOM     17  C   UNL     1       0.930   4.074  20.238  0.00  0.00    +0.000 C 
ENDBRANCH  15  17
ENDBRANCH  13  15
ENDBRANCH  12  13
ENDBRANCH  11  12
ENDBRANCH   1  11
BRANCH   2  18
ATOM     18  C   UNL     1       5.640   5.438  15.161  0.00  0.00    +0.000 C 
BRANCH  18  19
ATOM     19  C   UNL     1       6.645   4.832  14.225  0.00  0.00    +0.000 C 
ATOM     20  O   UNL     1       7.664   5.455  13.955  0.00  0.00    +0.000 OA
BRANCH  19  21
ATOM     21  O   UNL     1       6.415   3.611  13.678  0.00  0.00    +0.000 OA
BRANCH  21  22
ATOM     22  C   UNL     1       5.848   3.417  12.431  0.00  0.00    +0.000 C 
ATOM     23  C   UNL     1       6.785   2.593  11.551  0.00  0.00    +0.000 C 
ENDBRANCH  21  22
ENDBRANCH  19  21
ENDBRANCH  18  19
ENDBRANCH   2  18
TORSDOF 11
ENDMDL
MODEL 6
REMARK VINA RESULT:      -6.3      1.787      6.736
REMARK  Name = 
REMARK  13 active torsions:
REMARK  status: ('A' for Active; 'I' for Inactive)
REMARK    1  A    between atoms: C_1  and  C_2
REMARK    2  A    between atoms: C_2  and  O_3
REMARK    3  A    between atoms: O_3  and  C_4
REMARK    4  A    between atoms: C_4  and  C_6
REMARK    5  A    between atoms: C_6  and  C_7
REMARK    6  A    between atoms: C_7  and  C_8
REMARK    7  A    between atoms: C_9  and  C_10
REMARK    8  A    between atoms: C_10  and  C_11
REMARK    9  A    between atoms: C_11  and  O_13
REMARK   10  A    between atoms: O_13  and  C_14
REMARK   11  A    between atoms: C_14  and  C_15
REMARK   12  A    between atoms: C_18  and  C_19
REMARK   13  A    between atoms: N_20  and  O_21
REMARK                            x       y       z     vdW  Elec       q    Type
REMARK                         _______ _______ _______ _____ _____    ______ ____
ROOT
ATOM      1  C   UNL     1       4.074   4.839  17.386  0.00  0.00    +0.000 A 
ATOM      2  C   UNL     1       5.060   4.991  16.413  0.00  0.00    +0.000 A 
ATOM      3  C   UNL     1       5.141   6.345  16.140  0.00  0.00    +0.000 A 
ATOM      4  N   UNL     1       4.266   7.021  16.906  0.00  0.00    +0.000 N 
ATOM      5  C   UNL     1       3.618   6.120  17.675  0.00  0.00    +0.000 A 
ATOM      6  H   UNL     1       4.127   8.057  16.906  0.00  0.00    +0.000 HD
ENDROOT
BRANCH   5   7
ATOM      7  C   UNL     1       2.599   6.484  18.678  0.00  0.00    +0.000 C 
ATOM      8  N   UNL     1       2.848   6.353  19.931  0.00  0.00    +0.000 NA
BRANCH   8   9
ATOM      9  O   UNL     1       1.936   6.652  20.831  0.00  0.00    +0.000 OA
ATOM     10  H   UNL     1       1.850   6.113  21.631  0.00  0.00    +0.000 HD
ENDBRANCH   8   9
ENDBRANCH   5   7
BRANCH   1  11
ATOM     11  C   UNL     1       3.608   3.551  18.018  0.00  0.00    +0.000 C 
BRANCH  11  12
ATOM     12  C   UNL     1       2.269   3.081  17.429  0.00  0.00    +0.000 C 
BRANCH  12  13
ATOM     13  C   UNL     1       1.245   2.891  18.517  0.00  0.00    +0.000 C 
ATOM     14  O   UNL     1       0.356   2.065  18.367  0.00  0.00    +0.000 OA
BRANCH  13  15
ATOM     15  O   UNL     1       1.319   3.636  19.655  0.00  0.00    +0.000 OA
BRANCH  15  17
ATOM     16  C   UNL     1       2.488   2.756  21.585  0.00  0.00    +0.000 C 
ATOM     17  C   UNL     1       1.157   3.152  20.947  0.00  0.00    +0.000 C 
ENDBRANCH  15  17
ENDBRANCH  13  15
ENDBRANCH  12  13
ENDBRANCH  11  12
ENDBRANCH   1  11
BRANCH   2  18
ATOM     18  C   UNL     1       5.911   3.924  15.772  0.00  0.00    +0.000 C 
BRANCH  18  19
ATOM     19  C   UNL     1       6.819   4.509  14.730  0.00  0.00    +0.000 C 
ATOM     20  O   UNL     1       7.758   5.213  15.079  0.00  0.00    +0.000 OA
BRANCH  19  21
ATOM     21  O   UNL     1       6.590   4.266  13.413  0.00  0.00    +0.000 OA
BRANCH  21  22
ATOM     22  C   UNL     1       5.432   3.686  12.925  0.00  0.00    +0.000 C 
ATOM     23  C   UNL     1       5.772   2.685  11.823  0.00  0.00    +0.000 C 
ENDBRANCH  21  22
ENDBRANCH  19  21
ENDBRANCH  18  19
ENDBRANCH   2  18
TORSDOF 11
ENDMDL
MODEL 7
REMARK VINA RESULT:      -6.3      1.596      6.655
REMARK  Name = 
REMARK  13 active torsions:
REMARK  status: ('A' for Active; 'I' for Inactive)
REMARK    1  A    between atoms: C_1  and  C_2
REMARK    2  A    between atoms: C_2  and  O_3
REMARK    3  A    between atoms: O_3  and  C_4
REMARK    4  A    between atoms: C_4  and  C_6
REMARK    5  A    between atoms: C_6  and  C_7
REMARK    6  A    between atoms: C_7  and  C_8
REMARK    7  A    between atoms: C_9  and  C_10
REMARK    8  A    between atoms: C_10  and  C_11
REMARK    9  A    between atoms: C_11  and  O_13
REMARK   10  A    between atoms: O_13  and  C_14
REMARK   11  A    between atoms: C_14  and  C_15
REMARK   12  A    between atoms: C_18  and  C_19
REMARK   13  A    between atoms: N_20  and  O_21
REMARK                            x       y       z     vdW  Elec       q    Type
REMARK                         _______ _______ _______ _____ _____    ______ ____
ROOT
ATOM      1  C   UNL     1       4.369   3.937  17.888  0.00  0.00    +0.000 A 
ATOM      2  C   UNL     1       5.153   4.994  17.428  0.00  0.00    +0.000 A 
ATOM      3  C   UNL     1       6.102   5.237  18.405  0.00  0.00    +0.000 A 
ATOM      4  N   UNL     1       5.943   4.374  19.424  0.00  0.00    +0.000 N 
ATOM      5  C   UNL     1       4.901   3.572  19.120  0.00  0.00    +0.000 A 
ATOM      6  H   UNL     1       6.530   4.334  20.288  0.00  0.00    +0.000 HD
ENDROOT
BRANCH   5   7
ATOM      7  C   UNL     1       4.439   2.469  19.984  0.00  0.00    +0.000 C 
ATOM      8  N   UNL     1       5.143   2.097  20.991  0.00  0.00    +0.000 NA
BRANCH   8   9
ATOM      9  O   UNL     1       4.750   1.097  21.752  0.00  0.00    +0.000 OA
ATOM     10  H   UNL     1       5.241   0.879  22.557  0.00  0.00    +0.000 HD
ENDBRANCH   8   9
ENDBRANCH   5   7
BRANCH   1  11
ATOM     11  C   UNL     1       3.197   3.298  17.186  0.00  0.00    +0.000 C 
BRANCH  11  12
ATOM     12  C   UNL     1       1.865   3.936  17.609  0.00  0.00    +0.000 C 
BRANCH  12  13
ATOM     13  C   UNL     1       1.169   3.084  18.639  0.00  0.00    +0.000 C 
ATOM     14  O   UNL     1       0.589   2.068  18.284  0.00  0.00    +0.000 OA
BRANCH  13  15
ATOM     15  O   UNL     1       1.193   3.451  19.950  0.00  0.00    +0.000 OA
BRANCH  15  17
ATOM     16  C   UNL     1       2.295   5.441  20.783  0.00  0.00    +0.000 C 
ATOM     17  C   UNL     1       0.985   4.738  20.431  0.00  0.00    +0.000 C 
ENDBRANCH  15  17
ENDBRANCH  13  15
ENDBRANCH  12  13
ENDBRANCH  11  12
ENDBRANCH   1  11
BRANCH   2  18
ATOM     18  C   UNL     1       5.040   5.740  16.123  0.00  0.00    +0.000 C 
BRANCH  18  19
ATOM     19  C   UNL     1       5.965   5.167  15.089  0.00  0.00    +0.000 C 
ATOM     20  O   UNL     1       7.146   5.491  15.096  0.00  0.00    +0.000 OA
BRANCH  19  21
ATOM     21  O   UNL     1       5.489   4.308  14.151  0.00  0.00    +0.000 OA
BRANCH  21  22
ATOM     22  C   UNL     1       6.263   3.758  13.144  0.00  0.00    +0.000 C 
ATOM     23  C   UNL     1       5.367   3.176  12.053  0.00  0.00    +0.000 C 
ENDBRANCH  21  22
ENDBRANCH  19  21
ENDBRANCH  18  19
ENDBRANCH   2  18
TORSDOF 11
ENDMDL
MODEL 8
REMARK VINA RESULT:      -6.3      1.889      6.515
REMARK  Name = 
REMARK  13 active torsions:
REMARK  status: ('A' for Active; 'I' for Inactive)
REMARK    1  A    between atoms: C_1  and  C_2
REMARK    2  A    between atoms: C_2  and  O_3
REMARK    3  A    between atoms: O_3  and  C_4
REMARK    4  A    between atoms: C_4  and  C_6
REMARK    5  A    between atoms: C_6  and  C_7
REMARK    6  A    between atoms: C_7  and  C_8
REMARK    7  A    between atoms: C_9  and  C_10
REMARK    8  A    between atoms: C_10  and  C_11
REMARK    9  A    between atoms: C_11  and  O_13
REMARK   10  A    between atoms: O_13  and  C_14
REMARK   11  A    between atoms: C_14  and  C_15
REMARK   12  A    between atoms: C_18  and  C_19
REMARK   13  A    between atoms: N_20  and  O_21
REMARK                            x       y       z     vdW  Elec       q    Type
REMARK                         _______ _______ _______ _____ _____    ______ ____
ROOT
ATOM      1  C   UNL     1       4.100   3.004  18.273  0.00  0.00    +0.000 A 
ATOM      2  C   UNL     1       4.657   4.068  17.566  0.00  0.00    +0.000 A 
ATOM      3  C   UNL     1       5.557   4.682  18.419  0.00  0.00    +0.000 A 
ATOM      4  N   UNL     1       5.584   4.036  19.598  0.00  0.00    +0.000 N 
ATOM      5  C   UNL     1       4.713   3.009  19.521  0.00  0.00    +0.000 A 
ATOM      6  H   UNL     1       6.183   4.286  20.418  0.00  0.00    +0.000 HD
ENDROOT
BRANCH   5   7
ATOM      7  C   UNL     1       4.487   2.043  20.613  0.00  0.00    +0.000 C 
ATOM      8  N   UNL     1       5.484   1.522  21.232  0.00  0.00    +0.000 NA
BRANCH   8   9
ATOM      9  O   UNL     1       5.292   0.640  22.191  0.00  0.00    +0.000 OA
ATOM     10  H   UNL     1       4.426   0.221  22.297  0.00  0.00    +0.000 HD
ENDBRANCH   8   9
ENDBRANCH   5   7
BRANCH   1  11
ATOM     11  C   UNL     1       3.062   2.026  17.780  0.00  0.00    +0.000 C 
BRANCH  11  12
ATOM     12  C   UNL     1       1.767   2.111  18.602  0.00  0.00    +0.000 C 
BRANCH  12  13
ATOM     13  C   UNL     1       1.183   3.498  18.536  0.00  0.00    +0.000 C 
ATOM     14  O   UNL     1       1.023   4.030  17.448  0.00  0.00    +0.000 OA
BRANCH  13  15
ATOM     15  O   UNL     1       0.839   4.144  19.685  0.00  0.00    +0.000 OA
BRANCH  15  17
ATOM     16  C   UNL     1       2.368   5.998  19.988  0.00  0.00    +0.000 C 
ATOM     17  C   UNL     1       1.727   4.739  20.572  0.00  0.00    +0.000 C 
ENDBRANCH  15  17
ENDBRANCH  13  15
ENDBRANCH  12  13
ENDBRANCH  11  12
ENDBRANCH   1  11
BRANCH   2  18
ATOM     18  C   UNL     1       4.380   4.492  16.146  0.00  0.00    +0.000 C 
BRANCH  18  19
ATOM     19  C   UNL     1       5.498   5.334  15.604  0.00  0.00    +0.000 C 
ATOM     20  O   UNL     1       5.360   6.549  15.547  0.00  0.00    +0.000 OA
BRANCH  19  21
ATOM     21  O   UNL     1       6.644   4.747  15.171  0.00  0.00    +0.000 OA
BRANCH  21  22
ATOM     22  C   UNL     1       7.036   4.703  13.845  0.00  0.00    +0.000 C 
ATOM     23  C   UNL     1       6.187   3.688  13.081  0.00  0.00    +0.000 C 
ENDBRANCH  21  22
ENDBRANCH  19  21
ENDBRANCH  18  19
ENDBRANCH   2  18
TORSDOF 11
ENDMDL
MODEL 9
REMARK VINA RESULT:      -6.3      1.316      1.403
REMARK  Name = 
REMARK  13 active torsions:
REMARK  status: ('A' for Active; 'I' for Inactive)
REMARK    1  A    between atoms: C_1  and  C_2
REMARK    2  A    between atoms: C_2  and  O_3
REMARK    3  A    between atoms: O_3  and  C_4
REMARK    4  A    between atoms: C_4  and  C_6
REMARK    5  A    between atoms: C_6  and  C_7
REMARK    6  A    between atoms: C_7  and  C_8
REMARK    7  A    between atoms: C_9  and  C_10
REMARK    8  A    between atoms: C_10  and  C_11
REMARK    9  A    between atoms: C_11  and  O_13
REMARK   10  A    between atoms: O_13  and  C_14
REMARK   11  A    between atoms: C_14  and  C_15
REMARK   12  A    between atoms: C_18  and  C_19
REMARK   13  A    between atoms: N_20  and  O_21
REMARK                            x       y       z     vdW  Elec       q    Type
REMARK                         _______ _______ _______ _____ _____    ______ ____
ROOT
ATOM      1  C   UNL     1       4.634   4.903  16.953  0.00  0.00    +0.000 A 
ATOM      2  C   UNL     1       3.442   4.382  17.451  0.00  0.00    +0.000 A 
ATOM      3  C   UNL     1       2.815   5.410  18.132  0.00  0.00    +0.000 A 
ATOM      4  N   UNL     1       3.559   6.528  18.060  0.00  0.00    +0.000 N 
ATOM      5  C   UNL     1       4.662   6.238  17.339  0.00  0.00    +0.000 A 
ATOM      6  H   UNL     1       3.315   7.453  18.483  0.00  0.00    +0.000 HD
ENDROOT
BRANCH   5   7
ATOM      7  C   UNL     1       5.709   7.225  17.011  0.00  0.00    +0.000 C 
ATOM      8  N   UNL     1       6.941   6.969  17.263  0.00  0.00    +0.000 NA
BRANCH   8   9
ATOM      9  O   UNL     1       7.878   7.855  16.997  0.00  0.00    +0.000 OA
ATOM     10  H   UNL     1       8.666   7.909  17.557  0.00  0.00    +0.000 HD
ENDBRANCH   8   9
ENDBRANCH   5   7
BRANCH   1  11
ATOM     11  C   UNL     1       5.677   4.176  16.139  0.00  0.00    +0.000 C 
BRANCH  11  12
ATOM     12  C   UNL     1       5.396   4.280  14.632  0.00  0.00    +0.000 C 
BRANCH  12  13
ATOM     13  C   UNL     1       6.670   4.529  13.868  0.00  0.00    +0.000 C 
ATOM     14  O   UNL     1       7.535   5.238  14.359  0.00  0.00    +0.000 OA
BRANCH  13  15
ATOM     15  O   UNL     1       6.846   3.962  12.642  0.00  0.00    +0.000 OA
BRANCH  15  17
ATOM     16  C   UNL     1       6.657   1.926  11.342  0.00  0.00    +0.000 C 
ATOM     17  C   UNL     1       5.952   3.103  12.015  0.00  0.00    +0.000 C 
ENDBRANCH  15  17
ENDBRANCH  13  15
ENDBRANCH  12  13
ENDBRANCH  11  12
ENDBRANCH   1  11
BRANCH   2  18
ATOM     18  C   UNL     1       2.891   2.988  17.286  0.00  0.00    +0.000 C 
BRANCH  18  19
ATOM     19  C   UNL     1       2.016   2.610  18.445  0.00  0.00    +0.000 C 
ATOM     20  O   UNL     1       0.800   2.713  18.337  0.00  0.00    +0.000 OA
BRANCH  19  21
ATOM     21  O   UNL     1       2.572   2.171  19.603  0.00  0.00    +0.000 OA
BRANCH  21  22
ATOM     22  C   UNL     1       2.669   2.935  20.753  0.00  0.00    +0.000 C 
ATOM     23  C   UNL     1       1.517   2.605  21.699  0.00  0.00    +0.000 C 
ENDBRANCH  21  22
ENDBRANCH  19  21
ENDBRANCH  18  19
ENDBRANCH   2  18
TORSDOF 11
ENDMDL
