MODEL 1
REMARK VINA RESULT:      -8.0      0.000      0.000
REMARK  Name = 
REMARK  6 active torsions:
REMARK  status: ('A' for Active; 'I' for Inactive)
REMARK    1  A    between atoms: C_2  and  C_3
REMARK    2  A    between atoms: C_3  and  C_4
REMARK    3  A    between atoms: N_6  and  N_7
REMARK    4  A    between atoms: N_13  and  C_14
REMARK    5  A    between atoms: C_14  and  C_15
REMARK    6  A    between atoms: C_15  and  C_16
REMARK                            x       y       z     vdW  Elec       q    Type
REMARK                         _______ _______ _______ _____ _____    ______ ____
ROOT
ATOM      1  O   UNL     1       5.985   4.457  19.330  0.00  0.00    +0.000 OA
ATOM      2  C   UNL     1       6.326   5.337  18.543  0.00  0.00    +0.000 C 
ATOM      3  N   UNL     1       5.626   5.633  17.402  0.00  0.00    +0.000 N 
ATOM      4  H   UNL     1       5.832   6.531  16.961  0.00  0.00    +0.000 HD
ENDROOT
BRANCH   2   5
ATOM      5  C   UNL     1       7.630   6.081  18.735  0.00  0.00    +0.000 C 
BRANCH   5   6
ATOM      6  C   UNL     1       7.878   7.269  17.836  0.00  0.00    +0.000 C 
ATOM      7  O   UNL     1       7.739   7.220  16.614  0.00  0.00    +0.000 OA
ATOM      8  N   UNL     1       8.291   8.389  18.545  0.00  0.00    +0.000 N 
ATOM      9  H   UNL     1       8.481   8.318  19.537  0.00  0.00    +0.000 HD
BRANCH   8  10
ATOM     10  N   UNL     1       8.471   9.575  17.902  0.00  0.00    +0.000 NA
ATOM     11  C   UNL     1       9.067  10.530  18.544  0.00  0.00    +0.000 C 
ATOM     12  C   UNL     1       9.294  11.870  17.889  0.00  0.00    +0.000 C 
ATOM     13  C   UNL     1       9.788  12.714  19.059  0.00  0.00    +0.000 C 
ATOM     14  C   UNL     1      10.479  11.721  19.984  0.00  0.00    +0.000 C 
ATOM     15  C   UNL     1       9.587  10.490  19.958  0.00  0.00    +0.000 C 
ENDBRANCH   8  10
ENDBRANCH   5   6
ENDBRANCH   2   5
BRANCH   3  16
ATOM     16  C   UNL     1       4.341   5.016  17.111  0.00  0.00    +0.000 C 
BRANCH  16  17
ATOM     17  C   UNL     1       3.202   5.739  17.830  0.00  0.00    +0.000 C 
BRANCH  17  18
ATOM     18  C   UNL     1       2.403   4.822  18.719  0.00  0.00    +0.000 A 
ATOM     19  C   UNL     1       2.423   4.978  20.112  0.00  0.00    +0.000 A 
ATOM     20  C   UNL     1       1.691   4.115  20.930  0.00  0.00    +0.000 A 
ATOM     21  C   UNL     1       0.936   3.088  20.365  0.00  0.00    +0.000 A 
ATOM     22  C   UNL     1       0.912   2.924  18.980  0.00  0.00    +0.000 A 
ATOM     23  C   UNL     1       1.643   3.785  18.162  0.00  0.00    +0.000 A 
ENDBRANCH  17  18
ENDBRANCH  16  17
ENDBRANCH   3  16
TORSDOF 6
ENDMDL
MODEL 2
REMARK VINA RESULT:      -7.8      3.638      5.762
REMARK  Name = 
REMARK  6 active torsions:
REMARK  status: ('A' for Active; 'I' for Inactive)
REMARK    1  A    between atoms: C_2  and  C_3
REMARK    2  A    between atoms: C_3  and  C_4
REMARK    3  A    between atoms: N_6  and  N_7
REMARK    4  A    between atoms: N_13  and  C_14
REMARK    5  A    between atoms: C_14  and  C_15
REMARK    6  A    between atoms: C_15  and  C_16
REMARK                            x       y       z     vdW  Elec       q    Type
REMARK                         _______ _______ _______ _____ _____    ______ ____
ROOT
ATOM      1  O   UNL     1       4.836   4.566  18.003  0.00  0.00    +0.000 OA
ATOM      2  C   UNL     1       5.195   5.736  17.883  0.00  0.00    +0.000 C 
ATOM      3  N   UNL     1       4.317   6.789  17.856  0.00  0.00    +0.000 N 
ATOM      4  H   UNL     1       4.714   7.716  18.017  0.00  0.00    +0.000 HD
ENDROOT
BRANCH   2   5
ATOM      5  C   UNL     1       6.649   6.074  17.637  0.00  0.00    +0.000 C 
BRANCH   5   6
ATOM      6  C   UNL     1       7.355   5.304  16.546  0.00  0.00    +0.000 C 
ATOM      7  O   UNL     1       8.087   4.341  16.775  0.00  0.00    +0.000 OA
ATOM      8  N   UNL     1       7.094   5.821  15.284  0.00  0.00    +0.000 N 
ATOM      9  H   UNL     1       6.565   6.680  15.188  0.00  0.00    +0.000 HD
BRANCH   8  10
ATOM     10  N   UNL     1       7.577   5.194  14.177  0.00  0.00    +0.000 NA
ATOM     11  C   UNL     1       6.766   4.439  13.503  0.00  0.00    +0.000 C 
ATOM     12  C   UNL     1       7.240   3.713  12.269  0.00  0.00    +0.000 C 
ATOM     13  C   UNL     1       6.058   2.799  11.966  0.00  0.00    +0.000 C 
ATOM     14  C   UNL     1       4.845   3.549  12.501  0.00  0.00    +0.000 C 
ATOM     15  C   UNL     1       5.319   4.155  13.813  0.00  0.00    +0.000 C 
ENDBRANCH   8  10
ENDBRANCH   5   6
ENDBRANCH   2   5
BRANCH   3  16
ATOM     16  C   UNL     1       2.896   6.608  18.111  0.00  0.00    +0.000 C 
BRANCH  16  17
ATOM     17  C   UNL     1       2.618   6.440  19.605  0.00  0.00    +0.000 C 
BRANCH  17  18
ATOM     18  C   UNL     1       2.117   5.061  19.949  0.00  0.00    +0.000 A 
ATOM     19  C   UNL     1       1.474   4.271  18.986  0.00  0.00    +0.000 A 
ATOM     20  C   UNL     1       1.001   3.000  19.316  0.00  0.00    +0.000 A 
ATOM     21  C   UNL     1       1.163   2.508  20.610  0.00  0.00    +0.000 A 
ATOM     22  C   UNL     1       1.800   3.286  21.575  0.00  0.00    +0.000 A 
ATOM     23  C   UNL     1       2.273   4.557  21.247  0.00  0.00    +0.000 A 
ENDBRANCH  17  18
ENDBRANCH  16  17
ENDBRANCH   3  16
TORSDOF 6
ENDMDL
MODEL 3
REMARK VINA RESULT:      -7.7      3.811      5.571
REMARK  Name = 
REMARK  6 active torsions:
REMARK  status: ('A' for Active; 'I' for Inactive)
REMARK    1  A    between atoms: C_2  and  C_3
REMARK    2  A    between atoms: C_3  and  C_4
REMARK    3  A    between atoms: N_6  and  N_7
REMARK    4  A    between atoms: N_13  and  C_14
REMARK    5  A    between atoms: C_14  and  C_15
REMARK    6  A    between atoms: C_15  and  C_16
REMARK                            x       y       z     vdW  Elec       q    Type
REMARK                         _______ _______ _______ _____ _____    ______ ____
ROOT
ATOM      1  O   UNL     1       4.603   6.085  16.550  0.00  0.00    +0.000 OA
ATOM      2  C   UNL     1       5.042   6.039  17.697  0.00  0.00    +0.000 C 
ATOM      3  N   UNL     1       4.296   6.378  18.797  0.00  0.00    +0.000 N 
ATOM      4  H   UNL     1       4.650   6.062  19.702  0.00  0.00    +0.000 HD
ENDROOT
BRANCH   2   5
ATOM      5  C   UNL     1       6.496   5.708  17.955  0.00  0.00    +0.000 C 
BRANCH   5   6
ATOM      6  C   UNL     1       7.289   5.165  16.790  0.00  0.00    +0.000 C 
ATOM      7  O   UNL     1       8.047   4.200  16.892  0.00  0.00    +0.000 OA
ATOM      8  N   UNL     1       7.075   5.888  15.625  0.00  0.00    +0.000 N 
ATOM      9  H   UNL     1       6.517   6.733  15.648  0.00  0.00    +0.000 HD
BRANCH   8  10
ATOM     10  N   UNL     1       7.641   5.482  14.456  0.00  0.00    +0.000 NA
ATOM     11  C   UNL     1       6.957   4.688  13.693  0.00  0.00    +0.000 C 
ATOM     12  C   UNL     1       7.530   4.198  12.385  0.00  0.00    +0.000 C 
ATOM     13  C   UNL     1       6.509   3.145  11.969  0.00  0.00    +0.000 C 
ATOM     14  C   UNL     1       5.196   3.619  12.577  0.00  0.00    +0.000 C 
ATOM     15  C   UNL     1       5.579   4.138  13.955  0.00  0.00    +0.000 C 
ENDBRANCH   8  10
ENDBRANCH   5   6
ENDBRANCH   2   5
BRANCH   3  16
ATOM     16  C   UNL     1       2.878   6.685  18.695  0.00  0.00    +0.000 C 
BRANCH  16  17
ATOM     17  C   UNL     1       2.130   6.280  19.966  0.00  0.00    +0.000 C 
BRANCH  17  18
ATOM     18  C   UNL     1       1.848   4.801  20.026  0.00  0.00    +0.000 A 
ATOM     19  C   UNL     1       1.963   4.098  21.233  0.00  0.00    +0.000 A 
ATOM     20  C   UNL     1       1.713   2.726  21.277  0.00  0.00    +0.000 A 
ATOM     21  C   UNL     1       1.350   2.043  20.118  0.00  0.00    +0.000 A 
ATOM     22  C   UNL     1       1.234   2.733  18.912  0.00  0.00    +0.000 A 
ATOM     23  C   UNL     1       1.484   4.105  18.866  0.00  0.00    +0.000 A 
ENDBRANCH  17  18
ENDBRANCH  16  17
ENDBRANCH   3  16
TORSDOF 6
ENDMDL
MODEL 4
REMARK VINA RESULT:      -7.7      3.856      5.588
REMARK  Name = 
REMARK  6 active torsions:
REMARK  status: ('A' for Active; 'I' for Inactive)
REMARK    1  A    between atoms: C_2  and  C_3
REMARK    2  A    between atoms: C_3  and  C_4
REMARK    3  A    between atoms: N_6  and  N_7
REMARK    4  A    between atoms: N_13  and  C_14
REMARK    5  A    between atoms: C_14  and  C_15
REMARK    6  A    between atoms: C_15  and  C_16
REMARK                            x       y       z     vdW  Elec       q    Type
REMARK                         _______ _______ _______ _____ _____    ______ ____
ROOT
ATOM      1  O   UNL     1       5.357   4.031  19.684  0.00  0.00    +0.000 OA
ATOM      2  C   UNL     1       5.520   4.372  18.515  0.00  0.00    +0.000 C 
ATOM      3  N   UNL     1       4.790   3.855  17.476  0.00  0.00    +0.000 N 
ATOM      4  H   UNL     1       4.812   4.379  16.599  0.00  0.00    +0.000 HD
ENDROOT
BRANCH   2   5
ATOM      5  C   UNL     1       6.639   5.319  18.137  0.00  0.00    +0.000 C 
BRANCH   5   6
ATOM      6  C   UNL     1       6.671   5.800  16.706  0.00  0.00    +0.000 C 
ATOM      7  O   UNL     1       5.954   6.712  16.292  0.00  0.00    +0.000 OA
ATOM      8  N   UNL     1       7.576   5.087  15.931  0.00  0.00    +0.000 N 
ATOM      9  H   UNL     1       8.052   4.283  16.320  0.00  0.00    +0.000 HD
BRANCH   8  10
ATOM     10  N   UNL     1       7.800   5.448  14.638  0.00  0.00    +0.000 NA
ATOM     11  C   UNL     1       7.236   4.748  13.705  0.00  0.00    +0.000 C 
ATOM     12  C   UNL     1       7.447   5.093  12.251  0.00  0.00    +0.000 C 
ATOM     13  C   UNL     1       6.813   3.900  11.547  0.00  0.00    +0.000 C 
ATOM     14  C   UNL     1       5.724   3.425  12.500  0.00  0.00    +0.000 C 
ATOM     15  C   UNL     1       6.348   3.543  13.882  0.00  0.00    +0.000 C 
ENDBRANCH   8  10
ENDBRANCH   5   6
ENDBRANCH   2   5
BRANCH   3  16
ATOM     16  C   UNL     1       3.666   2.960  17.701  0.00  0.00    +0.000 C 
BRANCH  16  17
ATOM     17  C   UNL     1       2.333   3.692  17.540  0.00  0.00    +0.000 C 
BRANCH  17  18
ATOM     18  C   UNL     1       2.229   4.906  18.426  0.00  0.00    +0.000 A 
ATOM     19  C   UNL     1       2.514   6.184  17.927  0.00  0.00    +0.000 A 
ATOM     20  C   UNL     1       2.428   7.302  18.758  0.00  0.00    +0.000 A 
ATOM     21  C   UNL     1       2.060   7.154  20.094  0.00  0.00    +0.000 A 
ATOM     22  C   UNL     1       1.775   5.886  20.601  0.00  0.00    +0.000 A 
ATOM     23  C   UNL     1       1.861   4.768  19.771  0.00  0.00    +0.000 A 
ENDBRANCH  17  18
ENDBRANCH  16  17
ENDBRANCH   3  16
TORSDOF 6
ENDMDL
MODEL 5
REMARK VINA RESULT:      -7.6      1.627      9.003
REMARK  Name = 
REMARK  6 active torsions:
REMARK  status: ('A' for Active; 'I' for Inactive)
REMARK    1  A    between atoms: C_2  and  C_3
REMARK    2  A    between atoms: C_3  and  C_4
REMARK    3  A    between atoms: N_6  and  N_7
REMARK    4  A    between atoms: N_13  and  C_14
REMARK    5  A    between atoms: C_14  and  C_15
REMARK    6  A    between atoms: C_15  and  C_16
REMARK                            x       y       z     vdW  Elec       q    Type
REMARK                         _______ _______ _______ _____ _____    ______ ____
ROOT
ATOM      1  O   UNL     1       7.825   6.350  18.802  0.00  0.00    +0.000 OA
ATOM      2  C   UNL     1       7.676   6.871  17.698  0.00  0.00    +0.000 C 
ATOM      3  N   UNL     1       7.885   8.206  17.466  0.00  0.00    +0.000 N 
ATOM      4  H   UNL     1       7.992   8.487  16.490  0.00  0.00    +0.000 HD
ENDROOT
BRANCH   2   5
ATOM      5  C   UNL     1       7.130   6.070  16.536  0.00  0.00    +0.000 C 
BRANCH   5   6
ATOM      6  C   UNL     1       5.632   6.069  16.351  0.00  0.00    +0.000 C 
ATOM      7  O   UNL     1       5.091   6.375  15.288  0.00  0.00    +0.000 OA
ATOM      8  N   UNL     1       4.958   5.709  17.510  0.00  0.00    +0.000 N 
ATOM      9  H   UNL     1       5.471   5.574  18.372  0.00  0.00    +0.000 HD
BRANCH   8  10
ATOM     10  N   UNL     1       3.605   5.569  17.497  0.00  0.00    +0.000 NA
ATOM     11  C   UNL     1       3.105   4.447  17.912  0.00  0.00    +0.000 C 
ATOM     12  C   UNL     1       1.612   4.227  17.920  0.00  0.00    +0.000 C 
ATOM     13  C   UNL     1       1.514   2.741  18.246  0.00  0.00    +0.000 C 
ATOM     14  C   UNL     1       2.753   2.448  19.081  0.00  0.00    +0.000 C 
ATOM     15  C   UNL     1       3.862   3.243  18.410  0.00  0.00    +0.000 C 
ENDBRANCH   8  10
ENDBRANCH   5   6
ENDBRANCH   2   5
BRANCH   3  16
ATOM     16  C   UNL     1       8.439   9.082  18.487  0.00  0.00    +0.000 C 
BRANCH  16  17
ATOM     17  C   UNL     1       8.657  10.495  17.945  0.00  0.00    +0.000 C 
BRANCH  17  18
ATOM     18  C   UNL     1       9.866  11.165  18.546  0.00  0.00    +0.000 A 
ATOM     19  C   UNL     1      10.002  11.285  19.936  0.00  0.00    +0.000 A 
ATOM     20  C   UNL     1      11.118  11.919  20.484  0.00  0.00    +0.000 A 
ATOM     21  C   UNL     1      12.105  12.442  19.650  0.00  0.00    +0.000 A 
ATOM     22  C   UNL     1      11.978  12.329  18.266  0.00  0.00    +0.000 A 
ATOM     23  C   UNL     1      10.863  11.696  17.716  0.00  0.00    +0.000 A 
ENDBRANCH  17  18
ENDBRANCH  16  17
ENDBRANCH   3  16
TORSDOF 6
ENDMDL
MODEL 6
REMARK VINA RESULT:      -7.6      4.201      5.737
REMARK  Name = 
REMARK  6 active torsions:
REMARK  status: ('A' for Active; 'I' for Inactive)
REMARK    1  A    between atoms: C_2  and  C_3
REMARK    2  A    between atoms: C_3  and  C_4
REMARK    3  A    between atoms: N_6  and  N_7
REMARK    4  A    between atoms: N_13  and  C_14
REMARK    5  A    between atoms: C_14  and  C_15
REMARK    6  A    between atoms: C_15  and  C_16
REMARK                            x       y       z     vdW  Elec       q    Type
REMARK                         _______ _______ _______ _____ _____    ______ ____
ROOT
ATOM      1  O   UNL     1       4.619   3.269  17.101  0.00  0.00    +0.000 OA
ATOM      2  C   UNL     1       4.898   3.673  18.228  0.00  0.00    +0.000 C 
ATOM      3  N   UNL     1       4.117   3.423  19.327  0.00  0.00    +0.000 N 
ATOM      4  H   UNL     1       4.555   3.567  20.239  0.00  0.00    +0.000 HD
ENDROOT
BRANCH   2   5
ATOM      5  C   UNL     1       6.086   4.585  18.448  0.00  0.00    +0.000 C 
BRANCH   5   6
ATOM      6  C   UNL     1       7.070   4.711  17.310  0.00  0.00    +0.000 C 
ATOM      7  O   UNL     1       8.200   4.222  17.348  0.00  0.00    +0.000 OA
ATOM      8  N   UNL     1       6.559   5.447  16.251  0.00  0.00    +0.000 N 
ATOM      9  H   UNL     1       5.659   5.904  16.339  0.00  0.00    +0.000 HD
BRANCH   8  10
ATOM     10  N   UNL     1       7.279   5.583  15.104  0.00  0.00    +0.000 NA
ATOM     11  C   UNL     1       6.940   4.858  14.084  0.00  0.00    +0.000 C 
ATOM     12  C   UNL     1       7.701   4.959  12.784  0.00  0.00    +0.000 C 
ATOM     13  C   UNL     1       7.121   3.795  11.988  0.00  0.00    +0.000 C 
ATOM     14  C   UNL     1       5.700   3.639  12.514  0.00  0.00    +0.000 C 
ATOM     15  C   UNL     1       5.824   3.848  14.015  0.00  0.00    +0.000 C 
ENDBRANCH   8  10
ENDBRANCH   5   6
ENDBRANCH   2   5
BRANCH   3  16
ATOM     16  C   UNL     1       2.966   2.536  19.262  0.00  0.00    +0.000 C 
BRANCH  16  17
ATOM     17  C   UNL     1       1.658   3.315  19.403  0.00  0.00    +0.000 C 
BRANCH  17  18
ATOM     18  C   UNL     1       1.861   4.806  19.338  0.00  0.00    +0.000 A 
ATOM     19  C   UNL     1       2.097   5.444  18.112  0.00  0.00    +0.000 A 
ATOM     20  C   UNL     1       2.298   6.824  18.061  0.00  0.00    +0.000 A 
ATOM     21  C   UNL     1       2.270   7.579  19.233  0.00  0.00    +0.000 A 
ATOM     22  C   UNL     1       2.038   6.953  20.458  0.00  0.00    +0.000 A 
ATOM     23  C   UNL     1       1.837   5.573  20.510  0.00  0.00    +0.000 A 
ENDBRANCH  17  18
ENDBRANCH  16  17
ENDBRANCH   3  16
TORSDOF 6
ENDMDL
MODEL 7
REMARK VINA RESULT:      -7.5      3.794      5.760
REMARK  Name = 
REMARK  6 active torsions:
REMARK  status: ('A' for Active; 'I' for Inactive)
REMARK    1  A    between atoms: C_2  and  C_3
REMARK    2  A    between atoms: C_3  and  C_4
REMARK    3  A    between atoms: N_6  and  N_7
REMARK    4  A    between atoms: N_13  and  C_14
REMARK    5  A    between atoms: C_14  and  C_15
REMARK    6  A    between atoms: C_15  and  C_16
REMARK                            x       y       z     vdW  Elec       q    Type
REMARK                         _______ _______ _______ _____ _____    ______ ____
ROOT
ATOM      1  O   UNL     1       4.578   6.288  16.366  0.00  0.00    +0.000 OA
ATOM      2  C   UNL     1       5.008   6.175  17.511  0.00  0.00    +0.000 C 
ATOM      3  N   UNL     1       4.226   6.352  18.624  0.00  0.00    +0.000 N 
ATOM      4  H   UNL     1       4.597   5.985  19.503  0.00  0.00    +0.000 HD
ENDROOT
BRANCH   2   5
ATOM      5  C   UNL     1       6.482   5.941  17.763  0.00  0.00    +0.000 C 
BRANCH   5   6
ATOM      6  C   UNL     1       7.252   5.218  16.684  0.00  0.00    +0.000 C 
ATOM      7  O   UNL     1       8.002   4.271  16.920  0.00  0.00    +0.000 OA
ATOM      8  N   UNL     1       7.027   5.758  15.425  0.00  0.00    +0.000 N 
ATOM      9  H   UNL     1       6.478   6.603  15.327  0.00  0.00    +0.000 HD
BRANCH   8  10
ATOM     10  N   UNL     1       7.571   5.171  14.324  0.00  0.00    +0.000 NA
ATOM     11  C   UNL     1       6.798   4.451  13.573  0.00  0.00    +0.000 C 
ATOM     12  C   UNL     1       7.341   3.771  12.340  0.00  0.00    +0.000 C 
ATOM     13  C   UNL     1       6.174   2.880  11.931  0.00  0.00    +0.000 C 
ATOM     14  C   UNL     1       4.935   3.618  12.422  0.00  0.00    +0.000 C 
ATOM     15  C   UNL     1       5.333   4.167  13.784  0.00  0.00    +0.000 C 
ENDBRANCH   8  10
ENDBRANCH   5   6
ENDBRANCH   2   5
BRANCH   3  16
ATOM     16  C   UNL     1       2.789   6.551  18.527  0.00  0.00    +0.000 C 
BRANCH  16  17
ATOM     17  C   UNL     1       2.066   5.237  18.225  0.00  0.00    +0.000 C 
BRANCH  17  18
ATOM     18  C   UNL     1       2.176   4.243  19.352  0.00  0.00    +0.000 A 
ATOM     19  C   UNL     1       1.196   4.182  20.351  0.00  0.00    +0.000 A 
ATOM     20  C   UNL     1       1.312   3.268  21.400  0.00  0.00    +0.000 A 
ATOM     21  C   UNL     1       2.409   2.410  21.462  0.00  0.00    +0.000 A 
ATOM     22  C   UNL     1       3.391   2.465  20.473  0.00  0.00    +0.000 A 
ATOM     23  C   UNL     1       3.276   3.378  19.424  0.00  0.00    +0.000 A 
ENDBRANCH  17  18
ENDBRANCH  16  17
ENDBRANCH   3  16
TORSDOF 6
ENDMDL
MODEL 8
REMARK VINA RESULT:      -7.4      1.506      9.002
REMARK  Name = 
REMARK  6 active torsions:
REMARK  status: ('A' for Active; 'I' for Inactive)
REMARK    1  A    between atoms: C_2  and  C_3
REMARK    2  A    between atoms: C_3  and  C_4
REMARK    3  A    between atoms: N_6  and  N_7
REMARK    4  A    between atoms: N_13  and  C_14
REMARK    5  A    between atoms: C_14  and  C_15
REMARK    6  A    between atoms: C_15  and  C_16
REMARK                            x       y       z     vdW  Elec       q    Type
REMARK                         _______ _______ _______ _____ _____    ______ ____
ROOT
ATOM      1  O   UNL     1       5.686   7.637  17.126  0.00  0.00    +0.000 OA
ATOM      2  C   UNL     1       6.628   6.920  17.456  0.00  0.00    +0.000 C 
ATOM      3  N   UNL     1       7.875   7.410  17.749  0.00  0.00    +0.000 N 
ATOM      4  H   UNL     1       8.502   6.784  18.257  0.00  0.00    +0.000 HD
ENDROOT
BRANCH   2   5
ATOM      5  C   UNL     1       6.490   5.412  17.447  0.00  0.00    +0.000 C 
BRANCH   5   6
ATOM      6  C   UNL     1       6.151   4.750  18.760  0.00  0.00    +0.000 C 
ATOM      7  O   UNL     1       6.694   5.056  19.822  0.00  0.00    +0.000 OA
ATOM      8  N   UNL     1       5.186   3.762  18.618  0.00  0.00    +0.000 N 
ATOM      9  H   UNL     1       4.863   3.498  17.695  0.00  0.00    +0.000 HD
BRANCH   8  10
ATOM     10  N   UNL     1       4.695   3.124  19.716  0.00  0.00    +0.000 NA
ATOM     11  C   UNL     1       3.426   3.219  19.958  0.00  0.00    +0.000 C 
ATOM     12  C   UNL     1       2.820   2.538  21.161  0.00  0.00    +0.000 C 
ATOM     13  C   UNL     1       1.406   3.107  21.167  0.00  0.00    +0.000 C 
ATOM     14  C   UNL     1       1.104   3.404  19.705  0.00  0.00    +0.000 C 
ATOM     15  C   UNL     1       2.401   3.980  19.157  0.00  0.00    +0.000 C 
ENDBRANCH   8  10
ENDBRANCH   5   6
ENDBRANCH   2   5
BRANCH   3  16
ATOM     16  C   UNL     1       8.137   8.838  17.825  0.00  0.00    +0.000 C 
BRANCH  16  17
ATOM     17  C   UNL     1       8.873   9.199  19.116  0.00  0.00    +0.000 C 
BRANCH  17  18
ATOM     18  C   UNL     1       9.415  10.605  19.100  0.00  0.00    +0.000 A 
ATOM     19  C   UNL     1       9.511  11.322  17.900  0.00  0.00    +0.000 A 
ATOM     20  C   UNL     1      10.027  12.619  17.891  0.00  0.00    +0.000 A 
ATOM     21  C   UNL     1      10.455  13.209  19.079  0.00  0.00    +0.000 A 
ATOM     22  C   UNL     1      10.365  12.503  20.278  0.00  0.00    +0.000 A 
ATOM     23  C   UNL     1       9.850  11.206  20.288  0.00  0.00    +0.000 A 
ENDBRANCH  17  18
ENDBRANCH  16  17
ENDBRANCH   3  16
TORSDOF 6
ENDMDL
MODEL 9
REMARK VINA RESULT:      -7.4      3.318      5.535
REMARK  Name = 
REMARK  6 active torsions:
REMARK  status: ('A' for Active; 'I' for Inactive)
REMARK    1  A    between atoms: C_2  and  C_3
REMARK    2  A    between atoms: C_3  and  C_4
REMARK    3  A    between atoms: N_6  and  N_7
REMARK    4  A    between atoms: N_13  and  C_14
REMARK    5  A    between atoms: C_14  and  C_15
REMARK    6  A    between atoms: C_15  and  C_16
REMARK                            x       y       z     vdW  Elec       q    Type
REMARK                         _______ _______ _______ _____ _____    ______ ____
ROOT
ATOM      1  O   UNL     1       6.712   4.013  18.566  0.00  0.00    +0.000 OA
ATOM      2  C   UNL     1       6.199   5.106  18.797  0.00  0.00    +0.000 C 
ATOM      3  N   UNL     1       4.884   5.254  19.157  0.00  0.00    +0.000 N 
ATOM      4  H   UNL     1       4.626   6.150  19.575  0.00  0.00    +0.000 HD
ENDROOT
BRANCH   2   5
ATOM      5  C   UNL     1       6.979   6.385  18.579  0.00  0.00    +0.000 C 
BRANCH   5   6
ATOM      6  C   UNL     1       7.395   6.698  17.162  0.00  0.00    +0.000 C 
ATOM      7  O   UNL     1       7.798   7.808  16.815  0.00  0.00    +0.000 OA
ATOM      8  N   UNL     1       7.251   5.606  16.317  0.00  0.00    +0.000 N 
ATOM      9  H   UNL     1       6.814   4.757  16.657  0.00  0.00    +0.000 HD
BRANCH   8  10
ATOM     10  N   UNL     1       7.665   5.684  15.023  0.00  0.00    +0.000 NA
ATOM     11  C   UNL     1       7.106   4.900  14.157  0.00  0.00    +0.000 C 
ATOM     12  C   UNL     1       7.523   4.935  12.707  0.00  0.00    +0.000 C 
ATOM     13  C   UNL     1       6.795   3.722  12.139  0.00  0.00    +0.000 C 
ATOM     14  C   UNL     1       5.550   3.580  13.005  0.00  0.00    +0.000 C 
ATOM     15  C   UNL     1       6.032   3.875  14.417  0.00  0.00    +0.000 C 
ENDBRANCH   8  10
ENDBRANCH   5   6
ENDBRANCH   2   5
BRANCH   3  16
ATOM     16  C   UNL     1       4.031   4.108  19.430  0.00  0.00    +0.000 C 
BRANCH  16  17
ATOM     17  C   UNL     1       2.557   4.450  19.217  0.00  0.00    +0.000 C 
BRANCH  17  18
ATOM     18  C   UNL     1       2.300   5.935  19.222  0.00  0.00    +0.000 A 
ATOM     19  C   UNL     1       1.891   6.588  20.392  0.00  0.00    +0.000 A 
ATOM     20  C   UNL     1       1.642   7.962  20.385  0.00  0.00    +0.000 A 
ATOM     21  C   UNL     1       1.797   8.694  19.209  0.00  0.00    +0.000 A 
ATOM     22  C   UNL     1       2.203   8.054  18.039  0.00  0.00    +0.000 A 
ATOM     23  C   UNL     1       2.451   6.681  18.044  0.00  0.00    +0.000 A 
ENDBRANCH  17  18
ENDBRANCH  16  17
ENDBRANCH   3  16
TORSDOF 6
ENDMDL
