MODEL 1
REMARK VINA RESULT:      -7.4      0.000      0.000
REMARK  Name = 
REMARK  6 active torsions:
REMARK  status: ('A' for Active; 'I' for Inactive)
REMARK    1  A    between atoms: C_5  and  C_6
REMARK    2  A    between atoms: C_11  and  C_12
REMARK    3  A    between atoms: C_12  and  C_13
REMARK    4  A    between atoms: C_13  and  O_14
REMARK    5  A    between atoms: N_18  and  C_19
REMARK    6  A    between atoms: C_19  and  C_20
REMARK                            x       y       z     vdW  Elec       q    Type
REMARK                         _______ _______ _______ _____ _____    ______ ____
ROOT
ATOM      1  O   UNL     1       0.457   3.526  18.848  0.00  0.00    +0.000 OA
ATOM      2  C   UNL     1       1.624   3.245  19.130  0.00  0.00    +0.000 C 
ATOM      3  C   UNL     1       2.253   2.004  18.527  0.00  0.00    +0.000 C 
ATOM      4  C   UNL     1       3.686   1.719  18.941  0.00  0.00    +0.000 C 
ATOM      5  C   UNL     1       4.503   2.985  19.148  0.00  0.00    +0.000 C 
ATOM      6  C   UNL     1       3.811   3.805  20.234  0.00  0.00    +0.000 C 
ATOM      7  N   UNL     1       2.374   3.985  20.032  0.00  0.00    +0.000 N 
ENDROOT
BRANCH   5   8
ATOM      8  C   UNL     1       4.696   3.831  17.877  0.00  0.00    +0.000 C 
ATOM      9  O   UNL     1       4.293   3.437  16.792  0.00  0.00    +0.000 OA
ATOM     10  N   UNL     1       5.249   5.099  18.025  0.00  0.00    +0.000 N 
ATOM     11  C   UNL     1       5.103   6.061  16.926  0.00  0.00    +0.000 C 
ATOM     12  C   UNL     1       6.440   6.367  16.247  0.00  0.00    +0.000 C 
ATOM     13  C   UNL     1       7.532   6.767  17.263  0.00  0.00    +0.000 C 
ATOM     14  C   UNL     1       7.615   5.661  18.331  0.00  0.00    +0.000 C 
ATOM     15  C   UNL     1       6.264   5.447  19.020  0.00  0.00    +0.000 C 
BRANCH  13  16
ATOM     16  C   UNL     1       7.271   8.165  17.863  0.00  0.00    +0.000 C 
BRANCH  16  17
ATOM     17  C   UNL     1       8.516   9.045  17.924  0.00  0.00    +0.000 C 
BRANCH  17  18
ATOM     18  O   UNL     1       8.930   9.202  19.270  0.00  0.00    +0.000 OA
ATOM     19  H   UNL     1       8.787  10.131  19.518  0.00  0.00    +0.000 HD
ENDBRANCH  17  18
ENDBRANCH  16  17
ENDBRANCH  13  16
ENDBRANCH   5   8
BRANCH   7  20
ATOM     20  C   UNL     1       1.699   5.021  20.815  0.00  0.00    +0.000 C 
BRANCH  20  21
ATOM     21  C   UNL     1       1.826   6.383  20.178  0.00  0.00    +0.000 A 
ATOM     22  C   UNL     1       1.447   7.528  20.895  0.00  0.00    +0.000 A 
ATOM     23  C   UNL     1       1.410   8.776  20.272  0.00  0.00    +0.000 A 
ATOM     24  C   UNL     1       1.759   8.884  18.930  0.00  0.00    +0.000 A 
ATOM     25 CL   UNL     1       1.631  10.404  18.133  0.00  0.00    +0.000 Cl
ATOM     26  C   UNL     1       2.187   7.766  18.218  0.00  0.00    +0.000 A 
ATOM     27  C   UNL     1       2.230   6.519  18.843  0.00  0.00    +0.000 A 
ENDBRANCH  20  21
ENDBRANCH   7  20
TORSDOF 6
ENDMDL
MODEL 2
REMARK VINA RESULT:      -6.2      2.766      6.396
REMARK  Name = 
REMARK  6 active torsions:
REMARK  status: ('A' for Active; 'I' for Inactive)
REMARK    1  A    between atoms: C_5  and  C_6
REMARK    2  A    between atoms: C_11  and  C_12
REMARK    3  A    between atoms: C_12  and  C_13
REMARK    4  A    between atoms: C_13  and  O_14
REMARK    5  A    between atoms: N_18  and  C_19
REMARK    6  A    between atoms: C_19  and  C_20
REMARK                            x       y       z     vdW  Elec       q    Type
REMARK                         _______ _______ _______ _____ _____    ______ ____
ROOT
ATOM      1  O   UNL     1       8.619   4.185  17.280  0.00  0.00    +0.000 OA
ATOM      2  C   UNL     1       7.550   4.632  16.860  0.00  0.00    +0.000 C 
ATOM      3  C   UNL     1       7.054   4.205  15.492  0.00  0.00    +0.000 C 
ATOM      4  C   UNL     1       5.739   4.817  15.042  0.00  0.00    +0.000 C 
ATOM      5  C   UNL     1       4.766   5.034  16.191  0.00  0.00    +0.000 C 
ATOM      6  C   UNL     1       5.444   5.962  17.196  0.00  0.00    +0.000 C 
ATOM      7  N   UNL     1       6.803   5.566  17.563  0.00  0.00    +0.000 N 
ENDROOT
BRANCH   5   8
ATOM      8  C   UNL     1       4.301   3.740  16.882  0.00  0.00    +0.000 C 
ATOM      9  O   UNL     1       4.665   2.645  16.477  0.00  0.00    +0.000 OA
ATOM     10  N   UNL     1       3.541   3.866  18.041  0.00  0.00    +0.000 N 
ATOM     11  C   UNL     1       3.403   2.699  18.920  0.00  0.00    +0.000 C 
ATOM     12  C   UNL     1       1.974   2.151  18.928  0.00  0.00    +0.000 C 
ATOM     13  C   UNL     1       0.929   3.252  19.212  0.00  0.00    +0.000 C 
ATOM     14  C   UNL     1       1.152   4.390  18.200  0.00  0.00    +0.000 C 
ATOM     15  C   UNL     1       2.578   4.941  18.284  0.00  0.00    +0.000 C 
BRANCH  13  16
ATOM     16  C   UNL     1       0.984   3.730  20.678  0.00  0.00    +0.000 C 
BRANCH  16  17
ATOM     17  C   UNL     1       1.263   2.609  21.676  0.00  0.00    +0.000 C 
BRANCH  17  18
ATOM     18  O   UNL     1       2.533   2.800  22.273  0.00  0.00    +0.000 OA
ATOM     19  H   UNL     1       3.078   3.312  21.652  0.00  0.00    +0.000 HD
ENDBRANCH  17  18
ENDBRANCH  16  17
ENDBRANCH  13  16
ENDBRANCH   5   8
BRANCH   7  20
ATOM     20  C   UNL     1       7.395   6.181  18.751  0.00  0.00    +0.000 C 
BRANCH  20  21
ATOM     21  C   UNL     1       7.912   7.571  18.470  0.00  0.00    +0.000 A 
ATOM     22  C   UNL     1       8.851   8.156  19.332  0.00  0.00    +0.000 A 
ATOM     23  C   UNL     1       9.222   9.492  19.178  0.00  0.00    +0.000 A 
ATOM     24  C   UNL     1       8.659  10.247  18.154  0.00  0.00    +0.000 A 
ATOM     25 CL   UNL     1       9.046  11.918  18.011  0.00  0.00    +0.000 Cl
ATOM     26  C   UNL     1       7.764   9.667  17.257  0.00  0.00    +0.000 A 
ATOM     27  C   UNL     1       7.398   8.330  17.409  0.00  0.00    +0.000 A 
ENDBRANCH  20  21
ENDBRANCH   7  20
TORSDOF 6
ENDMDL
MODEL 3
REMARK VINA RESULT:      -6.2      3.070      6.024
REMARK  Name = 
REMARK  6 active torsions:
REMARK  status: ('A' for Active; 'I' for Inactive)
REMARK    1  A    between atoms: C_5  and  C_6
REMARK    2  A    between atoms: C_11  and  C_12
REMARK    3  A    between atoms: C_12  and  C_13
REMARK    4  A    between atoms: C_13  and  O_14
REMARK    5  A    between atoms: N_18  and  C_19
REMARK    6  A    between atoms: C_19  and  C_20
REMARK                            x       y       z     vdW  Elec       q    Type
REMARK                         _______ _______ _______ _____ _____    ______ ____
ROOT
ATOM      1  O   UNL     1       4.667   2.846  19.936  0.00  0.00    +0.000 OA
ATOM      2  C   UNL     1       3.921   3.444  19.157  0.00  0.00    +0.000 C 
ATOM      3  C   UNL     1       2.474   3.007  19.034  0.00  0.00    +0.000 C 
ATOM      4  C   UNL     1       1.629   3.783  18.039  0.00  0.00    +0.000 C 
ATOM      5  C   UNL     1       2.010   5.254  17.964  0.00  0.00    +0.000 C 
ATOM      6  C   UNL     1       3.478   5.328  17.555  0.00  0.00    +0.000 C 
ATOM      7  N   UNL     1       4.367   4.467  18.334  0.00  0.00    +0.000 N 
ENDROOT
BRANCH   5   8
ATOM      8  C   UNL     1       1.775   6.038  19.268  0.00  0.00    +0.000 C 
ATOM      9  O   UNL     1       1.485   5.460  20.305  0.00  0.00    +0.000 OA
ATOM     10  N   UNL     1       2.004   7.410  19.244  0.00  0.00    +0.000 N 
ATOM     11  C   UNL     1       2.159   8.117  20.521  0.00  0.00    +0.000 C 
ATOM     12  C   UNL     1       0.991   9.066  20.799  0.00  0.00    +0.000 C 
ATOM     13  C   UNL     1       0.713  10.012  19.610  0.00  0.00    +0.000 C 
ATOM     14  C   UNL     1       0.527   9.148  18.349  0.00  0.00    +0.000 C 
ATOM     15  C   UNL     1       1.754   8.270  18.088  0.00  0.00    +0.000 C 
BRANCH  13  16
ATOM     16  C   UNL     1       1.821  11.075  19.454  0.00  0.00    +0.000 C 
BRANCH  16  17
ATOM     17  C   UNL     1       1.485  12.163  18.436  0.00  0.00    +0.000 C 
BRANCH  17  18
ATOM     18  O   UNL     1       2.503  12.234  17.454  0.00  0.00    +0.000 OA
ATOM     19  H   UNL     1       3.051  13.012  17.651  0.00  0.00    +0.000 HD
ENDBRANCH  17  18
ENDBRANCH  16  17
ENDBRANCH  13  16
ENDBRANCH   5   8
BRANCH   7  20
ATOM     20  C   UNL     1       5.806   4.718  18.250  0.00  0.00    +0.000 C 
BRANCH  20  21
ATOM     21  C   UNL     1       6.310   4.646  16.830  0.00  0.00    +0.000 A 
ATOM     22  C   UNL     1       7.216   5.609  16.359  0.00  0.00    +0.000 A 
ATOM     23  C   UNL     1       7.571   5.650  15.011  0.00  0.00    +0.000 A 
ATOM     24  C   UNL     1       7.028   4.722  14.128  0.00  0.00    +0.000 A 
ATOM     25 CL   UNL     1       7.394   4.822  12.450  0.00  0.00    +0.000 Cl
ATOM     26  C   UNL     1       6.168   3.727  14.589  0.00  0.00    +0.000 A 
ATOM     27  C   UNL     1       5.817   3.684  15.938  0.00  0.00    +0.000 A 
ENDBRANCH  20  21
ENDBRANCH   7  20
TORSDOF 6
ENDMDL
MODEL 4
REMARK VINA RESULT:      -6.2      3.500      7.295
REMARK  Name = 
REMARK  6 active torsions:
REMARK  status: ('A' for Active; 'I' for Inactive)
REMARK    1  A    between atoms: C_5  and  C_6
REMARK    2  A    between atoms: C_11  and  C_12
REMARK    3  A    between atoms: C_12  and  C_13
REMARK    4  A    between atoms: C_13  and  O_14
REMARK    5  A    between atoms: N_18  and  C_19
REMARK    6  A    between atoms: C_19  and  C_20
REMARK                            x       y       z     vdW  Elec       q    Type
REMARK                         _______ _______ _______ _____ _____    ______ ____
ROOT
ATOM      1  O   UNL     1       6.958   7.785  16.581  0.00  0.00    +0.000 OA
ATOM      2  C   UNL     1       6.908   6.618  16.975  0.00  0.00    +0.000 C 
ATOM      3  C   UNL     1       7.807   6.182  18.116  0.00  0.00    +0.000 C 
ATOM      4  C   UNL     1       7.698   4.724  18.527  0.00  0.00    +0.000 C 
ATOM      5  C   UNL     1       6.283   4.180  18.396  0.00  0.00    +0.000 C 
ATOM      6  C   UNL     1       5.866   4.332  16.937  0.00  0.00    +0.000 C 
ATOM      7  N   UNL     1       6.104   5.661  16.375  0.00  0.00    +0.000 N 
ENDROOT
BRANCH   5   8
ATOM      8  C   UNL     1       5.256   4.855  19.323  0.00  0.00    +0.000 C 
ATOM      9  O   UNL     1       5.557   5.837  19.986  0.00  0.00    +0.000 OA
ATOM     10  N   UNL     1       3.951   4.371  19.298  0.00  0.00    +0.000 N 
ATOM     11  C   UNL     1       2.883   5.205  19.861  0.00  0.00    +0.000 C 
ATOM     12  C   UNL     1       2.296   4.602  21.139  0.00  0.00    +0.000 C 
ATOM     13  C   UNL     1       1.878   3.127  20.949  0.00  0.00    +0.000 C 
ATOM     14  C   UNL     1       3.093   2.357  20.399  0.00  0.00    +0.000 C 
ATOM     15  C   UNL     1       3.594   2.968  19.088  0.00  0.00    +0.000 C 
BRANCH  13  16
ATOM     16  C   UNL     1       0.627   2.997  20.055  0.00  0.00    +0.000 C 
BRANCH  16  17
ATOM     17  C   UNL     1       0.911   2.362  18.696  0.00  0.00    +0.000 C 
BRANCH  17  18
ATOM     18  O   UNL     1       0.831   3.345  17.679  0.00  0.00    +0.000 OA
ATOM     19  H   UNL     1       1.675   3.342  17.197  0.00  0.00    +0.000 HD
ENDBRANCH  17  18
ENDBRANCH  16  17
ENDBRANCH  13  16
ENDBRANCH   5   8
BRANCH   7  20
ATOM     20  C   UNL     1       5.437   5.999  15.118  0.00  0.00    +0.000 C 
BRANCH  20  21
ATOM     21  C   UNL     1       5.892   5.117  13.981  0.00  0.00    +0.000 A 
ATOM     22  C   UNL     1       5.035   4.126  13.478  0.00  0.00    +0.000 A 
ATOM     23  C   UNL     1       5.492   3.202  12.538  0.00  0.00    +0.000 A 
ATOM     24  C   UNL     1       6.808   3.270  12.091  0.00  0.00    +0.000 A 
ATOM     25 CL   UNL     1       7.402   2.082  10.999  0.00  0.00    +0.000 Cl
ATOM     26  C   UNL     1       7.656   4.280  12.541  0.00  0.00    +0.000 A 
ATOM     27  C   UNL     1       7.197   5.207  13.477  0.00  0.00    +0.000 A 
ENDBRANCH  20  21
ENDBRANCH   7  20
TORSDOF 6
ENDMDL
MODEL 5
REMARK VINA RESULT:      -6.2      5.464      8.261
REMARK  Name = 
REMARK  6 active torsions:
REMARK  status: ('A' for Active; 'I' for Inactive)
REMARK    1  A    between atoms: C_5  and  C_6
REMARK    2  A    between atoms: C_11  and  C_12
REMARK    3  A    between atoms: C_12  and  C_13
REMARK    4  A    between atoms: C_13  and  O_14
REMARK    5  A    between atoms: N_18  and  C_19
REMARK    6  A    between atoms: C_19  and  C_20
REMARK                            x       y       z     vdW  Elec       q    Type
REMARK                         _______ _______ _______ _____ _____    ______ ____
ROOT
ATOM      1  O   UNL     1       1.425   8.648  21.877  0.00  0.00    +0.000 OA
ATOM      2  C   UNL     1       0.964   9.001  20.789  0.00  0.00    +0.000 C 
ATOM      3  C   UNL     1      -0.308   9.827  20.756  0.00  0.00    +0.000 C 
ATOM      4  C   UNL     1      -0.819  10.203  19.377  0.00  0.00    +0.000 C 
ATOM      5  C   UNL     1       0.303  10.457  18.381  0.00  0.00    +0.000 C 
ATOM      6  C   UNL     1       1.132   9.180  18.288  0.00  0.00    +0.000 C 
ATOM      7  N   UNL     1       1.526   8.619  19.580  0.00  0.00    +0.000 N 
ENDROOT
BRANCH   5   8
ATOM      8  C   UNL     1       1.201  11.657  18.731  0.00  0.00    +0.000 C 
ATOM      9  O   UNL     1       2.337  11.492  19.152  0.00  0.00    +0.000 OA
ATOM     10  N   UNL     1       0.712  12.930  18.453  0.00  0.00    +0.000 N 
ATOM     11  C   UNL     1       1.658  14.052  18.415  0.00  0.00    +0.000 C 
ATOM     12  C   UNL     1       1.440  15.028  19.573  0.00  0.00    +0.000 C 
ATOM     13  C   UNL     1      -0.033  15.479  19.686  0.00  0.00    +0.000 C 
ATOM     14  C   UNL     1      -0.911  14.216  19.763  0.00  0.00    +0.000 C 
ATOM     15  C   UNL     1      -0.697  13.312  18.545  0.00  0.00    +0.000 C 
BRANCH  13  16
ATOM     16  C   UNL     1      -0.434  16.422  18.532  0.00  0.00    +0.000 C 
BRANCH  16  17
ATOM     17  C   UNL     1       0.497  17.621  18.372  0.00  0.00    +0.000 C 
BRANCH  17  18
ATOM     18  O   UNL     1       0.152  18.346  17.205  0.00  0.00    +0.000 OA
ATOM     19  H   UNL     1       0.952  18.798  16.889  0.00  0.00    +0.000 HD
ENDBRANCH  17  18
ENDBRANCH  16  17
ENDBRANCH  13  16
ENDBRANCH   5   8
BRANCH   7  20
ATOM     20  C   UNL     1       2.587   7.612  19.592  0.00  0.00    +0.000 C 
BRANCH  20  21
ATOM     21  C   UNL     1       2.049   6.222  19.360  0.00  0.00    +0.000 A 
ATOM     22  C   UNL     1       1.592   5.458  20.445  0.00  0.00    +0.000 A 
ATOM     23  C   UNL     1       1.239   4.120  20.273  0.00  0.00    +0.000 A 
ATOM     24  C   UNL     1       1.334   3.540  19.011  0.00  0.00    +0.000 A 
ATOM     25 CL   UNL     1       0.983   1.869  18.809  0.00  0.00    +0.000 Cl
ATOM     26  C   UNL     1       1.737   4.299  17.913  0.00  0.00    +0.000 A 
ATOM     27  C   UNL     1       2.085   5.639  18.086  0.00  0.00    +0.000 A 
ENDBRANCH  20  21
ENDBRANCH   7  20
TORSDOF 6
ENDMDL
MODEL 6
REMARK VINA RESULT:      -6.1      1.801      5.438
REMARK  Name = 
REMARK  6 active torsions:
REMARK  status: ('A' for Active; 'I' for Inactive)
REMARK    1  A    between atoms: C_5  and  C_6
REMARK    2  A    between atoms: C_11  and  C_12
REMARK    3  A    between atoms: C_12  and  C_13
REMARK    4  A    between atoms: C_13  and  O_14
REMARK    5  A    between atoms: N_18  and  C_19
REMARK    6  A    between atoms: C_19  and  C_20
REMARK                            x       y       z     vdW  Elec       q    Type
REMARK                         _______ _______ _______ _____ _____    ______ ____
ROOT
ATOM      1  O   UNL     1       6.221   8.396  17.711  0.00  0.00    +0.000 OA
ATOM      2  C   UNL     1       6.209   7.280  17.188  0.00  0.00    +0.000 C 
ATOM      3  C   UNL     1       7.483   6.458  17.167  0.00  0.00    +0.000 C 
ATOM      4  C   UNL     1       7.388   5.104  16.486  0.00  0.00    +0.000 C 
ATOM      5  C   UNL     1       6.034   4.439  16.683  0.00  0.00    +0.000 C 
ATOM      6  C   UNL     1       4.975   5.376  16.107  0.00  0.00    +0.000 C 
ATOM      7  N   UNL     1       5.089   6.764  16.555  0.00  0.00    +0.000 N 
ENDROOT
BRANCH   5   8
ATOM      8  C   UNL     1       5.705   4.090  18.145  0.00  0.00    +0.000 C 
ATOM      9  O   UNL     1       6.548   4.201  19.024  0.00  0.00    +0.000 OA
ATOM     10  N   UNL     1       4.391   3.744  18.445  0.00  0.00    +0.000 N 
ATOM     11  C   UNL     1       3.959   3.774  19.847  0.00  0.00    +0.000 C 
ATOM     12  C   UNL     1       3.671   2.374  20.391  0.00  0.00    +0.000 C 
ATOM     13  C   UNL     1       2.711   1.580  19.478  0.00  0.00    +0.000 C 
ATOM     14  C   UNL     1       3.297   1.586  18.054  0.00  0.00    +0.000 C 
ATOM     15  C   UNL     1       3.502   3.014  17.540  0.00  0.00    +0.000 C 
BRANCH  13  16
ATOM     16  C   UNL     1       1.272   2.135  19.539  0.00  0.00    +0.000 C 
BRANCH  16  17
ATOM     17  C   UNL     1       0.978   2.931  20.808  0.00  0.00    +0.000 C 
BRANCH  17  18
ATOM     18  O   UNL     1       0.441   4.197  20.468  0.00  0.00    +0.000 OA
ATOM     19  H   UNL     1      -0.504   4.077  20.276  0.00  0.00    +0.000 HD
ENDBRANCH  17  18
ENDBRANCH  16  17
ENDBRANCH  13  16
ENDBRANCH   5   8
BRANCH   7  20
ATOM     20  C   UNL     1       3.942   7.646  16.337  0.00  0.00    +0.000 C 
BRANCH  20  21
ATOM     21  C   UNL     1       3.069   7.752  17.564  0.00  0.00    +0.000 A 
ATOM     22  C   UNL     1       2.311   8.912  17.785  0.00  0.00    +0.000 A 
ATOM     23  C   UNL     1       1.623   9.092  18.985  0.00  0.00    +0.000 A 
ATOM     24  C   UNL     1       1.684   8.108  19.967  0.00  0.00    +0.000 A 
ATOM     25 CL   UNL     1       0.910   8.362  21.482  0.00  0.00    +0.000 Cl
ATOM     26  C   UNL     1       2.390   6.928  19.742  0.00  0.00    +0.000 A 
ATOM     27  C   UNL     1       3.074   6.746  18.540  0.00  0.00    +0.000 A 
ENDBRANCH  20  21
ENDBRANCH   7  20
TORSDOF 6
ENDMDL
MODEL 7
REMARK VINA RESULT:      -6.1      8.498     10.811
REMARK  Name = 
REMARK  6 active torsions:
REMARK  status: ('A' for Active; 'I' for Inactive)
REMARK    1  A    between atoms: C_5  and  C_6
REMARK    2  A    between atoms: C_11  and  C_12
REMARK    3  A    between atoms: C_12  and  C_13
REMARK    4  A    between atoms: C_13  and  O_14
REMARK    5  A    between atoms: N_18  and  C_19
REMARK    6  A    between atoms: C_19  and  C_20
REMARK                            x       y       z     vdW  Elec       q    Type
REMARK                         _______ _______ _______ _____ _____    ______ ____
ROOT
ATOM      1  O   UNL     1      -1.393  10.748  23.446  0.00  0.00    +0.000 OA
ATOM      2  C   UNL     1      -1.110  11.515  22.523  0.00  0.00    +0.000 C 
ATOM      3  C   UNL     1      -0.312  10.992  21.344  0.00  0.00    +0.000 C 
ATOM      4  C   UNL     1       0.011  12.005  20.260  0.00  0.00    +0.000 C 
ATOM      5  C   UNL     1      -1.097  13.027  20.060  0.00  0.00    +0.000 C 
ATOM      6  C   UNL     1      -1.302  13.749  21.389  0.00  0.00    +0.000 C 
ATOM      7  N   UNL     1      -1.438  12.862  22.543  0.00  0.00    +0.000 N 
ENDROOT
BRANCH   5   8
ATOM      8  C   UNL     1      -2.426  12.432  19.561  0.00  0.00    +0.000 C 
ATOM      9  O   UNL     1      -3.407  12.382  20.289  0.00  0.00    +0.000 OA
ATOM     10  N   UNL     1      -2.499  12.051  18.224  0.00  0.00    +0.000 N 
ATOM     11  C   UNL     1      -3.823  11.841  17.626  0.00  0.00    +0.000 C 
ATOM     12  C   UNL     1      -4.077  10.370  17.291  0.00  0.00    +0.000 C 
ATOM     13  C   UNL     1      -2.930   9.756  16.459  0.00  0.00    +0.000 C 
ATOM     14  C   UNL     1      -1.611  10.003  17.213  0.00  0.00    +0.000 C 
ATOM     15  C   UNL     1      -1.381  11.496  17.461  0.00  0.00    +0.000 C 
BRANCH  13  16
ATOM     16  C   UNL     1      -2.911  10.304  15.017  0.00  0.00    +0.000 C 
BRANCH  16  17
ATOM     17  C   UNL     1      -3.989   9.701  14.119  0.00  0.00    +0.000 C 
BRANCH  17  18
ATOM     18  O   UNL     1      -3.759  10.074  12.772  0.00  0.00    +0.000 OA
ATOM     19  H   UNL     1      -3.684  11.042  12.742  0.00  0.00    +0.000 HD
ENDBRANCH  17  18
ENDBRANCH  16  17
ENDBRANCH  13  16
ENDBRANCH   5   8
BRANCH   7  20
ATOM     20  C   UNL     1      -1.970  13.431  23.782  0.00  0.00    +0.000 C 
BRANCH  20  21
ATOM     21  C   UNL     1      -3.469  13.596  23.730  0.00  0.00    +0.000 A 
ATOM     22  C   UNL     1      -4.025  14.862  23.489  0.00  0.00    +0.000 A 
ATOM     23  C   UNL     1      -5.402  15.064  23.591  0.00  0.00    +0.000 A 
ATOM     24  C   UNL     1      -6.230  13.997  23.928  0.00  0.00    +0.000 A 
ATOM     25 CL   UNL     1      -7.917  14.258  24.142  0.00  0.00    +0.000 Cl
ATOM     26  C   UNL     1      -5.699  12.723  24.120  0.00  0.00    +0.000 A 
ATOM     27  C   UNL     1      -4.323  12.521  24.012  0.00  0.00    +0.000 A 
ENDBRANCH  20  21
ENDBRANCH   7  20
TORSDOF 6
ENDMDL
MODEL 8
REMARK VINA RESULT:      -6.0      5.493      8.543
REMARK  Name = 
REMARK  6 active torsions:
REMARK  status: ('A' for Active; 'I' for Inactive)
REMARK    1  A    between atoms: C_5  and  C_6
REMARK    2  A    between atoms: C_11  and  C_12
REMARK    3  A    between atoms: C_12  and  C_13
REMARK    4  A    between atoms: C_13  and  O_14
REMARK    5  A    between atoms: N_18  and  C_19
REMARK    6  A    between atoms: C_19  and  C_20
REMARK                            x       y       z     vdW  Elec       q    Type
REMARK                         _______ _______ _______ _____ _____    ______ ____
ROOT
ATOM      1  O   UNL     1       1.574   8.583  21.760  0.00  0.00    +0.000 OA
ATOM      2  C   UNL     1       1.051   8.924  20.697  0.00  0.00    +0.000 C 
ATOM      3  C   UNL     1      -0.285   9.640  20.725  0.00  0.00    +0.000 C 
ATOM      4  C   UNL     1      -0.870  10.008  19.373  0.00  0.00    +0.000 C 
ATOM      5  C   UNL     1       0.195  10.381  18.352  0.00  0.00    +0.000 C 
ATOM      6  C   UNL     1       1.125   9.181  18.198  0.00  0.00    +0.000 C 
ATOM      7  N   UNL     1       1.604   8.622  19.462  0.00  0.00    +0.000 N 
ENDROOT
BRANCH   5   8
ATOM      8  C   UNL     1       1.001  11.643  18.709  0.00  0.00    +0.000 C 
ATOM      9  O   UNL     1       2.216  11.599  18.834  0.00  0.00    +0.000 OA
ATOM     10  N   UNL     1       0.310  12.849  18.783  0.00  0.00    +0.000 N 
ATOM     11  C   UNL     1       1.076  14.100  18.744  0.00  0.00    +0.000 C 
ATOM     12  C   UNL     1       1.031  14.844  20.080  0.00  0.00    +0.000 C 
ATOM     13  C   UNL     1      -0.414  15.033  20.594  0.00  0.00    +0.000 C 
ATOM     14  C   UNL     1      -1.089  13.649  20.629  0.00  0.00    +0.000 C 
ATOM     15  C   UNL     1      -1.070  12.984  19.251  0.00  0.00    +0.000 C 
BRANCH  13  16
ATOM     16  C   UNL     1      -1.193  16.062  19.748  0.00  0.00    +0.000 C 
BRANCH  16  17
ATOM     17  C   UNL     1      -2.386  16.674  20.477  0.00  0.00    +0.000 C 
BRANCH  17  18
ATOM     18  O   UNL     1      -3.529  16.644  19.641  0.00  0.00    +0.000 OA
ATOM     19  H   UNL     1      -4.087  15.902  19.927  0.00  0.00    +0.000 HD
ENDBRANCH  17  18
ENDBRANCH  16  17
ENDBRANCH  13  16
ENDBRANCH   5   8
BRANCH   7  20
ATOM     20  C   UNL     1       2.746   7.708  19.413  0.00  0.00    +0.000 C 
BRANCH  20  21
ATOM     21  C   UNL     1       2.312   6.268  19.288  0.00  0.00    +0.000 A 
ATOM     22  C   UNL     1       2.284   5.653  18.027  0.00  0.00    +0.000 A 
ATOM     23  C   UNL     1       1.740   4.378  17.870  0.00  0.00    +0.000 A 
ATOM     24  C   UNL     1       1.227   3.709  18.977  0.00  0.00    +0.000 A 
ATOM     25 CL   UNL     1       0.476   2.175  18.777  0.00  0.00    +0.000 Cl
ATOM     26  C   UNL     1       1.294   4.284  20.245  0.00  0.00    +0.000 A 
ATOM     27  C   UNL     1       1.843   5.557  20.401  0.00  0.00    +0.000 A 
ENDBRANCH  20  21
ENDBRANCH   7  20
TORSDOF 6
ENDMDL
MODEL 9
REMARK VINA RESULT:      -5.9      2.517      5.150
REMARK  Name = 
REMARK  6 active torsions:
REMARK  status: ('A' for Active; 'I' for Inactive)
REMARK    1  A    between atoms: C_5  and  C_6
REMARK    2  A    between atoms: C_11  and  C_12
REMARK    3  A    between atoms: C_12  and  C_13
REMARK    4  A    between atoms: C_13  and  O_14
REMARK    5  A    between atoms: N_18  and  C_19
REMARK    6  A    between atoms: C_19  and  C_20
REMARK                            x       y       z     vdW  Elec       q    Type
REMARK                         _______ _______ _______ _____ _____    ______ ____
ROOT
ATOM      1  O   UNL     1       5.004   2.344  19.889  0.00  0.00    +0.000 OA
ATOM      2  C   UNL     1       4.056   2.753  19.215  0.00  0.00    +0.000 C 
ATOM      3  C   UNL     1       2.644   2.376  19.617  0.00  0.00    +0.000 C 
ATOM      4  C   UNL     1       1.536   2.904  18.724  0.00  0.00    +0.000 C 
ATOM      5  C   UNL     1       1.844   4.282  18.155  0.00  0.00    +0.000 C 
ATOM      6  C   UNL     1       3.137   4.169  17.353  0.00  0.00    +0.000 C 
ATOM      7  N   UNL     1       4.229   3.498  18.059  0.00  0.00    +0.000 N 
ENDROOT
BRANCH   5   8
ATOM      8  C   UNL     1       1.963   5.393  19.214  0.00  0.00    +0.000 C 
ATOM      9  O   UNL     1       1.895   5.134  20.407  0.00  0.00    +0.000 OA
ATOM     10  N   UNL     1       2.252   6.679  18.768  0.00  0.00    +0.000 N 
ATOM     11  C   UNL     1       2.740   7.665  19.740  0.00  0.00    +0.000 C 
ATOM     12  C   UNL     1       1.721   8.779  19.989  0.00  0.00    +0.000 C 
ATOM     13  C   UNL     1       1.222   9.417  18.674  0.00  0.00    +0.000 C 
ATOM     14  C   UNL     1       0.700   8.288  17.767  0.00  0.00    +0.000 C 
ATOM     15  C   UNL     1       1.783   7.239  17.501  0.00  0.00    +0.000 C 
BRANCH  13  16
ATOM     16  C   UNL     1       2.316  10.273  18.001  0.00  0.00    +0.000 C 
BRANCH  16  17
ATOM     17  C   UNL     1       2.231  11.757  18.348  0.00  0.00    +0.000 C 
BRANCH  17  18
ATOM     18  O   UNL     1       2.531  12.537  17.205  0.00  0.00    +0.000 OA
ATOM     19  H   UNL     1       1.940  12.252  16.488  0.00  0.00    +0.000 HD
ENDBRANCH  17  18
ENDBRANCH  16  17
ENDBRANCH  13  16
ENDBRANCH   5   8
BRANCH   7  20
ATOM     20  C   UNL     1       5.581   3.643  17.518  0.00  0.00    +0.000 C 
BRANCH  20  21
ATOM     21  C   UNL     1       6.135   5.028  17.746  0.00  0.00    +0.000 A 
ATOM     22  C   UNL     1       5.580   6.124  17.067  0.00  0.00    +0.000 A 
ATOM     23  C   UNL     1       6.176   7.383  17.144  0.00  0.00    +0.000 A 
ATOM     24  C   UNL     1       7.326   7.553  17.908  0.00  0.00    +0.000 A 
ATOM     25 CL   UNL     1       8.115   9.082  17.937  0.00  0.00    +0.000 Cl
ATOM     26  C   UNL     1       7.860   6.487  18.630  0.00  0.00    +0.000 A 
ATOM     27  C   UNL     1       7.260   5.230  18.556  0.00  0.00    +0.000 A 
ENDBRANCH  20  21
ENDBRANCH   7  20
TORSDOF 6
ENDMDL
