MODEL 1
REMARK VINA RESULT:      -8.6      0.000      0.000
REMARK  Name = 
REMARK  3 active torsions:
REMARK  status: ('A' for Active; 'I' for Inactive)
REMARK    1  A    between atoms: C_1  and  N_2
REMARK    2  A    between atoms: C_6  and  C_7
REMARK    3  A    between atoms: C_14  and  C_15
REMARK                            x       y       z     vdW  Elec       q    Type
REMARK                         _______ _______ _______ _____ _____    ______ ____
ROOT
ATOM      1  C   UNL     1       1.392   8.995  17.809  0.00  0.00    +0.000 C 
ATOM      2  N   UNL     1       1.461   8.633  19.206  0.00  0.00    +0.000 N 
ATOM      3  C   UNL     1       2.000   7.496  19.769  0.00  0.00    +0.000 A 
ATOM      4  N   UNL     1       2.816   6.559  19.141  0.00  0.00    +0.000 N 
ATOM      5  N   UNL     1       3.659   6.967  18.149  0.00  0.00    +0.000 NA
ATOM      6  C   UNL     1       4.480   5.912  18.035  0.00  0.00    +0.000 A 
ATOM      7  N   UNL     1       4.129   4.828  18.789  0.00  0.00    +0.000 NA
ATOM      8  C   UNL     1       3.050   5.231  19.439  0.00  0.00    +0.000 A 
ATOM      9  N   UNL     1       1.673   7.403  21.046  0.00  0.00    +0.000 NA
ATOM     10  C   UNL     1       0.992   8.551  21.343  0.00  0.00    +0.000 A 
ATOM     11  C   UNL     1       0.482   8.991  22.575  0.00  0.00    +0.000 A 
ATOM     12  C   UNL     1      -0.197  10.213  22.625  0.00  0.00    +0.000 A 
ATOM     13  C   UNL     1      -0.386  10.971  21.467  0.00  0.00    +0.000 A 
ATOM     14  C   UNL     1       0.113  10.545  20.229  0.00  0.00    +0.000 A 
ATOM     15  C   UNL     1       0.819   9.334  20.207  0.00  0.00    +0.000 A 
ENDROOT
BRANCH   6  16
ATOM     16  C   UNL     1       5.671   5.868  17.123  0.00  0.00    +0.000 C 
ATOM     17  C   UNL     1       5.286   5.619  15.660  0.00  0.00    +0.000 C 
ATOM     18  C   UNL     1       6.523   5.445  14.789  0.00  0.00    +0.000 C 
ATOM     19  O   UNL     1       7.364   4.417  15.305  0.00  0.00    +0.000 OA
ATOM     20  C   UNL     1       7.860   4.736  16.604  0.00  0.00    +0.000 C 
ATOM     21  C   UNL     1       6.716   4.852  17.599  0.00  0.00    +0.000 C 
ENDBRANCH   6  16
BRANCH   8  22
ATOM     22  C   UNL     1       2.204   4.309  20.246  0.00  0.00    +0.000 A 
ATOM     23  C   UNL     1       2.355   3.828  21.562  0.00  0.00    +0.000 A 
ATOM     24  N   UNL     1       1.329   3.060  21.945  0.00  0.00    +0.000 NA
ATOM     25  N   UNL     1       0.531   3.041  20.865  0.00  0.00    +0.000 N 
ATOM     26  C   UNL     1       0.999   3.791  19.828  0.00  0.00    +0.000 A 
ATOM     27  H   UNL     1      -0.327   2.502  20.914  0.00  0.00    +0.000 HD
ENDBRANCH   8  22
TORSDOF 2
ENDMDL
MODEL 2
REMARK VINA RESULT:      -8.2      3.047      5.700
REMARK  Name = 
REMARK  3 active torsions:
REMARK  status: ('A' for Active; 'I' for Inactive)
REMARK    1  A    between atoms: C_1  and  N_2
REMARK    2  A    between atoms: C_6  and  C_7
REMARK    3  A    between atoms: C_14  and  C_15
REMARK                            x       y       z     vdW  Elec       q    Type
REMARK                         _______ _______ _______ _____ _____    ______ ____
ROOT
ATOM      1  C   UNL     1       3.594   2.417  17.588  0.00  0.00    +0.000 C 
ATOM      2  N   UNL     1       3.537   3.811  17.963  0.00  0.00    +0.000 N 
ATOM      3  C   UNL     1       4.345   4.844  17.540  0.00  0.00    +0.000 A 
ATOM      4  N   UNL     1       5.238   4.823  16.472  0.00  0.00    +0.000 N 
ATOM      5  N   UNL     1       4.960   4.045  15.386  0.00  0.00    +0.000 NA
ATOM      6  C   UNL     1       5.821   4.526  14.477  0.00  0.00    +0.000 A 
ATOM      7  N   UNL     1       6.703   5.453  14.956  0.00  0.00    +0.000 NA
ATOM      8  C   UNL     1       6.359   5.590  16.226  0.00  0.00    +0.000 A 
ATOM      9  N   UNL     1       4.147   5.926  18.271  0.00  0.00    +0.000 NA
ATOM     10  C   UNL     1       3.119   5.621  19.122  0.00  0.00    +0.000 A 
ATOM     11  C   UNL     1       2.468   6.437  20.060  0.00  0.00    +0.000 A 
ATOM     12  C   UNL     1       1.439   5.886  20.832  0.00  0.00    +0.000 A 
ATOM     13  C   UNL     1       1.081   4.544  20.688  0.00  0.00    +0.000 A 
ATOM     14  C   UNL     1       1.724   3.715  19.759  0.00  0.00    +0.000 A 
ATOM     15  C   UNL     1       2.730   4.295  18.974  0.00  0.00    +0.000 A 
ENDROOT
BRANCH   6  16
ATOM     16  C   UNL     1       5.878   4.070  13.048  0.00  0.00    +0.000 C 
ATOM     17  C   UNL     1       4.587   3.375  12.598  0.00  0.00    +0.000 C 
ATOM     18  C   UNL     1       4.731   2.807  11.192  0.00  0.00    +0.000 C 
ATOM     19  O   UNL     1       5.863   1.946  11.108  0.00  0.00    +0.000 OA
ATOM     20  C   UNL     1       7.082   2.641  11.360  0.00  0.00    +0.000 C 
ATOM     21  C   UNL     1       7.102   3.188  12.779  0.00  0.00    +0.000 C 
ENDBRANCH   6  16
BRANCH   8  22
ATOM     22  C   UNL     1       7.172   6.367  17.202  0.00  0.00    +0.000 A 
ATOM     23  C   UNL     1       7.527   7.730  17.233  0.00  0.00    +0.000 A 
ATOM     24  N   UNL     1       8.222   8.051  18.330  0.00  0.00    +0.000 NA
ATOM     25  N   UNL     1       8.323   6.886  18.990  0.00  0.00    +0.000 N 
ATOM     26  C   UNL     1       7.693   5.851  18.367  0.00  0.00    +0.000 A 
ATOM     27  H   UNL     1       8.829   6.876  19.869  0.00  0.00    +0.000 HD
ENDBRANCH   8  22
TORSDOF 2
ENDMDL
MODEL 3
REMARK VINA RESULT:      -8.1      2.836      7.312
REMARK  Name = 
REMARK  3 active torsions:
REMARK  status: ('A' for Active; 'I' for Inactive)
REMARK    1  A    between atoms: C_1  and  N_2
REMARK    2  A    between atoms: C_6  and  C_7
REMARK    3  A    between atoms: C_14  and  C_15
REMARK                            x       y       z     vdW  Elec       q    Type
REMARK                         _______ _______ _______ _____ _____    ______ ____
ROOT
ATOM      1  C   UNL     1       6.808   6.901  16.736  0.00  0.00    +0.000 C 
ATOM      2  N   UNL     1       6.022   5.941  15.997  0.00  0.00    +0.000 N 
ATOM      3  C   UNL     1       4.831   5.350  16.360  0.00  0.00    +0.000 A 
ATOM      4  N   UNL     1       3.995   5.730  17.407  0.00  0.00    +0.000 N 
ATOM      5  N   UNL     1       3.929   7.045  17.765  0.00  0.00    +0.000 NA
ATOM      6  C   UNL     1       2.828   7.067  18.530  0.00  0.00    +0.000 A 
ATOM      7  N   UNL     1       2.280   5.840  18.783  0.00  0.00    +0.000 NA
ATOM      8  C   UNL     1       3.057   5.004  18.114  0.00  0.00    +0.000 A 
ATOM      9  N   UNL     1       4.530   4.355  15.545  0.00  0.00    +0.000 NA
ATOM     10  C   UNL     1       5.495   4.362  14.574  0.00  0.00    +0.000 A 
ATOM     11  C   UNL     1       5.611   3.559  13.429  0.00  0.00    +0.000 A 
ATOM     12  C   UNL     1       6.707   3.751  12.581  0.00  0.00    +0.000 A 
ATOM     13  C   UNL     1       7.681   4.706  12.880  0.00  0.00    +0.000 A 
ATOM     14  C   UNL     1       7.582   5.512  14.022  0.00  0.00    +0.000 A 
ATOM     15  C   UNL     1       6.459   5.327  14.840  0.00  0.00    +0.000 A 
ENDROOT
BRANCH   6  16
ATOM     16  C   UNL     1       2.241   8.314  19.124  0.00  0.00    +0.000 C 
ATOM     17  C   UNL     1       1.476   8.044  20.426  0.00  0.00    +0.000 C 
ATOM     18  C   UNL     1       0.782   9.304  20.926  0.00  0.00    +0.000 C 
ATOM     19  O   UNL     1      -0.057   9.855  19.913  0.00  0.00    +0.000 OA
ATOM     20  C   UNL     1       0.688  10.264  18.768  0.00  0.00    +0.000 C 
ATOM     21  C   UNL     1       1.366   9.069  18.117  0.00  0.00    +0.000 C 
ENDBRANCH   6  16
BRANCH   8  22
ATOM     22  C   UNL     1       2.953   3.525  18.249  0.00  0.00    +0.000 A 
ATOM     23  C   UNL     1       3.919   2.557  18.585  0.00  0.00    +0.000 A 
ATOM     24  N   UNL     1       3.401   1.326  18.664  0.00  0.00    +0.000 NA
ATOM     25  N   UNL     1       2.106   1.510  18.361  0.00  0.00    +0.000 N 
ATOM     26  C   UNL     1       1.782   2.812  18.126  0.00  0.00    +0.000 A 
ATOM     27  H   UNL     1       1.498   0.698  18.348  0.00  0.00    +0.000 HD
ENDBRANCH   8  22
TORSDOF 2
ENDMDL
MODEL 4
REMARK VINA RESULT:      -7.6      0.735      1.131
REMARK  Name = 
REMARK  3 active torsions:
REMARK  status: ('A' for Active; 'I' for Inactive)
REMARK    1  A    between atoms: C_1  and  N_2
REMARK    2  A    between atoms: C_6  and  C_7
REMARK    3  A    between atoms: C_14  and  C_15
REMARK                            x       y       z     vdW  Elec       q    Type
REMARK                         _______ _______ _______ _____ _____    ______ ____
ROOT
ATOM      1  C   UNL     1       1.831   8.774  17.744  0.00  0.00    +0.000 C 
ATOM      2  N   UNL     1       1.704   8.445  19.145  0.00  0.00    +0.000 N 
ATOM      3  C   UNL     1       2.117   7.304  19.797  0.00  0.00    +0.000 A 
ATOM      4  N   UNL     1       2.968   6.320  19.299  0.00  0.00    +0.000 N 
ATOM      5  N   UNL     1       3.948   6.670  18.417  0.00  0.00    +0.000 NA
ATOM      6  C   UNL     1       4.732   5.582  18.433  0.00  0.00    +0.000 A 
ATOM      7  N   UNL     1       4.242   4.531  19.157  0.00  0.00    +0.000 NA
ATOM      8  C   UNL     1       3.106   4.992  19.652  0.00  0.00    +0.000 A 
ATOM      9  N   UNL     1       1.625   7.255  21.022  0.00  0.00    +0.000 NA
ATOM     10  C   UNL     1       0.959   8.436  21.204  0.00  0.00    +0.000 A 
ATOM     11  C   UNL     1       0.313   8.926  22.350  0.00  0.00    +0.000 A 
ATOM     12  C   UNL     1      -0.316  10.175  22.287  0.00  0.00    +0.000 A 
ATOM     13  C   UNL     1      -0.321  10.910  21.100  0.00  0.00    +0.000 A 
ATOM     14  C   UNL     1       0.315  10.433  19.946  0.00  0.00    +0.000 A 
ATOM     15  C   UNL     1       0.967   9.196  20.040  0.00  0.00    +0.000 A 
ENDROOT
BRANCH   6  16
ATOM     16  C   UNL     1       6.029   5.468  17.685  0.00  0.00    +0.000 C 
ATOM     17  C   UNL     1       6.595   6.833  17.274  0.00  0.00    +0.000 C 
ATOM     18  C   UNL     1       7.835   6.673  16.403  0.00  0.00    +0.000 C 
ATOM     19  O   UNL     1       7.558   5.844  15.277  0.00  0.00    +0.000 OA
ATOM     20  C   UNL     1       7.197   4.520  15.665  0.00  0.00    +0.000 C 
ATOM     21  C   UNL     1       5.910   4.533  16.476  0.00  0.00    +0.000 C 
ENDBRANCH   6  16
BRANCH   8  22
ATOM     22  C   UNL     1       2.125   4.125  20.361  0.00  0.00    +0.000 A 
ATOM     23  C   UNL     1       0.971   3.463  19.897  0.00  0.00    +0.000 A 
ATOM     24  N   UNL     1       0.392   2.720  20.847  0.00  0.00    +0.000 NA
ATOM     25  N   UNL     1       1.172   2.923  21.923  0.00  0.00    +0.000 N 
ATOM     26  C   UNL     1       2.235   3.739  21.678  0.00  0.00    +0.000 A 
ATOM     27  H   UNL     1       0.922   2.459  22.789  0.00  0.00    +0.000 HD
ENDBRANCH   8  22
TORSDOF 2
ENDMDL
MODEL 5
REMARK VINA RESULT:      -7.3      2.810      5.610
REMARK  Name = 
REMARK  3 active torsions:
REMARK  status: ('A' for Active; 'I' for Inactive)
REMARK    1  A    between atoms: C_1  and  N_2
REMARK    2  A    between atoms: C_6  and  C_7
REMARK    3  A    between atoms: C_14  and  C_15
REMARK                            x       y       z     vdW  Elec       q    Type
REMARK                         _______ _______ _______ _____ _____    ______ ____
ROOT
ATOM      1  C   UNL     1       3.854   2.646  18.235  0.00  0.00    +0.000 C 
ATOM      2  N   UNL     1       3.751   4.079  18.386  0.00  0.00    +0.000 N 
ATOM      3  C   UNL     1       4.561   5.056  17.850  0.00  0.00    +0.000 A 
ATOM      4  N   UNL     1       5.512   4.895  16.845  0.00  0.00    +0.000 N 
ATOM      5  N   UNL     1       5.310   3.952  15.880  0.00  0.00    +0.000 NA
ATOM      6  C   UNL     1       6.211   4.310  14.954  0.00  0.00    +0.000 A 
ATOM      7  N   UNL     1       7.048   5.324  15.328  0.00  0.00    +0.000 NA
ATOM      8  C   UNL     1       6.631   5.645  16.541  0.00  0.00    +0.000 A 
ATOM      9  N   UNL     1       4.303   6.233  18.393  0.00  0.00    +0.000 NA
ATOM     10  C   UNL     1       3.236   6.034  19.226  0.00  0.00    +0.000 A 
ATOM     11  C   UNL     1       2.519   6.967  19.991  0.00  0.00    +0.000 A 
ATOM     12  C   UNL     1       1.458   6.514  20.784  0.00  0.00    +0.000 A 
ATOM     13  C   UNL     1       1.134   5.157  20.832  0.00  0.00    +0.000 A 
ATOM     14  C   UNL     1       1.843   4.212  20.078  0.00  0.00    +0.000 A 
ATOM     15  C   UNL     1       2.880   4.691  19.265  0.00  0.00    +0.000 A 
ENDROOT
BRANCH   6  16
ATOM     16  C   UNL     1       6.355   3.642  13.618  0.00  0.00    +0.000 C 
ATOM     17  C   UNL     1       7.279   4.414  12.667  0.00  0.00    +0.000 C 
ATOM     18  C   UNL     1       7.293   3.781  11.282  0.00  0.00    +0.000 C 
ATOM     19  O   UNL     1       5.970   3.661  10.767  0.00  0.00    +0.000 OA
ATOM     20  C   UNL     1       5.162   2.800  11.566  0.00  0.00    +0.000 C 
ATOM     21  C   UNL     1       4.995   3.370  12.966  0.00  0.00    +0.000 C 
ENDBRANCH   6  16
BRANCH   8  22
ATOM     22  C   UNL     1       7.374   6.585  17.426  0.00  0.00    +0.000 A 
ATOM     23  C   UNL     1       7.608   7.969  17.316  0.00  0.00    +0.000 A 
ATOM     24  N   UNL     1       8.274   8.459  18.367  0.00  0.00    +0.000 NA
ATOM     25  N   UNL     1       8.478   7.380  19.141  0.00  0.00    +0.000 N 
ATOM     26  C   UNL     1       7.939   6.236  18.632  0.00  0.00    +0.000 A 
ATOM     27  H   UNL     1       8.984   7.504  20.011  0.00  0.00    +0.000 HD
ENDBRANCH   8  22
TORSDOF 2
ENDMDL
MODEL 6
REMARK VINA RESULT:      -6.8      5.060      9.746
REMARK  Name = 
REMARK  3 active torsions:
REMARK  status: ('A' for Active; 'I' for Inactive)
REMARK    1  A    between atoms: C_1  and  N_2
REMARK    2  A    between atoms: C_6  and  C_7
REMARK    3  A    between atoms: C_14  and  C_15
REMARK                            x       y       z     vdW  Elec       q    Type
REMARK                         _______ _______ _______ _____ _____    ______ ____
ROOT
ATOM      1  C   UNL     1      -0.368   9.019  22.093  0.00  0.00    +0.000 C 
ATOM      2  N   UNL     1       0.057   9.377  20.760  0.00  0.00    +0.000 N 
ATOM      3  C   UNL     1      -0.477  10.328  19.918  0.00  0.00    +0.000 A 
ATOM      4  N   UNL     1      -1.389  11.325  20.255  0.00  0.00    +0.000 N 
ATOM      5  N   UNL     1      -1.364  11.855  21.512  0.00  0.00    +0.000 NA
ATOM      6  C   UNL     1      -2.110  12.958  21.360  0.00  0.00    +0.000 A 
ATOM      7  N   UNL     1      -2.707  13.084  20.137  0.00  0.00    +0.000 NA
ATOM      8  C   UNL     1      -2.287  12.021  19.471  0.00  0.00    +0.000 A 
ATOM      9  N   UNL     1       0.020  10.211  18.700  0.00  0.00    +0.000 NA
ATOM     10  C   UNL     1       0.969   9.229  18.775  0.00  0.00    +0.000 A 
ATOM     11  C   UNL     1       1.845   8.759  17.784  0.00  0.00    +0.000 A 
ATOM     12  C   UNL     1       2.731   7.724  18.104  0.00  0.00    +0.000 A 
ATOM     13  C   UNL     1       2.729   7.153  19.378  0.00  0.00    +0.000 A 
ATOM     14  C   UNL     1       1.858   7.608  20.377  0.00  0.00    +0.000 A 
ATOM     15  C   UNL     1       1.002   8.667  20.046  0.00  0.00    +0.000 A 
ENDROOT
BRANCH   6  16
ATOM     16  C   UNL     1      -2.339  13.975  22.440  0.00  0.00    +0.000 C 
ATOM     17  C   UNL     1      -1.194  14.022  23.460  0.00  0.00    +0.000 C 
ATOM     18  C   UNL     1      -1.523  14.963  24.611  0.00  0.00    +0.000 C 
ATOM     19  O   UNL     1      -2.766  14.610  25.214  0.00  0.00    +0.000 OA
ATOM     20  C   UNL     1      -3.855  14.735  24.302  0.00  0.00    +0.000 C 
ATOM     21  C   UNL     1      -3.690  13.773  23.137  0.00  0.00    +0.000 C 
ENDBRANCH   6  16
BRANCH   8  22
ATOM     22  C   UNL     1      -2.834  11.636  18.141  0.00  0.00    +0.000 A 
ATOM     23  C   UNL     1      -4.116  11.192  17.761  0.00  0.00    +0.000 A 
ATOM     24  N   UNL     1      -4.223  11.010  16.440  0.00  0.00    +0.000 NA
ATOM     25  N   UNL     1      -3.001  11.324  15.980  0.00  0.00    +0.000 N 
ATOM     26  C   UNL     1      -2.139  11.726  16.956  0.00  0.00    +0.000 A 
ATOM     27  H   UNL     1      -2.831  11.252  14.983  0.00  0.00    +0.000 HD
ENDBRANCH   8  22
TORSDOF 2
ENDMDL
MODEL 7
REMARK VINA RESULT:      -6.8      2.768      7.085
REMARK  Name = 
REMARK  3 active torsions:
REMARK  status: ('A' for Active; 'I' for Inactive)
REMARK    1  A    between atoms: C_1  and  N_2
REMARK    2  A    between atoms: C_6  and  C_7
REMARK    3  A    between atoms: C_14  and  C_15
REMARK                            x       y       z     vdW  Elec       q    Type
REMARK                         _______ _______ _______ _____ _____    ______ ____
ROOT
ATOM      1  C   UNL     1       6.359   7.215  17.010  0.00  0.00    +0.000 C 
ATOM      2  N   UNL     1       5.743   6.132  16.278  0.00  0.00    +0.000 N 
ATOM      3  C   UNL     1       4.611   5.417  16.602  0.00  0.00    +0.000 A 
ATOM      4  N   UNL     1       3.669   5.739  17.576  0.00  0.00    +0.000 N 
ATOM      5  N   UNL     1       3.423   7.051  17.858  0.00  0.00    +0.000 NA
ATOM      6  C   UNL     1       2.280   6.972  18.554  0.00  0.00    +0.000 A 
ATOM      7  N   UNL     1       1.868   5.700  18.840  0.00  0.00    +0.000 NA
ATOM      8  C   UNL     1       2.780   4.936  18.264  0.00  0.00    +0.000 A 
ATOM      9  N   UNL     1       4.486   4.356  15.825  0.00  0.00    +0.000 NA
ATOM     10  C   UNL     1       5.503   4.437  14.913  0.00  0.00    +0.000 A 
ATOM     11  C   UNL     1       5.789   3.603  13.821  0.00  0.00    +0.000 A 
ATOM     12  C   UNL     1       6.907   3.888  13.031  0.00  0.00    +0.000 A 
ATOM     13  C   UNL     1       7.738   4.969  13.335  0.00  0.00    +0.000 A 
ATOM     14  C   UNL     1       7.469   5.808  14.424  0.00  0.00    +0.000 A 
ATOM     15  C   UNL     1       6.326   5.524  15.183  0.00  0.00    +0.000 A 
ENDROOT
BRANCH   6  16
ATOM     16  C   UNL     1       1.510   8.163  19.045  0.00  0.00    +0.000 C 
ATOM     17  C   UNL     1       1.890   9.455  18.312  0.00  0.00    +0.000 C 
ATOM     18  C   UNL     1       1.191  10.661  18.927  0.00  0.00    +0.000 C 
ATOM     19  O   UNL     1       1.453  10.738  20.326  0.00  0.00    +0.000 OA
ATOM     20  C   UNL     1       0.941   9.608  21.028  0.00  0.00    +0.000 C 
ATOM     21  C   UNL     1       1.630   8.334  20.564  0.00  0.00    +0.000 C 
ENDBRANCH   6  16
BRANCH   8  22
ATOM     22  C   UNL     1       2.846   3.463  18.471  0.00  0.00    +0.000 A 
ATOM     23  C   UNL     1       3.891   2.640  18.937  0.00  0.00    +0.000 A 
ATOM     24  N   UNL     1       3.522   1.359  19.042  0.00  0.00    +0.000 NA
ATOM     25  N   UNL     1       2.245   1.364  18.626  0.00  0.00    +0.000 N 
ATOM     26  C   UNL     1       1.786   2.603  18.294  0.00  0.00    +0.000 A 
ATOM     27  H   UNL     1       1.743   0.482  18.608  0.00  0.00    +0.000 HD
ENDBRANCH   8  22
TORSDOF 2
ENDMDL
MODEL 8
REMARK VINA RESULT:      -6.8      4.448      9.084
REMARK  Name = 
REMARK  3 active torsions:
REMARK  status: ('A' for Active; 'I' for Inactive)
REMARK    1  A    between atoms: C_1  and  N_2
REMARK    2  A    between atoms: C_6  and  C_7
REMARK    3  A    between atoms: C_14  and  C_15
REMARK                            x       y       z     vdW  Elec       q    Type
REMARK                         _______ _______ _______ _____ _____    ______ ____
ROOT
ATOM      1  C   UNL     1       0.547   7.676  21.726  0.00  0.00    +0.000 C 
ATOM      2  N   UNL     1       1.011   8.253  20.486  0.00  0.00    +0.000 N 
ATOM      3  C   UNL     1       0.501   9.336  19.803  0.00  0.00    +0.000 A 
ATOM      4  N   UNL     1      -0.421  10.265  20.279  0.00  0.00    +0.000 N 
ATOM      5  N   UNL     1      -0.433  10.573  21.607  0.00  0.00    +0.000 NA
ATOM      6  C   UNL     1      -1.176  11.689  21.624  0.00  0.00    +0.000 A 
ATOM      7  N   UNL     1      -1.736  12.023  20.422  0.00  0.00    +0.000 NA
ATOM      8  C   UNL     1      -1.296  11.088  19.598  0.00  0.00    +0.000 A 
ATOM      9  N   UNL     1       1.035   9.426  18.598  0.00  0.00    +0.000 NA
ATOM     10  C   UNL     1       1.982   8.442  18.533  0.00  0.00    +0.000 A 
ATOM     11  C   UNL     1       2.887   8.144  17.502  0.00  0.00    +0.000 A 
ATOM     12  C   UNL     1       3.764   7.066  17.667  0.00  0.00    +0.000 A 
ATOM     13  C   UNL     1       3.725   6.286  18.825  0.00  0.00    +0.000 A 
ATOM     14  C   UNL     1       2.825   6.568  19.861  0.00  0.00    +0.000 A 
ATOM     15  C   UNL     1       1.978   7.671  19.690  0.00  0.00    +0.000 A 
ENDROOT
BRANCH   6  16
ATOM     16  C   UNL     1      -1.439  12.507  22.854  0.00  0.00    +0.000 C 
ATOM     17  C   UNL     1      -2.933  12.621  23.180  0.00  0.00    +0.000 C 
ATOM     18  C   UNL     1      -3.169  13.567  24.350  0.00  0.00    +0.000 C 
ATOM     19  O   UNL     1      -2.574  14.838  24.101  0.00  0.00    +0.000 OA
ATOM     20  C   UNL     1      -1.157  14.747  23.969  0.00  0.00    +0.000 C 
ATOM     21  C   UNL     1      -0.785  13.891  22.769  0.00  0.00    +0.000 C 
ENDBRANCH   6  16
BRANCH   8  22
ATOM     22  C   UNL     1      -1.803  10.937  18.206  0.00  0.00    +0.000 A 
ATOM     23  C   UNL     1      -2.413   9.845  17.557  0.00  0.00    +0.000 A 
ATOM     24  N   UNL     1      -2.787  10.139  16.306  0.00  0.00    +0.000 NA
ATOM     25  N   UNL     1      -2.399  11.416  16.155  0.00  0.00    +0.000 N 
ATOM     26  C   UNL     1      -1.824  11.947  17.270  0.00  0.00    +0.000 A 
ATOM     27  H   UNL     1      -2.571  11.866  15.262  0.00  0.00    +0.000 HD
ENDBRANCH   8  22
TORSDOF 2
ENDMDL
MODEL 9
REMARK VINA RESULT:      -6.7      4.896      9.584
REMARK  Name = 
REMARK  3 active torsions:
REMARK  status: ('A' for Active; 'I' for Inactive)
REMARK    1  A    between atoms: C_1  and  N_2
REMARK    2  A    between atoms: C_6  and  C_7
REMARK    3  A    between atoms: C_14  and  C_15
REMARK                            x       y       z     vdW  Elec       q    Type
REMARK                         _______ _______ _______ _____ _____    ______ ____
ROOT
ATOM      1  C   UNL     1       0.068   8.444  22.239  0.00  0.00    +0.000 C 
ATOM      2  N   UNL     1       0.504   8.939  20.953  0.00  0.00    +0.000 N 
ATOM      3  C   UNL     1       0.049  10.041  20.263  0.00  0.00    +0.000 A 
ATOM      4  N   UNL     1      -0.758  11.063  20.758  0.00  0.00    +0.000 N 
ATOM      5  N   UNL     1      -0.660  11.412  22.073  0.00  0.00    +0.000 NA
ATOM      6  C   UNL     1      -1.300  12.590  22.093  0.00  0.00    +0.000 A 
ATOM      7  N   UNL     1      -1.902  12.936  20.916  0.00  0.00    +0.000 NA
ATOM      8  C   UNL     1      -1.598  11.940  20.101  0.00  0.00    +0.000 A 
ATOM      9  N   UNL     1       0.512  10.047  19.026  0.00  0.00    +0.000 NA
ATOM     10  C   UNL     1       1.364   8.980  18.940  0.00  0.00    +0.000 A 
ATOM     11  C   UNL     1       2.174   8.571  17.870  0.00  0.00    +0.000 A 
ATOM     12  C   UNL     1       2.962   7.424  18.021  0.00  0.00    +0.000 A 
ATOM     13  C   UNL     1       2.927   6.687  19.206  0.00  0.00    +0.000 A 
ATOM     14  C   UNL     1       2.121   7.080  20.283  0.00  0.00    +0.000 A 
ATOM     15  C   UNL     1       1.364   8.249  20.123  0.00  0.00    +0.000 A 
ENDROOT
BRANCH   6  16
ATOM     16  C   UNL     1      -1.413  13.466  23.307  0.00  0.00    +0.000 C 
ATOM     17  C   UNL     1      -2.862  13.635  23.780  0.00  0.00    +0.000 C 
ATOM     18  C   UNL     1      -2.952  14.635  24.925  0.00  0.00    +0.000 C 
ATOM     19  O   UNL     1      -2.357  15.878  24.560  0.00  0.00    +0.000 OA
ATOM     20  C   UNL     1      -0.964  15.742  24.287  0.00  0.00    +0.000 C 
ATOM     21  C   UNL     1      -0.740  14.826  23.093  0.00  0.00    +0.000 C 
ENDBRANCH   6  16
BRANCH   8  22
ATOM     22  C   UNL     1      -2.202  11.793  18.748  0.00  0.00    +0.000 A 
ATOM     23  C   UNL     1      -3.519  11.490  18.351  0.00  0.00    +0.000 A 
ATOM     24  N   UNL     1      -3.669  11.515  17.022  0.00  0.00    +0.000 NA
ATOM     25  N   UNL     1      -2.440  11.818  16.572  0.00  0.00    +0.000 N 
ATOM     26  C   UNL     1      -1.530  12.016  17.567  0.00  0.00    +0.000 A 
ATOM     27  H   UNL     1      -2.301  11.886  15.570  0.00  0.00    +0.000 HD
ENDBRANCH   8  22
TORSDOF 2
ENDMDL
