MODEL 1
REMARK VINA RESULT:      -8.7      0.000      0.000
REMARK  Name = 
REMARK  7 active torsions:
REMARK  status: ('A' for Active; 'I' for Inactive)
REMARK    1  A    between atoms: C_1  and  O_2
REMARK    2  A    between atoms: O_2  and  C_3
REMARK    3  A    between atoms: N_10  and  C_11
REMARK    4  A    between atoms: C_14  and  O_15
REMARK    5  A    between atoms: O_15  and  C_16
REMARK    6  A    between atoms: C_26  and  O_27
REMARK    7  A    between atoms: O_27  and  C_28
REMARK                            x       y       z     vdW  Elec       q    Type
REMARK                         _______ _______ _______ _____ _____    ______ ____
ROOT
ATOM      1  C   UNL     1      -5.148  12.666  19.419  0.00  0.00    +0.000 A 
ATOM      2  C   UNL     1      -5.045  11.941  18.218  0.00  0.00    +0.000 A 
ATOM      3  C   UNL     1      -3.872  11.323  17.808  0.00  0.00    +0.000 A 
ATOM      4  N   UNL     1      -3.893  10.592  16.690  0.00  0.00    +0.000 NA
ATOM      5  C   UNL     1      -2.761   9.957  16.365  0.00  0.00    +0.000 A 
ATOM      6  N   UNL     1      -1.613  10.002  17.045  0.00  0.00    +0.000 NA
ATOM      7  C   UNL     1      -1.595  10.772  18.148  0.00  0.00    +0.000 A 
ATOM      8  N   UNL     1      -0.393  10.868  18.880  0.00  0.00    +0.000 N 
ATOM      9  C   UNL     1      -2.728  11.478  18.590  0.00  0.00    +0.000 A 
ATOM     10  C   UNL     1      -2.801  12.255  19.766  0.00  0.00    +0.000 A 
ATOM     11  C   UNL     1      -4.001  12.839  20.201  0.00  0.00    +0.000 A 
ATOM     12  H   UNL     1      -0.042  11.817  18.896  0.00  0.00    +0.000 HD
ENDROOT
BRANCH   8  13
ATOM     13  C   UNL     1       0.580   9.872  19.075  0.00  0.00    +0.000 A 
ATOM     14  C   UNL     1       0.698   9.246  20.323  0.00  0.00    +0.000 A 
ATOM     15  C   UNL     1       1.523   8.129  20.489  0.00  0.00    +0.000 A 
ATOM     16  C   UNL     1       2.225   7.613  19.401  0.00  0.00    +0.000 A 
ATOM     17  C   UNL     1       2.208   8.296  18.184  0.00  0.00    +0.000 A 
ATOM     18  C   UNL     1       1.369   9.400  18.020  0.00  0.00    +0.000 A 
BRANCH  16  19
ATOM     19  O   UNL     1       2.934   6.454  19.616  0.00  0.00    +0.000 OA
BRANCH  19  20
ATOM     20  C   UNL     1       2.272   5.244  19.641  0.00  0.00    +0.000 A 
ATOM     21  C   UNL     1       2.033   4.664  18.393  0.00  0.00    +0.000 A 
ATOM     22  C   UNL     1       1.343   3.454  18.296  0.00  0.00    +0.000 A 
ATOM     23  C   UNL     1       0.887   2.817  19.451  0.00  0.00    +0.000 A 
ATOM     24  C   UNL     1       1.158   3.368  20.701  0.00  0.00    +0.000 A 
ATOM     25  C   UNL     1       1.876   4.564  20.799  0.00  0.00    +0.000 A 
ENDBRANCH  19  20
ENDBRANCH  16  19
ENDBRANCH   8  13
BRANCH   1  27
ATOM     26  C   UNL     1      -7.504  12.457  19.505  0.00  0.00    +0.000 C 
ATOM     27  O   UNL     1      -6.337  13.222  19.814  0.00  0.00    +0.000 OA
ENDBRANCH   1  27
BRANCH  11  28
ATOM     28  O   UNL     1      -3.842  13.491  21.390  0.00  0.00    +0.000 OA
ATOM     29  C   UNL     1      -3.820  12.777  22.615  0.00  0.00    +0.000 C 
ENDBRANCH  11  28
TORSDOF 5
ENDMDL
MODEL 2
REMARK VINA RESULT:      -8.5      0.492      1.035
REMARK  Name = 
REMARK  7 active torsions:
REMARK  status: ('A' for Active; 'I' for Inactive)
REMARK    1  A    between atoms: C_1  and  O_2
REMARK    2  A    between atoms: O_2  and  C_3
REMARK    3  A    between atoms: N_10  and  C_11
REMARK    4  A    between atoms: C_14  and  O_15
REMARK    5  A    between atoms: O_15  and  C_16
REMARK    6  A    between atoms: C_26  and  O_27
REMARK    7  A    between atoms: O_27  and  C_28
REMARK                            x       y       z     vdW  Elec       q    Type
REMARK                         _______ _______ _______ _____ _____    ______ ____
ROOT
ATOM      1  C   UNL     1      -5.047  12.773  19.640  0.00  0.00    +0.000 A 
ATOM      2  C   UNL     1      -5.006  12.030  18.446  0.00  0.00    +0.000 A 
ATOM      3  C   UNL     1      -3.864  11.384  17.997  0.00  0.00    +0.000 A 
ATOM      4  N   UNL     1      -3.944  10.639  16.892  0.00  0.00    +0.000 NA
ATOM      5  C   UNL     1      -2.839   9.977  16.530  0.00  0.00    +0.000 A 
ATOM      6  N   UNL     1      -1.664  10.009  17.162  0.00  0.00    +0.000 NA
ATOM      7  C   UNL     1      -1.586  10.794  18.252  0.00  0.00    +0.000 A 
ATOM      8  N   UNL     1      -0.353  10.875  18.935  0.00  0.00    +0.000 N 
ATOM      9  C   UNL     1      -2.686  11.527  18.730  0.00  0.00    +0.000 A 
ATOM     10  C   UNL     1      -2.696  12.321  19.898  0.00  0.00    +0.000 A 
ATOM     11  C   UNL     1      -3.866  12.934  20.372  0.00  0.00    +0.000 A 
ATOM     12  H   UNL     1       0.016  11.817  18.923  0.00  0.00    +0.000 HD
ENDROOT
BRANCH   8  13
ATOM     13  C   UNL     1       0.608   9.863  19.104  0.00  0.00    +0.000 A 
ATOM     14  C   UNL     1       0.754   9.241  20.351  0.00  0.00    +0.000 A 
ATOM     15  C   UNL     1       1.565   8.111  20.496  0.00  0.00    +0.000 A 
ATOM     16  C   UNL     1       2.222   7.576  19.390  0.00  0.00    +0.000 A 
ATOM     17  C   UNL     1       2.178   8.253  18.170  0.00  0.00    +0.000 A 
ATOM     18  C   UNL     1       1.354   9.372  18.026  0.00  0.00    +0.000 A 
BRANCH  16  19
ATOM     19  O   UNL     1       2.917   6.406  19.589  0.00  0.00    +0.000 OA
BRANCH  19  20
ATOM     20  C   UNL     1       2.268   5.196  19.451  0.00  0.00    +0.000 A 
ATOM     21  C   UNL     1       1.809   4.622  20.638  0.00  0.00    +0.000 A 
ATOM     22  C   UNL     1       1.164   3.384  20.622  0.00  0.00    +0.000 A 
ATOM     23  C   UNL     1       0.977   2.712  19.414  0.00  0.00    +0.000 A 
ATOM     24  C   UNL     1       1.394   3.297  18.221  0.00  0.00    +0.000 A 
ATOM     25  C   UNL     1       2.012   4.551  18.235  0.00  0.00    +0.000 A 
ENDBRANCH  19  20
ENDBRANCH  16  19
ENDBRANCH   8  13
BRANCH   1  27
ATOM     26  C   UNL     1      -6.479  14.656  19.539  0.00  0.00    +0.000 C 
ATOM     27  O   UNL     1      -6.208  13.358  20.075  0.00  0.00    +0.000 OA
ENDBRANCH   1  27
BRANCH  11  28
ATOM     28  O   UNL     1      -3.646  13.598  21.545  0.00  0.00    +0.000 OA
ATOM     29  C   UNL     1      -3.508  12.893  22.767  0.00  0.00    +0.000 C 
ENDBRANCH  11  28
TORSDOF 5
ENDMDL
MODEL 3
REMARK VINA RESULT:      -8.2      3.750      9.721
REMARK  Name = 
REMARK  7 active torsions:
REMARK  status: ('A' for Active; 'I' for Inactive)
REMARK    1  A    between atoms: C_1  and  O_2
REMARK    2  A    between atoms: O_2  and  C_3
REMARK    3  A    between atoms: N_10  and  C_11
REMARK    4  A    between atoms: C_14  and  O_15
REMARK    5  A    between atoms: O_15  and  C_16
REMARK    6  A    between atoms: C_26  and  O_27
REMARK    7  A    between atoms: O_27  and  C_28
REMARK                            x       y       z     vdW  Elec       q    Type
REMARK                         _______ _______ _______ _____ _____    ______ ____
ROOT
ATOM      1  C   UNL     1       6.421   4.904  16.054  0.00  0.00    +0.000 A 
ATOM      2  C   UNL     1       5.292   4.096  16.281  0.00  0.00    +0.000 A 
ATOM      3  C   UNL     1       4.191   4.525  17.007  0.00  0.00    +0.000 A 
ATOM      4  N   UNL     1       3.133   3.715  17.103  0.00  0.00    +0.000 NA
ATOM      5  C   UNL     1       2.066   4.192  17.753  0.00  0.00    +0.000 A 
ATOM      6  N   UNL     1       1.970   5.392  18.328  0.00  0.00    +0.000 NA
ATOM      7  C   UNL     1       3.055   6.184  18.258  0.00  0.00    +0.000 A 
ATOM      8  N   UNL     1       3.003   7.452  18.876  0.00  0.00    +0.000 N 
ATOM      9  C   UNL     1       4.230   5.791  17.592  0.00  0.00    +0.000 A 
ATOM     10  C   UNL     1       5.383   6.589  17.425  0.00  0.00    +0.000 A 
ATOM     11  C   UNL     1       6.474   6.168  16.650  0.00  0.00    +0.000 A 
ATOM     12  H   UNL     1       3.688   7.532  19.616  0.00  0.00    +0.000 HD
ENDROOT
BRANCH   8  13
ATOM     13  C   UNL     1       1.895   8.307  18.996  0.00  0.00    +0.000 A 
ATOM     14  C   UNL     1       1.308   8.517  20.251  0.00  0.00    +0.000 A 
ATOM     15  C   UNL     1       0.331   9.501  20.429  0.00  0.00    +0.000 A 
ATOM     16  C   UNL     1      -0.055  10.304  19.357  0.00  0.00    +0.000 A 
ATOM     17  C   UNL     1       0.435  10.028  18.080  0.00  0.00    +0.000 A 
ATOM     18  C   UNL     1       1.423   9.055  17.911  0.00  0.00    +0.000 A 
BRANCH  16  19
ATOM     19  O   UNL     1      -0.944  11.317  19.631  0.00  0.00    +0.000 OA
BRANCH  19  20
ATOM     20  C   UNL     1      -2.210  11.279  19.082  0.00  0.00    +0.000 A 
ATOM     21  C   UNL     1      -3.114  12.213  19.592  0.00  0.00    +0.000 A 
ATOM     22  C   UNL     1      -4.432  12.246  19.132  0.00  0.00    +0.000 A 
ATOM     23  C   UNL     1      -4.853  11.340  18.158  0.00  0.00    +0.000 A 
ATOM     24  C   UNL     1      -3.946  10.434  17.614  0.00  0.00    +0.000 A 
ATOM     25  C   UNL     1      -2.619  10.423  18.053  0.00  0.00    +0.000 A 
ENDBRANCH  19  20
ENDBRANCH  16  19
ENDBRANCH   8  13
BRANCH   1  27
ATOM     26  C   UNL     1       7.388   4.774  13.897  0.00  0.00    +0.000 C 
ATOM     27  O   UNL     1       7.470   4.462  15.290  0.00  0.00    +0.000 OA
ENDBRANCH   1  27
BRANCH  11  28
ATOM     28  O   UNL     1       7.444   7.128  16.584  0.00  0.00    +0.000 OA
ATOM     29  C   UNL     1       7.766   7.916  17.718  0.00  0.00    +0.000 C 
ENDBRANCH  11  28
TORSDOF 5
ENDMDL
MODEL 4
REMARK VINA RESULT:      -8.2      4.054      9.883
REMARK  Name = 
REMARK  7 active torsions:
REMARK  status: ('A' for Active; 'I' for Inactive)
REMARK    1  A    between atoms: C_1  and  O_2
REMARK    2  A    between atoms: O_2  and  C_3
REMARK    3  A    between atoms: N_10  and  C_11
REMARK    4  A    between atoms: C_14  and  O_15
REMARK    5  A    between atoms: O_15  and  C_16
REMARK    6  A    between atoms: C_26  and  O_27
REMARK    7  A    between atoms: O_27  and  C_28
REMARK                            x       y       z     vdW  Elec       q    Type
REMARK                         _______ _______ _______ _____ _____    ______ ____
ROOT
ATOM      1  C   UNL     1       6.408   4.918  16.021  0.00  0.00    +0.000 A 
ATOM      2  C   UNL     1       5.296   4.089  16.253  0.00  0.00    +0.000 A 
ATOM      3  C   UNL     1       4.206   4.483  17.014  0.00  0.00    +0.000 A 
ATOM      4  N   UNL     1       3.163   3.655  17.114  0.00  0.00    +0.000 NA
ATOM      5  C   UNL     1       2.104   4.100  17.799  0.00  0.00    +0.000 A 
ATOM      6  N   UNL     1       2.003   5.285  18.405  0.00  0.00    +0.000 NA
ATOM      7  C   UNL     1       3.075   6.094  18.330  0.00  0.00    +0.000 A 
ATOM      8  N   UNL     1       3.019   7.346  18.980  0.00  0.00    +0.000 N 
ATOM      9  C   UNL     1       4.240   5.735  17.629  0.00  0.00    +0.000 A 
ATOM     10  C   UNL     1       5.377   6.554  17.455  0.00  0.00    +0.000 A 
ATOM     11  C   UNL     1       6.456   6.169  16.646  0.00  0.00    +0.000 A 
ATOM     12  H   UNL     1       3.719   7.419  19.706  0.00  0.00    +0.000 HD
ENDROOT
BRANCH   8  13
ATOM     13  C   UNL     1       1.901   8.181  19.146  0.00  0.00    +0.000 A 
ATOM     14  C   UNL     1       1.316   8.322  20.411  0.00  0.00    +0.000 A 
ATOM     15  C   UNL     1       0.329   9.284  20.641  0.00  0.00    +0.000 A 
ATOM     16  C   UNL     1      -0.070  10.134  19.611  0.00  0.00    +0.000 A 
ATOM     17  C   UNL     1       0.418   9.928  18.321  0.00  0.00    +0.000 A 
ATOM     18  C   UNL     1       1.417   8.976  18.100  0.00  0.00    +0.000 A 
BRANCH  16  19
ATOM     19  O   UNL     1      -0.970  11.122  19.938  0.00  0.00    +0.000 OA
BRANCH  19  20
ATOM     20  C   UNL     1      -0.557  12.195  20.701  0.00  0.00    +0.000 A 
ATOM     21  C   UNL     1      -1.264  12.394  21.889  0.00  0.00    +0.000 A 
ATOM     22  C   UNL     1      -0.951  13.468  22.726  0.00  0.00    +0.000 A 
ATOM     23  C   UNL     1       0.072  14.349  22.376  0.00  0.00    +0.000 A 
ATOM     24  C   UNL     1       0.809  14.132  21.214  0.00  0.00    +0.000 A 
ATOM     25  C   UNL     1       0.516  13.040  20.393  0.00  0.00    +0.000 A 
ENDBRANCH  19  20
ENDBRANCH  16  19
ENDBRANCH   8  13
BRANCH   1  27
ATOM     26  C   UNL     1       7.293   4.790  13.829  0.00  0.00    +0.000 C 
ATOM     27  O   UNL     1       7.446   4.511  15.223  0.00  0.00    +0.000 OA
ENDBRANCH   1  27
BRANCH  11  28
ATOM     28  O   UNL     1       7.410   7.144  16.582  0.00  0.00    +0.000 OA
ATOM     29  C   UNL     1       7.684   7.969  17.702  0.00  0.00    +0.000 C 
ENDBRANCH  11  28
TORSDOF 5
ENDMDL
MODEL 5
REMARK VINA RESULT:      -8.1      0.712      1.241
REMARK  Name = 
REMARK  7 active torsions:
REMARK  status: ('A' for Active; 'I' for Inactive)
REMARK    1  A    between atoms: C_1  and  O_2
REMARK    2  A    between atoms: O_2  and  C_3
REMARK    3  A    between atoms: N_10  and  C_11
REMARK    4  A    between atoms: C_14  and  O_15
REMARK    5  A    between atoms: O_15  and  C_16
REMARK    6  A    between atoms: C_26  and  O_27
REMARK    7  A    between atoms: O_27  and  C_28
REMARK                            x       y       z     vdW  Elec       q    Type
REMARK                         _______ _______ _______ _____ _____    ______ ____
ROOT
ATOM      1  C   UNL     1      -5.284  12.496  19.296  0.00  0.00    +0.000 A 
ATOM      2  C   UNL     1      -5.112  11.797  18.087  0.00  0.00    +0.000 A 
ATOM      3  C   UNL     1      -3.908  11.218  17.715  0.00  0.00    +0.000 A 
ATOM      4  N   UNL     1      -3.864  10.507  16.585  0.00  0.00    +0.000 NA
ATOM      5  C   UNL     1      -2.703   9.908  16.295  0.00  0.00    +0.000 A 
ATOM      6  N   UNL     1      -1.586   9.971  17.022  0.00  0.00    +0.000 NA
ATOM      7  C   UNL     1      -1.633  10.721  18.138  0.00  0.00    +0.000 A 
ATOM      8  N   UNL     1      -0.464  10.834  18.922  0.00  0.00    +0.000 N 
ATOM      9  C   UNL     1      -2.801  11.388  18.546  0.00  0.00    +0.000 A 
ATOM     10  C   UNL     1      -2.943  12.141  19.732  0.00  0.00    +0.000 A 
ATOM     11  C   UNL     1      -4.175  12.684  20.127  0.00  0.00    +0.000 A 
ATOM     12  H   UNL     1      -0.140  11.791  18.968  0.00  0.00    +0.000 HD
ENDROOT
BRANCH   8  13
ATOM     13  C   UNL     1       0.526   9.860  19.139  0.00  0.00    +0.000 A 
ATOM     14  C   UNL     1       0.653   9.263  20.399  0.00  0.00    +0.000 A 
ATOM     15  C   UNL     1       1.499   8.165  20.590  0.00  0.00    +0.000 A 
ATOM     16  C   UNL     1       2.211   7.639  19.514  0.00  0.00    +0.000 A 
ATOM     17  C   UNL     1       2.185   8.295  18.283  0.00  0.00    +0.000 A 
ATOM     18  C   UNL     1       1.325   9.381  18.094  0.00  0.00    +0.000 A 
BRANCH  16  19
ATOM     19  O   UNL     1       2.942   6.498  19.755  0.00  0.00    +0.000 OA
BRANCH  19  20
ATOM     20  C   UNL     1       2.862   5.440  18.873  0.00  0.00    +0.000 A 
ATOM     21  C   UNL     1       1.705   4.664  18.969  0.00  0.00    +0.000 A 
ATOM     22  C   UNL     1       1.531   3.549  18.145  0.00  0.00    +0.000 A 
ATOM     23  C   UNL     1       2.518   3.204  17.222  0.00  0.00    +0.000 A 
ATOM     24  C   UNL     1       3.655   3.998  17.091  0.00  0.00    +0.000 A 
ATOM     25  C   UNL     1       3.814   5.131  17.894  0.00  0.00    +0.000 A 
ENDBRANCH  19  20
ENDBRANCH  16  19
ENDBRANCH   8  13
BRANCH   1  27
ATOM     26  C   UNL     1      -7.358  12.126  20.376  0.00  0.00    +0.000 C 
ATOM     27  O   UNL     1      -6.502  13.014  19.652  0.00  0.00    +0.000 OA
ENDBRANCH   1  27
BRANCH  11  28
ATOM     28  O   UNL     1      -4.081  13.318  21.333  0.00  0.00    +0.000 OA
ATOM     29  C   UNL     1      -3.345  12.746  22.402  0.00  0.00    +0.000 C 
ENDBRANCH  11  28
TORSDOF 5
ENDMDL
MODEL 6
REMARK VINA RESULT:      -8.1      4.123      9.948
REMARK  Name = 
REMARK  7 active torsions:
REMARK  status: ('A' for Active; 'I' for Inactive)
REMARK    1  A    between atoms: C_1  and  O_2
REMARK    2  A    between atoms: O_2  and  C_3
REMARK    3  A    between atoms: N_10  and  C_11
REMARK    4  A    between atoms: C_14  and  O_15
REMARK    5  A    between atoms: O_15  and  C_16
REMARK    6  A    between atoms: C_26  and  O_27
REMARK    7  A    between atoms: O_27  and  C_28
REMARK                            x       y       z     vdW  Elec       q    Type
REMARK                         _______ _______ _______ _____ _____    ______ ____
ROOT
ATOM      1  C   UNL     1       6.453   4.799  15.970  0.00  0.00    +0.000 A 
ATOM      2  C   UNL     1       5.310   4.002  16.159  0.00  0.00    +0.000 A 
ATOM      3  C   UNL     1       4.225   4.407  16.922  0.00  0.00    +0.000 A 
ATOM      4  N   UNL     1       3.153   3.613  16.980  0.00  0.00    +0.000 NA
ATOM      5  C   UNL     1       2.101   4.070  17.669  0.00  0.00    +0.000 A 
ATOM      6  N   UNL     1       2.034   5.235  18.317  0.00  0.00    +0.000 NA
ATOM      7  C   UNL     1       3.135   6.008  18.283  0.00  0.00    +0.000 A 
ATOM      8  N   UNL     1       3.114   7.237  18.976  0.00  0.00    +0.000 N 
ATOM      9  C   UNL     1       4.294   5.634  17.582  0.00  0.00    +0.000 A 
ATOM     10  C   UNL     1       5.462   6.418  17.450  0.00  0.00    +0.000 A 
ATOM     11  C   UNL     1       6.537   6.024  16.640  0.00  0.00    +0.000 A 
ATOM     12  H   UNL     1       3.807   7.260  19.712  0.00  0.00    +0.000 HD
ENDROOT
BRANCH   8  13
ATOM     13  C   UNL     1       2.024   8.105  19.160  0.00  0.00    +0.000 A 
ATOM     14  C   UNL     1       1.452   8.249  20.431  0.00  0.00    +0.000 A 
ATOM     15  C   UNL     1       0.497   9.239  20.679  0.00  0.00    +0.000 A 
ATOM     16  C   UNL     1       0.117  10.113  19.661  0.00  0.00    +0.000 A 
ATOM     17  C   UNL     1       0.590   9.906  18.365  0.00  0.00    +0.000 A 
ATOM     18  C   UNL     1       1.557   8.926  18.127  0.00  0.00    +0.000 A 
BRANCH  16  19
ATOM     19  O   UNL     1      -0.750  11.124  20.005  0.00  0.00    +0.000 OA
BRANCH  19  20
ATOM     20  C   UNL     1      -0.284  12.420  20.092  0.00  0.00    +0.000 A 
ATOM     21  C   UNL     1      -0.704  13.279  19.074  0.00  0.00    +0.000 A 
ATOM     22  C   UNL     1      -0.270  14.606  19.045  0.00  0.00    +0.000 A 
ATOM     23  C   UNL     1       0.590  15.080  20.035  0.00  0.00    +0.000 A 
ATOM     24  C   UNL     1       0.980  14.242  21.077  0.00  0.00    +0.000 A 
ATOM     25  C   UNL     1       0.520  12.922  21.123  0.00  0.00    +0.000 A 
ENDBRANCH  19  20
ENDBRANCH  16  19
ENDBRANCH   8  13
BRANCH   1  27
ATOM     26  C   UNL     1       7.386   4.764  13.794  0.00  0.00    +0.000 C 
ATOM     27  O   UNL     1       7.486   4.385  15.169  0.00  0.00    +0.000 OA
ENDBRANCH   1  27
BRANCH  11  28
ATOM     28  O   UNL     1       7.525   6.967  16.622  0.00  0.00    +0.000 OA
ATOM     29  C   UNL     1       7.501   8.065  17.519  0.00  0.00    +0.000 C 
ENDBRANCH  11  28
TORSDOF 5
ENDMDL
MODEL 7
REMARK VINA RESULT:      -8.0      3.566      9.533
REMARK  Name = 
REMARK  7 active torsions:
REMARK  status: ('A' for Active; 'I' for Inactive)
REMARK    1  A    between atoms: C_1  and  O_2
REMARK    2  A    between atoms: O_2  and  C_3
REMARK    3  A    between atoms: N_10  and  C_11
REMARK    4  A    between atoms: C_14  and  O_15
REMARK    5  A    between atoms: O_15  and  C_16
REMARK    6  A    between atoms: C_26  and  O_27
REMARK    7  A    between atoms: O_27  and  C_28
REMARK                            x       y       z     vdW  Elec       q    Type
REMARK                         _______ _______ _______ _____ _____    ______ ____
ROOT
ATOM      1  C   UNL     1       5.929   4.513  16.100  0.00  0.00    +0.000 A 
ATOM      2  C   UNL     1       4.720   3.842  16.362  0.00  0.00    +0.000 A 
ATOM      3  C   UNL     1       3.712   4.383  17.147  0.00  0.00    +0.000 A 
ATOM      4  N   UNL     1       2.569   3.705  17.275  0.00  0.00    +0.000 NA
ATOM      5  C   UNL     1       1.597   4.291  17.983  0.00  0.00    +0.000 A 
ATOM      6  N   UNL     1       1.673   5.480  18.585  0.00  0.00    +0.000 NA
ATOM      7  C   UNL     1       2.843   6.136  18.480  0.00  0.00    +0.000 A 
ATOM      8  N   UNL     1       2.972   7.385  19.124  0.00  0.00    +0.000 N 
ATOM      9  C   UNL     1       3.930   5.620  17.753  0.00  0.00    +0.000 A 
ATOM     10  C   UNL     1       5.164   6.276  17.549  0.00  0.00    +0.000 A 
ATOM     11  C   UNL     1       6.161   5.746  16.717  0.00  0.00    +0.000 A 
ATOM     12  H   UNL     1       3.693   7.363  19.833  0.00  0.00    +0.000 HD
ENDROOT
BRANCH   8  13
ATOM     13  C   UNL     1       1.983   8.365  19.312  0.00  0.00    +0.000 A 
ATOM     14  C   UNL     1       1.676   9.256  18.275  0.00  0.00    +0.000 A 
ATOM     15  C   UNL     1       0.574  10.112  18.369  0.00  0.00    +0.000 A 
ATOM     16  C   UNL     1      -0.247  10.071  19.494  0.00  0.00    +0.000 A 
ATOM     17  C   UNL     1       0.114   9.275  20.581  0.00  0.00    +0.000 A 
ATOM     18  C   UNL     1       1.206   8.409  20.476  0.00  0.00    +0.000 A 
BRANCH  16  19
ATOM     19  O   UNL     1      -1.369  10.867  19.470  0.00  0.00    +0.000 OA
BRANCH  19  20
ATOM     20  C   UNL     1      -2.204  10.835  18.373  0.00  0.00    +0.000 A 
ATOM     21  C   UNL     1      -1.853   9.920  17.378  0.00  0.00    +0.000 A 
ATOM     22  C   UNL     1      -2.611   9.822  16.208  0.00  0.00    +0.000 A 
ATOM     23  C   UNL     1      -3.724  10.643  16.028  0.00  0.00    +0.000 A 
ATOM     24  C   UNL     1      -4.104  11.528  17.034  0.00  0.00    +0.000 A 
ATOM     25  C   UNL     1      -3.364  11.603  18.217  0.00  0.00    +0.000 A 
ENDBRANCH  19  20
ENDBRANCH  16  19
ENDBRANCH   8  13
BRANCH   1  27
ATOM     26  C   UNL     1       6.859   4.422  13.925  0.00  0.00    +0.000 C 
ATOM     27  O   UNL     1       6.882   3.966  15.280  0.00  0.00    +0.000 OA
ENDBRANCH   1  27
BRANCH  11  28
ATOM     28  O   UNL     1       7.237   6.583  16.625  0.00  0.00    +0.000 OA
ATOM     29  C   UNL     1       7.371   7.695  17.494  0.00  0.00    +0.000 C 
ENDBRANCH  11  28
TORSDOF 5
ENDMDL
MODEL 8
REMARK VINA RESULT:      -7.9      0.794      1.118
REMARK  Name = 
REMARK  7 active torsions:
REMARK  status: ('A' for Active; 'I' for Inactive)
REMARK    1  A    between atoms: C_1  and  O_2
REMARK    2  A    between atoms: O_2  and  C_3
REMARK    3  A    between atoms: N_10  and  C_11
REMARK    4  A    between atoms: C_14  and  O_15
REMARK    5  A    between atoms: O_15  and  C_16
REMARK    6  A    between atoms: C_26  and  O_27
REMARK    7  A    between atoms: O_27  and  C_28
REMARK                            x       y       z     vdW  Elec       q    Type
REMARK                         _______ _______ _______ _____ _____    ______ ____
ROOT
ATOM      1  C   UNL     1      -4.907  12.899  19.796  0.00  0.00    +0.000 A 
ATOM      2  C   UNL     1      -4.924  12.092  18.643  0.00  0.00    +0.000 A 
ATOM      3  C   UNL     1      -3.811  11.402  18.188  0.00  0.00    +0.000 A 
ATOM      4  N   UNL     1      -3.945  10.600  17.129  0.00  0.00    +0.000 NA
ATOM      5  C   UNL     1      -2.866   9.899  16.763  0.00  0.00    +0.000 A 
ATOM      6  N   UNL     1      -1.667   9.944  17.347  0.00  0.00    +0.000 NA
ATOM      7  C   UNL     1      -1.534  10.784  18.390  0.00  0.00    +0.000 A 
ATOM      8  N   UNL     1      -0.275  10.879  19.020  0.00  0.00    +0.000 N 
ATOM      9  C   UNL     1      -2.603  11.563  18.867  0.00  0.00    +0.000 A 
ATOM     10  C   UNL     1      -2.556  12.419  19.990  0.00  0.00    +0.000 A 
ATOM     11  C   UNL     1      -3.696  13.077  20.473  0.00  0.00    +0.000 A 
ATOM     12  H   UNL     1       0.109  11.813  18.943  0.00  0.00    +0.000 HD
ENDROOT
BRANCH   8  13
ATOM     13  C   UNL     1       0.674   9.861  19.208  0.00  0.00    +0.000 A 
ATOM     14  C   UNL     1       0.824   9.270  20.469  0.00  0.00    +0.000 A 
ATOM     15  C   UNL     1       1.622   8.134  20.638  0.00  0.00    +0.000 A 
ATOM     16  C   UNL     1       2.263   7.562  19.541  0.00  0.00    +0.000 A 
ATOM     17  C   UNL     1       2.218   8.207  18.304  0.00  0.00    +0.000 A 
ATOM     18  C   UNL     1       1.405   9.332  18.137  0.00  0.00    +0.000 A 
BRANCH  16  19
ATOM     19  O   UNL     1       2.946   6.389  19.765  0.00  0.00    +0.000 OA
BRANCH  19  20
ATOM     20  C   UNL     1       2.726   5.305  18.940  0.00  0.00    +0.000 A 
ATOM     21  C   UNL     1       3.786   4.968  18.095  0.00  0.00    +0.000 A 
ATOM     22  C   UNL     1       3.663   3.906  17.196  0.00  0.00    +0.000 A 
ATOM     23  C   UNL     1       2.477   3.176  17.139  0.00  0.00    +0.000 A 
ATOM     24  C   UNL     1       1.432   3.478  18.008  0.00  0.00    +0.000 A 
ATOM     25  C   UNL     1       1.566   4.522  18.929  0.00  0.00    +0.000 A 
ENDBRANCH  19  20
ENDBRANCH  16  19
ENDBRANCH   8  13
BRANCH   1  27
ATOM     26  C   UNL     1      -6.977  12.691  20.925  0.00  0.00    +0.000 C 
ATOM     27  O   UNL     1      -6.040  13.528  20.242  0.00  0.00    +0.000 OA
ENDBRANCH   1  27
BRANCH  11  28
ATOM     28  O   UNL     1      -3.420  13.800  21.599  0.00  0.00    +0.000 OA
ATOM     29  C   UNL     1      -3.390  13.179  22.874  0.00  0.00    +0.000 C 
ENDBRANCH  11  28
TORSDOF 5
ENDMDL
MODEL 9
REMARK VINA RESULT:      -7.8      1.064      1.533
REMARK  Name = 
REMARK  7 active torsions:
REMARK  status: ('A' for Active; 'I' for Inactive)
REMARK    1  A    between atoms: C_1  and  O_2
REMARK    2  A    between atoms: O_2  and  C_3
REMARK    3  A    between atoms: N_10  and  C_11
REMARK    4  A    between atoms: C_14  and  O_15
REMARK    5  A    between atoms: O_15  and  C_16
REMARK    6  A    between atoms: C_26  and  O_27
REMARK    7  A    between atoms: O_27  and  C_28
REMARK                            x       y       z     vdW  Elec       q    Type
REMARK                         _______ _______ _______ _____ _____    ______ ____
ROOT
ATOM      1  C   UNL     1      -6.255  12.489  18.362  0.00  0.00    +0.000 A 
ATOM      2  C   UNL     1      -5.796  11.884  17.178  0.00  0.00    +0.000 A 
ATOM      3  C   UNL     1      -4.490  11.449  17.010  0.00  0.00    +0.000 A 
ATOM      4  N   UNL     1      -4.168  10.816  15.879  0.00  0.00    +0.000 NA
ATOM      5  C   UNL     1      -2.917  10.352  15.784  0.00  0.00    +0.000 A 
ATOM      6  N   UNL     1      -1.960  10.479  16.706  0.00  0.00    +0.000 NA
ATOM      7  C   UNL     1      -2.286  11.152  17.825  0.00  0.00    +0.000 A 
ATOM      8  N   UNL     1      -1.296  11.332  18.814  0.00  0.00    +0.000 N 
ATOM      9  C   UNL     1      -3.574  11.677  18.037  0.00  0.00    +0.000 A 
ATOM     10  C   UNL     1      -4.006  12.339  19.207  0.00  0.00    +0.000 A 
ATOM     11  C   UNL     1      -5.339  12.734  19.391  0.00  0.00    +0.000 A 
ATOM     12  H   UNL     1      -1.090  12.312  18.959  0.00  0.00    +0.000 HD
ENDROOT
BRANCH   8  13
ATOM     13  C   UNL     1      -0.262  10.449  19.169  0.00  0.00    +0.000 A 
ATOM     14  C   UNL     1      -0.277   9.824  20.423  0.00  0.00    +0.000 A 
ATOM     15  C   UNL     1       0.631   8.805  20.726  0.00  0.00    +0.000 A 
ATOM     16  C   UNL     1       1.552   8.384  19.769  0.00  0.00    +0.000 A 
ATOM     17  C   UNL     1       1.655   9.075  18.562  0.00  0.00    +0.000 A 
ATOM     18  C   UNL     1       0.735  10.081  18.257  0.00  0.00    +0.000 A 
BRANCH  16  19
ATOM     19  O   UNL     1       2.343   7.309  20.103  0.00  0.00    +0.000 OA
BRANCH  19  20
ATOM     20  C   UNL     1       2.052   6.062  19.588  0.00  0.00    +0.000 A 
ATOM     21  C   UNL     1       1.581   5.126  20.511  0.00  0.00    +0.000 A 
ATOM     22  C   UNL     1       1.282   3.823  20.106  0.00  0.00    +0.000 A 
ATOM     23  C   UNL     1       1.456   3.450  18.773  0.00  0.00    +0.000 A 
ATOM     24  C   UNL     1       1.884   4.390  17.840  0.00  0.00    +0.000 A 
ATOM     25  C   UNL     1       2.154   5.702  18.239  0.00  0.00    +0.000 A 
ENDBRANCH  19  20
ENDBRANCH  16  19
ENDBRANCH   8  13
BRANCH   1  27
ATOM     26  C   UNL     1      -7.916  14.115  17.915  0.00  0.00    +0.000 C 
ATOM     27  O   UNL     1      -7.566  12.862  18.509  0.00  0.00    +0.000 OA
ENDBRANCH   1  27
BRANCH  11  28
ATOM     28  O   UNL     1      -5.532  13.300  20.619  0.00  0.00    +0.000 OA
ATOM     29  C   UNL     1      -4.473  13.963  21.290  0.00  0.00    +0.000 C 
ENDBRANCH  11  28
TORSDOF 5
ENDMDL
