MODEL 1
REMARK VINA RESULT:      -7.1      0.000      0.000
REMARK  Name = 
REMARK  9 active torsions:
REMARK  status: ('A' for Active; 'I' for Inactive)
REMARK    1  A    between atoms: C_1  and  C_2
REMARK    2  A    between atoms: C_2  and  C_3
REMARK    3  A    between atoms: C_3  and  C_4
REMARK    4  A    between atoms: C_4  and  N_5
REMARK    5  A    between atoms: C_6  and  C_8
REMARK    6  A    between atoms: C_8  and  N_9
REMARK    7  A    between atoms: N_9  and  C_10
REMARK    8  A    between atoms: N_9  and  S_17
REMARK    9  A    between atoms: S_17  and  C_18
REMARK                            x       y       z     vdW  Elec       q    Type
REMARK                         _______ _______ _______ _____ _____    ______ ____
ROOT
ATOM      1  N   UNL     1       5.681   4.945  17.060  0.00  0.00    +0.000 N 
ENDROOT
BRANCH   1   2
ATOM      2  C   UNL     1       4.375   4.487  17.455  0.00  0.00    +0.000 A 
ATOM      3  C   UNL     1       3.350   5.423  17.631  0.00  0.00    +0.000 A 
ATOM      4  C   UNL     1       2.085   5.011  18.066  0.00  0.00    +0.000 A 
ATOM      5  C   UNL     1       1.841   3.660  18.310  0.00  0.00    +0.000 A 
ATOM      6  C   UNL     1       2.855   2.735  18.097  0.00  0.00    +0.000 A 
ATOM      7  F   UNL     1       2.620   1.436  18.324  0.00  0.00    +0.000 F 
ATOM      8  C   UNL     1       4.117   3.132  17.664  0.00  0.00    +0.000 A 
ENDBRANCH   1   2
BRANCH   1   9
ATOM      9  S   UNL     1       6.831   5.193  18.275  0.00  0.00    +0.000 S 
ATOM     10  C   UNL     1       7.444   6.833  17.924  0.00  0.00    +0.000 C 
ATOM     11  O   UNL     1       6.185   5.220  19.568  0.00  0.00    +0.000 OA
ATOM     12  O   UNL     1       7.925   4.275  18.014  0.00  0.00    +0.000 OA
ENDBRANCH   1   9
BRANCH   1  13
ATOM     13  C   UNL     1       5.774   5.760  15.826  0.00  0.00    +0.000 C 
BRANCH  13  15
ATOM     14  N   UNL     1       5.952   4.323  13.846  0.00  0.00    +0.000 N 
ATOM     15  C   UNL     1       6.620   5.146  14.723  0.00  0.00    +0.000 C 
ATOM     16  O   UNL     1       7.838   5.311  14.685  0.00  0.00    +0.000 OA
ATOM     17  H   UNL     1       4.932   4.286  13.881  0.00  0.00    +0.000 HD
BRANCH  14  18
ATOM     18  C   UNL     1       6.635   3.546  12.830  0.00  0.00    +0.000 C 
BRANCH  18  19
ATOM     19  C   UNL     1       5.667   2.747  11.954  0.00  0.00    +0.000 C 
BRANCH  19  21
ATOM     20  C   UNL     1       6.191   0.352  11.332  0.00  0.00    +0.000 C 
ATOM     21  C   UNL     1       6.392   1.818  10.976  0.00  0.00    +0.000 C 
ENDBRANCH  19  21
ENDBRANCH  18  19
ENDBRANCH  14  18
ENDBRANCH  13  15
ENDBRANCH   1  13
TORSDOF 7
ENDMDL
MODEL 2
REMARK VINA RESULT:      -7.0      1.791      1.956
REMARK  Name = 
REMARK  9 active torsions:
REMARK  status: ('A' for Active; 'I' for Inactive)
REMARK    1  A    between atoms: C_1  and  C_2
REMARK    2  A    between atoms: C_2  and  C_3
REMARK    3  A    between atoms: C_3  and  C_4
REMARK    4  A    between atoms: C_4  and  N_5
REMARK    5  A    between atoms: C_6  and  C_8
REMARK    6  A    between atoms: C_8  and  N_9
REMARK    7  A    between atoms: N_9  and  C_10
REMARK    8  A    between atoms: N_9  and  S_17
REMARK    9  A    between atoms: S_17  and  C_18
REMARK                            x       y       z     vdW  Elec       q    Type
REMARK                         _______ _______ _______ _____ _____    ______ ____
ROOT
ATOM      1  N   UNL     1       5.644   5.590  18.151  0.00  0.00    +0.000 N 
ENDROOT
BRANCH   1   2
ATOM      2  C   UNL     1       4.540   5.108  18.936  0.00  0.00    +0.000 A 
ATOM      3  C   UNL     1       3.544   6.006  19.334  0.00  0.00    +0.000 A 
ATOM      4  C   UNL     1       2.486   5.576  20.143  0.00  0.00    +0.000 A 
ATOM      5  C   UNL     1       2.416   4.241  20.542  0.00  0.00    +0.000 A 
ATOM      6  C   UNL     1       3.391   3.349  20.111  0.00  0.00    +0.000 A 
ATOM      7  F   UNL     1       3.322   2.066  20.488  0.00  0.00    +0.000 F 
ATOM      8  C   UNL     1       4.447   3.766  19.306  0.00  0.00    +0.000 A 
ENDBRANCH   1   2
BRANCH   1   9
ATOM      9  S   UNL     1       7.195   5.469  18.812  0.00  0.00    +0.000 S 
ATOM     10  C   UNL     1       7.952   7.021  18.355  0.00  0.00    +0.000 C 
ATOM     11  O   UNL     1       7.114   5.415  20.254  0.00  0.00    +0.000 OA
ATOM     12  O   UNL     1       7.892   4.434  18.071  0.00  0.00    +0.000 OA
ENDBRANCH   1   9
BRANCH   1  13
ATOM     13  C   UNL     1       5.372   6.685  17.190  0.00  0.00    +0.000 C 
BRANCH  13  15
ATOM     14  N   UNL     1       6.287   5.193  15.471  0.00  0.00    +0.000 N 
ATOM     15  C   UNL     1       5.502   6.293  15.728  0.00  0.00    +0.000 C 
ATOM     16  O   UNL     1       5.007   6.980  14.836  0.00  0.00    +0.000 OA
ATOM     17  H   UNL     1       6.607   4.620  16.254  0.00  0.00    +0.000 HD
BRANCH  14  18
ATOM     18  C   UNL     1       6.633   4.776  14.126  0.00  0.00    +0.000 C 
BRANCH  18  19
ATOM     19  C   UNL     1       5.820   3.565  13.660  0.00  0.00    +0.000 C 
BRANCH  19  21
ATOM     20  C   UNL     1       4.515   3.239  11.519  0.00  0.00    +0.000 C 
ATOM     21  C   UNL     1       5.897   3.355  12.145  0.00  0.00    +0.000 C 
ENDBRANCH  19  21
ENDBRANCH  18  19
ENDBRANCH  14  18
ENDBRANCH  13  15
ENDBRANCH   1  13
TORSDOF 7
ENDMDL
MODEL 3
REMARK VINA RESULT:      -7.0      0.914      1.188
REMARK  Name = 
REMARK  9 active torsions:
REMARK  status: ('A' for Active; 'I' for Inactive)
REMARK    1  A    between atoms: C_1  and  C_2
REMARK    2  A    between atoms: C_2  and  C_3
REMARK    3  A    between atoms: C_3  and  C_4
REMARK    4  A    between atoms: C_4  and  N_5
REMARK    5  A    between atoms: C_6  and  C_8
REMARK    6  A    between atoms: C_8  and  N_9
REMARK    7  A    between atoms: N_9  and  C_10
REMARK    8  A    between atoms: N_9  and  S_17
REMARK    9  A    between atoms: S_17  and  C_18
REMARK                            x       y       z     vdW  Elec       q    Type
REMARK                         _______ _______ _______ _____ _____    ______ ____
ROOT
ATOM      1  N   UNL     1       5.960   4.985  16.966  0.00  0.00    +0.000 N 
ENDROOT
BRANCH   1   2
ATOM      2  C   UNL     1       4.593   4.680  17.294  0.00  0.00    +0.000 A 
ATOM      3  C   UNL     1       3.746   5.714  17.707  0.00  0.00    +0.000 A 
ATOM      4  C   UNL     1       2.426   5.438  18.083  0.00  0.00    +0.000 A 
ATOM      5  C   UNL     1       1.948   4.128  18.030  0.00  0.00    +0.000 A 
ATOM      6  C   UNL     1       2.787   3.115  17.583  0.00  0.00    +0.000 A 
ATOM      7  F   UNL     1       2.329   1.858  17.525  0.00  0.00    +0.000 F 
ATOM      8  C   UNL     1       4.101   3.377  17.206  0.00  0.00    +0.000 A 
ENDBRANCH   1   2
BRANCH   1   9
ATOM      9  S   UNL     1       7.104   4.917  18.210  0.00  0.00    +0.000 S 
ATOM     10  C   UNL     1       7.681   6.603  18.322  0.00  0.00    +0.000 C 
ATOM     11  O   UNL     1       6.457   4.578  19.457  0.00  0.00    +0.000 OA
ATOM     12  O   UNL     1       8.218   4.129  17.717  0.00  0.00    +0.000 OA
ENDBRANCH   1   9
BRANCH   1  13
ATOM     13  C   UNL     1       6.201   5.916  15.839  0.00  0.00    +0.000 C 
BRANCH  13  15
ATOM     14  N   UNL     1       5.865   4.425  13.920  0.00  0.00    +0.000 N 
ATOM     15  C   UNL     1       6.738   5.261  14.578  0.00  0.00    +0.000 C 
ATOM     16  O   UNL     1       7.909   5.406  14.232  0.00  0.00    +0.000 OA
ATOM     17  H   UNL     1       4.886   4.404  14.211  0.00  0.00    +0.000 HD
BRANCH  14  18
ATOM     18  C   UNL     1       6.266   3.611  12.789  0.00  0.00    +0.000 C 
BRANCH  18  19
ATOM     19  C   UNL     1       5.116   2.762  12.242  0.00  0.00    +0.000 C 
BRANCH  19  21
ATOM     20  C   UNL     1       3.315   3.569  10.660  0.00  0.00    +0.000 C 
ATOM     21  C   UNL     1       4.762   3.116  10.795  0.00  0.00    +0.000 C 
ENDBRANCH  19  21
ENDBRANCH  18  19
ENDBRANCH  14  18
ENDBRANCH  13  15
ENDBRANCH   1  13
TORSDOF 7
ENDMDL
MODEL 4
REMARK VINA RESULT:      -6.8      2.138      5.579
REMARK  Name = 
REMARK  9 active torsions:
REMARK  status: ('A' for Active; 'I' for Inactive)
REMARK    1  A    between atoms: C_1  and  C_2
REMARK    2  A    between atoms: C_2  and  C_3
REMARK    3  A    between atoms: C_3  and  C_4
REMARK    4  A    between atoms: C_4  and  N_5
REMARK    5  A    between atoms: C_6  and  C_8
REMARK    6  A    between atoms: C_8  and  N_9
REMARK    7  A    between atoms: N_9  and  C_10
REMARK    8  A    between atoms: N_9  and  S_17
REMARK    9  A    between atoms: S_17  and  C_18
REMARK                            x       y       z     vdW  Elec       q    Type
REMARK                         _______ _______ _______ _____ _____    ______ ____
ROOT
ATOM      1  N   UNL     1       5.807   5.134  16.967  0.00  0.00    +0.000 N 
ENDROOT
BRANCH   1   2
ATOM      2  C   UNL     1       4.450   4.764  17.268  0.00  0.00    +0.000 A 
ATOM      3  C   UNL     1       3.554   5.750  17.692  0.00  0.00    +0.000 A 
ATOM      4  C   UNL     1       2.242   5.410  18.044  0.00  0.00    +0.000 A 
ATOM      5  C   UNL     1       1.822   4.083  17.955  0.00  0.00    +0.000 A 
ATOM      6  C   UNL     1       2.710   3.116  17.497  0.00  0.00    +0.000 A 
ATOM      7  F   UNL     1       2.306   1.843  17.404  0.00  0.00    +0.000 F 
ATOM      8  C   UNL     1       4.016   3.443  17.144  0.00  0.00    +0.000 A 
ENDBRANCH   1   2
BRANCH   1   9
ATOM      9  S   UNL     1       6.204   5.429  15.350  0.00  0.00    +0.000 S 
ATOM     10  C   UNL     1       6.004   3.827  14.585  0.00  0.00    +0.000 C 
ATOM     11  O   UNL     1       5.241   6.332  14.762  0.00  0.00    +0.000 OA
ATOM     12  O   UNL     1       7.623   5.733  15.311  0.00  0.00    +0.000 OA
ENDBRANCH   1   9
BRANCH   1  13
ATOM     13  C   UNL     1       6.869   4.634  17.872  0.00  0.00    +0.000 C 
BRANCH  13  15
ATOM     14  N   UNL     1       7.764   6.904  18.118  0.00  0.00    +0.000 N 
ATOM     15  C   UNL     1       7.520   5.700  18.736  0.00  0.00    +0.000 C 
ATOM     16  O   UNL     1       7.883   5.456  19.886  0.00  0.00    +0.000 OA
ATOM     17  H   UNL     1       7.372   7.072  17.190  0.00  0.00    +0.000 HD
BRANCH  14  18
ATOM     18  C   UNL     1       8.509   7.973  18.755  0.00  0.00    +0.000 C 
BRANCH  18  19
ATOM     19  C   UNL     1       8.231   9.339  18.123  0.00  0.00    +0.000 C 
BRANCH  19  21
ATOM     20  C   UNL     1       9.367  10.848  19.804  0.00  0.00    +0.000 C 
ATOM     21  C   UNL     1       9.363  10.341  18.369  0.00  0.00    +0.000 C 
ENDBRANCH  19  21
ENDBRANCH  18  19
ENDBRANCH  14  18
ENDBRANCH  13  15
ENDBRANCH   1  13
TORSDOF 7
ENDMDL
MODEL 5
REMARK VINA RESULT:      -6.8      3.314      4.878
REMARK  Name = 
REMARK  9 active torsions:
REMARK  status: ('A' for Active; 'I' for Inactive)
REMARK    1  A    between atoms: C_1  and  C_2
REMARK    2  A    between atoms: C_2  and  C_3
REMARK    3  A    between atoms: C_3  and  C_4
REMARK    4  A    between atoms: C_4  and  N_5
REMARK    5  A    between atoms: C_6  and  C_8
REMARK    6  A    between atoms: C_8  and  N_9
REMARK    7  A    between atoms: N_9  and  C_10
REMARK    8  A    between atoms: N_9  and  S_17
REMARK    9  A    between atoms: S_17  and  C_18
REMARK                            x       y       z     vdW  Elec       q    Type
REMARK                         _______ _______ _______ _____ _____    ______ ____
ROOT
ATOM      1  N   UNL     1       3.126   4.490  18.860  0.00  0.00    +0.000 N 
ENDROOT
BRANCH   1   2
ATOM      2  C   UNL     1       2.673   5.844  19.031  0.00  0.00    +0.000 A 
ATOM      3  C   UNL     1       2.792   6.742  17.965  0.00  0.00    +0.000 A 
ATOM      4  C   UNL     1       2.408   8.079  18.120  0.00  0.00    +0.000 A 
ATOM      5  C   UNL     1       1.888   8.515  19.338  0.00  0.00    +0.000 A 
ATOM      6  C   UNL     1       1.739   7.607  20.379  0.00  0.00    +0.000 A 
ATOM      7  F   UNL     1       1.234   8.022  21.548  0.00  0.00    +0.000 F 
ATOM      8  C   UNL     1       2.117   6.275  20.237  0.00  0.00    +0.000 A 
ENDBRANCH   1   2
BRANCH   1   9
ATOM      9  S   UNL     1       1.975   3.314  18.475  0.00  0.00    +0.000 S 
ATOM     10  C   UNL     1       2.970   1.936  17.929  0.00  0.00    +0.000 C 
ATOM     11  O   UNL     1       1.262   2.912  19.667  0.00  0.00    +0.000 OA
ATOM     12  O   UNL     1       1.254   3.793  17.310  0.00  0.00    +0.000 OA
ENDBRANCH   1   9
BRANCH   1  13
ATOM     13  C   UNL     1       4.332   4.074  19.616  0.00  0.00    +0.000 C 
BRANCH  13  15
ATOM     14  N   UNL     1       5.954   4.285  17.787  0.00  0.00    +0.000 N 
ATOM     15  C   UNL     1       5.640   4.631  19.081  0.00  0.00    +0.000 C 
ATOM     16  O   UNL     1       6.402   5.274  19.802  0.00  0.00    +0.000 OA
ATOM     17  H   UNL     1       5.249   3.816  17.216  0.00  0.00    +0.000 HD
BRANCH  14  18
ATOM     18  C   UNL     1       7.229   4.610  17.179  0.00  0.00    +0.000 C 
BRANCH  18  19
ATOM     19  C   UNL     1       7.205   4.469  15.655  0.00  0.00    +0.000 C 
BRANCH  19  21
ATOM     20  C   UNL     1       5.484   4.095  13.839  0.00  0.00    +0.000 C 
ATOM     21  C   UNL     1       5.881   4.937  15.043  0.00  0.00    +0.000 C 
ENDBRANCH  19  21
ENDBRANCH  18  19
ENDBRANCH  14  18
ENDBRANCH  13  15
ENDBRANCH   1  13
TORSDOF 7
ENDMDL
MODEL 6
REMARK VINA RESULT:      -6.7      1.253      1.668
REMARK  Name = 
REMARK  9 active torsions:
REMARK  status: ('A' for Active; 'I' for Inactive)
REMARK    1  A    between atoms: C_1  and  C_2
REMARK    2  A    between atoms: C_2  and  C_3
REMARK    3  A    between atoms: C_3  and  C_4
REMARK    4  A    between atoms: C_4  and  N_5
REMARK    5  A    between atoms: C_6  and  C_8
REMARK    6  A    between atoms: C_8  and  N_9
REMARK    7  A    between atoms: N_9  and  C_10
REMARK    8  A    between atoms: N_9  and  S_17
REMARK    9  A    between atoms: S_17  and  C_18
REMARK                            x       y       z     vdW  Elec       q    Type
REMARK                         _______ _______ _______ _____ _____    ______ ____
ROOT
ATOM      1  N   UNL     1       5.758   5.026  16.721  0.00  0.00    +0.000 N 
ENDROOT
BRANCH   1   2
ATOM      2  C   UNL     1       4.593   4.753  17.518  0.00  0.00    +0.000 A 
ATOM      3  C   UNL     1       3.584   5.719  17.602  0.00  0.00    +0.000 A 
ATOM      4  C   UNL     1       2.464   5.502  18.413  0.00  0.00    +0.000 A 
ATOM      5  C   UNL     1       2.345   4.310  19.128  0.00  0.00    +0.000 A 
ATOM      6  C   UNL     1       3.334   3.342  19.008  0.00  0.00    +0.000 A 
ATOM      7  F   UNL     1       3.218   2.195  19.688  0.00  0.00    +0.000 F 
ATOM      8  C   UNL     1       4.452   3.547  18.205  0.00  0.00    +0.000 A 
ENDBRANCH   1   2
BRANCH   1   9
ATOM      9  S   UNL     1       7.209   5.348  17.528  0.00  0.00    +0.000 S 
ATOM     10  C   UNL     1       6.686   5.599  19.217  0.00  0.00    +0.000 C 
ATOM     11  O   UNL     1       8.064   4.182  17.490  0.00  0.00    +0.000 OA
ATOM     12  O   UNL     1       7.686   6.630  17.046  0.00  0.00    +0.000 OA
ENDBRANCH   1   9
BRANCH   1  13
ATOM     13  C   UNL     1       5.546   5.634  15.386  0.00  0.00    +0.000 C 
BRANCH  13  15
ATOM     14  N   UNL     1       5.697   4.150  13.439  0.00  0.00    +0.000 N 
ATOM     15  C   UNL     1       6.370   5.016  14.269  0.00  0.00    +0.000 C 
ATOM     16  O   UNL     1       7.581   5.217  14.182  0.00  0.00    +0.000 OA
ATOM     17  H   UNL     1       4.681   4.083  13.513  0.00  0.00    +0.000 HD
BRANCH  14  18
ATOM     18  C   UNL     1       6.367   3.366  12.419  0.00  0.00    +0.000 C 
BRANCH  18  19
ATOM     19  C   UNL     1       5.390   2.542  11.577  0.00  0.00    +0.000 C 
BRANCH  19  21
ATOM     20  C   UNL     1       3.741   3.756  10.092  0.00  0.00    +0.000 C 
ATOM     21  C   UNL     1       4.006   3.191  11.481  0.00  0.00    +0.000 C 
ENDBRANCH  19  21
ENDBRANCH  18  19
ENDBRANCH  14  18
ENDBRANCH  13  15
ENDBRANCH   1  13
TORSDOF 7
ENDMDL
MODEL 7
REMARK VINA RESULT:      -6.7      3.869      5.541
REMARK  Name = 
REMARK  9 active torsions:
REMARK  status: ('A' for Active; 'I' for Inactive)
REMARK    1  A    between atoms: C_1  and  C_2
REMARK    2  A    between atoms: C_2  and  C_3
REMARK    3  A    between atoms: C_3  and  C_4
REMARK    4  A    between atoms: C_4  and  N_5
REMARK    5  A    between atoms: C_6  and  C_8
REMARK    6  A    between atoms: C_8  and  N_9
REMARK    7  A    between atoms: N_9  and  C_10
REMARK    8  A    between atoms: N_9  and  S_17
REMARK    9  A    between atoms: S_17  and  C_18
REMARK                            x       y       z     vdW  Elec       q    Type
REMARK                         _______ _______ _______ _____ _____    ______ ____
ROOT
ATOM      1  N   UNL     1       2.944   4.489  18.983  0.00  0.00    +0.000 N 
ENDROOT
BRANCH   1   2
ATOM      2  C   UNL     1       2.562   5.871  19.089  0.00  0.00    +0.000 A 
ATOM      3  C   UNL     1       2.731   6.711  17.984  0.00  0.00    +0.000 A 
ATOM      4  C   UNL     1       2.417   8.072  18.076  0.00  0.00    +0.000 A 
ATOM      5  C   UNL     1       1.917   8.590  19.271  0.00  0.00    +0.000 A 
ATOM      6  C   UNL     1       1.718   7.739  20.351  0.00  0.00    +0.000 A 
ATOM      7  F   UNL     1       1.231   8.233  21.497  0.00  0.00    +0.000 F 
ATOM      8  C   UNL     1       2.026   6.384  20.271  0.00  0.00    +0.000 A 
ENDBRANCH   1   2
BRANCH   1   9
ATOM      9  S   UNL     1       1.727   3.353  18.687  0.00  0.00    +0.000 S 
ATOM     10  C   UNL     1       2.638   1.836  18.447  0.00  0.00    +0.000 C 
ATOM     11  O   UNL     1       0.900   3.200  19.863  0.00  0.00    +0.000 OA
ATOM     12  O   UNL     1       1.136   3.690  17.406  0.00  0.00    +0.000 OA
ENDBRANCH   1   9
BRANCH   1  13
ATOM     13  C   UNL     1       4.146   4.053  19.733  0.00  0.00    +0.000 C 
BRANCH  13  15
ATOM     14  N   UNL     1       5.673   4.205  17.818  0.00  0.00    +0.000 N 
ATOM     15  C   UNL     1       5.466   4.518  19.142  0.00  0.00    +0.000 C 
ATOM     16  O   UNL     1       6.323   5.059  19.840  0.00  0.00    +0.000 OA
ATOM     17  H   UNL     1       4.897   3.825  17.273  0.00  0.00    +0.000 HD
BRANCH  14  18
ATOM     18  C   UNL     1       6.935   4.445  17.146  0.00  0.00    +0.000 C 
BRANCH  18  19
ATOM     19  C   UNL     1       6.874   5.643  16.196  0.00  0.00    +0.000 C 
BRANCH  19  21
ATOM     20  C   UNL     1       7.602   7.588  17.640  0.00  0.00    +0.000 C 
ATOM     21  C   UNL     1       6.444   6.932  16.902  0.00  0.00    +0.000 C 
ENDBRANCH  19  21
ENDBRANCH  18  19
ENDBRANCH  14  18
ENDBRANCH  13  15
ENDBRANCH   1  13
TORSDOF 7
ENDMDL
MODEL 8
REMARK VINA RESULT:      -6.7      3.509      5.718
REMARK  Name = 
REMARK  9 active torsions:
REMARK  status: ('A' for Active; 'I' for Inactive)
REMARK    1  A    between atoms: C_1  and  C_2
REMARK    2  A    between atoms: C_2  and  C_3
REMARK    3  A    between atoms: C_3  and  C_4
REMARK    4  A    between atoms: C_4  and  N_5
REMARK    5  A    between atoms: C_6  and  C_8
REMARK    6  A    between atoms: C_8  and  N_9
REMARK    7  A    between atoms: N_9  and  C_10
REMARK    8  A    between atoms: N_9  and  S_17
REMARK    9  A    between atoms: S_17  and  C_18
REMARK                            x       y       z     vdW  Elec       q    Type
REMARK                         _______ _______ _______ _____ _____    ______ ____
ROOT
ATOM      1  N   UNL     1       4.812   5.277  17.516  0.00  0.00    +0.000 N 
ENDROOT
BRANCH   1   2
ATOM      2  C   UNL     1       3.846   6.219  18.014  0.00  0.00    +0.000 A 
ATOM      3  C   UNL     1       3.538   7.348  17.248  0.00  0.00    +0.000 A 
ATOM      4  C   UNL     1       2.642   8.308  17.733  0.00  0.00    +0.000 A 
ATOM      5  C   UNL     1       2.040   8.130  18.978  0.00  0.00    +0.000 A 
ATOM      6  C   UNL     1       2.324   6.986  19.714  0.00  0.00    +0.000 A 
ATOM      7  F   UNL     1       1.742   6.809  20.907  0.00  0.00    +0.000 F 
ATOM      8  C   UNL     1       3.213   6.024  19.242  0.00  0.00    +0.000 A 
ENDBRANCH   1   2
BRANCH   1   9
ATOM      9  S   UNL     1       6.293   5.881  16.967  0.00  0.00    +0.000 S 
ATOM     10  C   UNL     1       7.437   4.568  17.363  0.00  0.00    +0.000 C 
ATOM     11  O   UNL     1       6.262   6.034  15.530  0.00  0.00    +0.000 OA
ATOM     12  O   UNL     1       6.636   7.002  17.823  0.00  0.00    +0.000 OA
ENDBRANCH   1   9
BRANCH   1  13
ATOM     13  C   UNL     1       4.297   4.024  16.915  0.00  0.00    +0.000 C 
BRANCH  13  15
ATOM     14  N   UNL     1       2.238   2.971  17.731  0.00  0.00    +0.000 N 
ATOM     15  C   UNL     1       3.599   3.092  17.890  0.00  0.00    +0.000 C 
ATOM     16  O   UNL     1       4.211   2.560  18.815  0.00  0.00    +0.000 OA
ATOM     17  H   UNL     1       1.799   3.374  16.902  0.00  0.00    +0.000 HD
BRANCH  14  18
ATOM     18  C   UNL     1       1.404   2.240  18.666  0.00  0.00    +0.000 C 
BRANCH  18  19
ATOM     19  C   UNL     1       0.801   3.144  19.744  0.00  0.00    +0.000 C 
BRANCH  19  21
ATOM     20  C   UNL     1       2.322   3.579  21.717  0.00  0.00    +0.000 C 
ATOM     21  C   UNL     1       1.199   2.716  21.159  0.00  0.00    +0.000 C 
ENDBRANCH  19  21
ENDBRANCH  18  19
ENDBRANCH  14  18
ENDBRANCH  13  15
ENDBRANCH   1  13
TORSDOF 7
ENDMDL
MODEL 9
REMARK VINA RESULT:      -6.7      0.862      1.031
REMARK  Name = 
REMARK  9 active torsions:
REMARK  status: ('A' for Active; 'I' for Inactive)
REMARK    1  A    between atoms: C_1  and  C_2
REMARK    2  A    between atoms: C_2  and  C_3
REMARK    3  A    between atoms: C_3  and  C_4
REMARK    4  A    between atoms: C_4  and  N_5
REMARK    5  A    between atoms: C_6  and  C_8
REMARK    6  A    between atoms: C_8  and  N_9
REMARK    7  A    between atoms: N_9  and  C_10
REMARK    8  A    between atoms: N_9  and  S_17
REMARK    9  A    between atoms: S_17  and  C_18
REMARK                            x       y       z     vdW  Elec       q    Type
REMARK                         _______ _______ _______ _____ _____    ______ ____
ROOT
ATOM      1  N   UNL     1       5.601   4.934  16.774  0.00  0.00    +0.000 N 
ENDROOT
BRANCH   1   2
ATOM      2  C   UNL     1       4.358   4.477  17.334  0.00  0.00    +0.000 A 
ATOM      3  C   UNL     1       3.340   5.404  17.580  0.00  0.00    +0.000 A 
ATOM      4  C   UNL     1       2.140   4.996  18.174  0.00  0.00    +0.000 A 
ATOM      5  C   UNL     1       1.952   3.654  18.507  0.00  0.00    +0.000 A 
ATOM      6  C   UNL     1       2.955   2.735  18.224  0.00  0.00    +0.000 A 
ATOM      7  F   UNL     1       2.773   1.446  18.537  0.00  0.00    +0.000 F 
ATOM      8  C   UNL     1       4.152   3.130  17.634  0.00  0.00    +0.000 A 
ENDBRANCH   1   2
BRANCH   1   9
ATOM      9  S   UNL     1       6.843   5.350  17.843  0.00  0.00    +0.000 S 
ATOM     10  C   UNL     1       6.018   5.393  19.427  0.00  0.00    +0.000 C 
ATOM     11  O   UNL     1       7.834   4.298  17.880  0.00  0.00    +0.000 OA
ATOM     12  O   UNL     1       7.226   6.716  17.538  0.00  0.00    +0.000 OA
ENDBRANCH   1   9
BRANCH   1  13
ATOM     13  C   UNL     1       5.548   5.615  15.459  0.00  0.00    +0.000 C 
BRANCH  13  15
ATOM     14  N   UNL     1       5.833   4.038  13.601  0.00  0.00    +0.000 N 
ATOM     15  C   UNL     1       6.430   4.996  14.388  0.00  0.00    +0.000 C 
ATOM     16  O   UNL     1       7.624   5.277  14.302  0.00  0.00    +0.000 OA
ATOM     17  H   UNL     1       4.823   3.903  13.668  0.00  0.00    +0.000 HD
BRANCH  14  18
ATOM     18  C   UNL     1       6.571   3.248  12.635  0.00  0.00    +0.000 C 
BRANCH  18  19
ATOM     19  C   UNL     1       5.654   2.426  11.727  0.00  0.00    +0.000 C 
BRANCH  19  21
ATOM     20  C   UNL     1       6.166  -0.016  11.313  0.00  0.00    +0.000 C 
ATOM     21  C   UNL     1       6.427   1.417  10.872  0.00  0.00    +0.000 C 
ENDBRANCH  19  21
ENDBRANCH  18  19
ENDBRANCH  14  18
ENDBRANCH  13  15
ENDBRANCH   1  13
TORSDOF 7
ENDMDL
