MODEL 1
REMARK VINA RESULT:      -9.3      0.000      0.000
REMARK  Name = 
REMARK  7 active torsions:
REMARK  status: ('A' for Active; 'I' for Inactive)
REMARK    1  A    between atoms: C_1  and  C_2
REMARK    2  A    between atoms: C_2  and  C_3
REMARK    3  A    between atoms: N_5  and  C_6
REMARK    4  A    between atoms: C_6  and  C_7
REMARK    5  A    between atoms: C_10  and  C_11
REMARK    6  A    between atoms: N_19  and  C_20
REMARK    7  A    between atoms: C_20  and  C_21
REMARK                            x       y       z     vdW  Elec       q    Type
REMARK                         _______ _______ _______ _____ _____    ______ ____
ROOT
ATOM      1  C   UNL     1       1.246   4.650  17.813  0.00  0.00    +0.000 C 
ATOM      2  C   UNL     1       1.743   3.710  18.920  0.00  0.00    +0.000 C 
ATOM      3  C   UNL     1       0.764   2.497  18.947  0.00  0.00    +0.000 C 
ATOM      4  C   UNL     1       1.997   1.605  18.826  0.00  0.00    +0.000 C 
ATOM      5  N   UNL     1       2.793   2.771  18.383  0.00  0.00    +0.000 NA
ENDROOT
BRANCH   2   6
ATOM      6  C   UNL     1       2.037   4.361  20.379  0.00  0.00    +0.000 C 
ATOM      7  O   UNL     1       1.848   3.769  21.453  0.00  0.00    +0.000 OA
ATOM      8  N   UNL     1       2.592   5.624  20.482  0.00  0.00    +0.000 N 
ATOM      9  H   UNL     1       2.752   5.941  21.433  0.00  0.00    +0.000 HD
BRANCH   8  10
ATOM     10  C   UNL     1       2.861   6.510  19.388  0.00  0.00    +0.000 C 
BRANCH  10  11
ATOM     11  C   UNL     1       2.092   7.792  19.389  0.00  0.00    +0.000 A 
ATOM     12  C   UNL     1       1.945   8.534  18.215  0.00  0.00    +0.000 A 
ATOM     13  C   UNL     1       1.110   9.650  18.197  0.00  0.00    +0.000 A 
ATOM     14  C   UNL     1       0.423  10.045  19.355  0.00  0.00    +0.000 A 
ATOM     15  C   UNL     1       0.584   9.300  20.533  0.00  0.00    +0.000 A 
ATOM     16  C   UNL     1       1.419   8.188  20.552  0.00  0.00    +0.000 A 
BRANCH  14  17
ATOM     17  C   UNL     1      -0.478  11.252  19.355  0.00  0.00    +0.000 C 
ATOM     18  F   UNL     1      -0.206  12.135  18.355  0.00  0.00    +0.000 F 
ATOM     19  F   UNL     1      -1.792  10.921  19.216  0.00  0.00    +0.000 F 
ATOM     20  F   UNL     1      -0.390  11.959  20.515  0.00  0.00    +0.000 F 
ENDBRANCH  14  17
ENDBRANCH  10  11
ENDBRANCH   8  10
ENDBRANCH   2   6
BRANCH   5  21
ATOM     21  C   UNL     1       4.068   2.797  19.123  0.00  0.00    +0.000 C 
BRANCH  21  22
ATOM     22  C   UNL     1       4.963   3.895  18.640  0.00  0.00    +0.000 A 
ATOM     23  C   UNL     1       5.000   4.646  17.482  0.00  0.00    +0.000 A 
ATOM     24  C   UNL     1       6.057   5.581  17.632  0.00  0.00    +0.000 A 
ATOM     25  C   UNL     1       6.593   6.624  16.855  0.00  0.00    +0.000 A 
ATOM     26  C   UNL     1       7.678   7.354  17.361  0.00  0.00    +0.000 A 
ATOM     27  C   UNL     1       8.228   7.052  18.608  0.00  0.00    +0.000 A 
ATOM     28  C   UNL     1       7.710   6.017  19.397  0.00  0.00    +0.000 A 
ATOM     29  C   UNL     1       6.624   5.317  18.873  0.00  0.00    +0.000 A 
ATOM     30  O   UNL     1       5.961   4.296  19.486  0.00  0.00    +0.000 OA
ENDBRANCH  21  22
ENDBRANCH   5  21
TORSDOF 6
ENDMDL
MODEL 2
REMARK VINA RESULT:      -9.0      2.126      4.736
REMARK  Name = 
REMARK  7 active torsions:
REMARK  status: ('A' for Active; 'I' for Inactive)
REMARK    1  A    between atoms: C_1  and  C_2
REMARK    2  A    between atoms: C_2  and  C_3
REMARK    3  A    between atoms: N_5  and  C_6
REMARK    4  A    between atoms: C_6  and  C_7
REMARK    5  A    between atoms: C_10  and  C_11
REMARK    6  A    between atoms: N_19  and  C_20
REMARK    7  A    between atoms: C_20  and  C_21
REMARK                            x       y       z     vdW  Elec       q    Type
REMARK                         _______ _______ _______ _____ _____    ______ ____
ROOT
ATOM      1  C   UNL     1       6.847   5.613  17.810  0.00  0.00    +0.000 C 
ATOM      2  C   UNL     1       6.138   5.370  16.471  0.00  0.00    +0.000 C 
ATOM      3  C   UNL     1       7.241   4.949  15.454  0.00  0.00    +0.000 C 
ATOM      4  C   UNL     1       6.378   3.727  15.150  0.00  0.00    +0.000 C 
ATOM      5  N   UNL     1       5.619   3.956  16.398  0.00  0.00    +0.000 NA
ENDROOT
BRANCH   2   6
ATOM      6  C   UNL     1       5.140   6.532  15.929  0.00  0.00    +0.000 C 
ATOM      7  O   UNL     1       5.170   6.988  14.775  0.00  0.00    +0.000 OA
ATOM      8  N   UNL     1       4.140   7.032  16.744  0.00  0.00    +0.000 N 
ATOM      9  H   UNL     1       3.559   7.744  16.315  0.00  0.00    +0.000 HD
BRANCH   8  10
ATOM     10  C   UNL     1       3.935   6.688  18.121  0.00  0.00    +0.000 C 
BRANCH  10  11
ATOM     11  C   UNL     1       2.816   7.403  18.805  0.00  0.00    +0.000 A 
ATOM     12  C   UNL     1       2.384   7.001  20.072  0.00  0.00    +0.000 A 
ATOM     13  C   UNL     1       1.438   7.761  20.758  0.00  0.00    +0.000 A 
ATOM     14  C   UNL     1       0.904   8.923  20.183  0.00  0.00    +0.000 A 
ATOM     15  C   UNL     1       1.334   9.315  18.906  0.00  0.00    +0.000 A 
ATOM     16  C   UNL     1       2.276   8.556  18.220  0.00  0.00    +0.000 A 
BRANCH  14  17
ATOM     17  C   UNL     1      -0.124   9.753  20.908  0.00  0.00    +0.000 C 
ATOM     18  F   UNL     1       0.407  10.813  21.579  0.00  0.00    +0.000 F 
ATOM     19  F   UNL     1      -1.062  10.272  20.068  0.00  0.00    +0.000 F 
ATOM     20  F   UNL     1      -0.809   9.028  21.834  0.00  0.00    +0.000 F 
ENDBRANCH  14  17
ENDBRANCH  10  11
ENDBRANCH   8  10
ENDBRANCH   2   6
BRANCH   5  21
ATOM     21  C   UNL     1       4.176   3.853  16.115  0.00  0.00    +0.000 C 
BRANCH  21  22
ATOM     22  C   UNL     1       3.380   3.661  17.368  0.00  0.00    +0.000 A 
ATOM     23  C   UNL     1       2.042   3.815  17.673  0.00  0.00    +0.000 A 
ATOM     24  C   UNL     1       1.882   3.424  19.028  0.00  0.00    +0.000 A 
ATOM     25  C   UNL     1       0.801   3.318  19.922  0.00  0.00    +0.000 A 
ATOM     26  C   UNL     1       1.047   2.875  21.230  0.00  0.00    +0.000 A 
ATOM     27  C   UNL     1       2.340   2.552  21.648  0.00  0.00    +0.000 A 
ATOM     28  C   UNL     1       3.430   2.651  20.774  0.00  0.00    +0.000 A 
ATOM     29  C   UNL     1       3.152   3.083  19.478  0.00  0.00    +0.000 A 
ATOM     30  O   UNL     1       4.062   3.224  18.472  0.00  0.00    +0.000 OA
ENDBRANCH  21  22
ENDBRANCH   5  21
TORSDOF 6
ENDMDL
MODEL 3
REMARK VINA RESULT:      -8.7      2.246      3.038
REMARK  Name = 
REMARK  7 active torsions:
REMARK  status: ('A' for Active; 'I' for Inactive)
REMARK    1  A    between atoms: C_1  and  C_2
REMARK    2  A    between atoms: C_2  and  C_3
REMARK    3  A    between atoms: N_5  and  C_6
REMARK    4  A    between atoms: C_6  and  C_7
REMARK    5  A    between atoms: C_10  and  C_11
REMARK    6  A    between atoms: N_19  and  C_20
REMARK    7  A    between atoms: C_20  and  C_21
REMARK                            x       y       z     vdW  Elec       q    Type
REMARK                         _______ _______ _______ _____ _____    ______ ____
ROOT
ATOM      1  C   UNL     1       1.355   4.367  17.664  0.00  0.00    +0.000 C 
ATOM      2  C   UNL     1       2.532   3.698  18.390  0.00  0.00    +0.000 C 
ATOM      3  C   UNL     1       2.152   2.196  18.562  0.00  0.00    +0.000 C 
ATOM      4  C   UNL     1       3.491   1.869  17.905  0.00  0.00    +0.000 C 
ATOM      5  N   UNL     1       3.579   3.256  17.400  0.00  0.00    +0.000 NA
ENDROOT
BRANCH   2   6
ATOM      6  C   UNL     1       3.076   4.408  19.747  0.00  0.00    +0.000 C 
ATOM      7  O   UNL     1       3.270   3.804  20.814  0.00  0.00    +0.000 OA
ATOM      8  N   UNL     1       3.418   5.748  19.746  0.00  0.00    +0.000 N 
ATOM      9  H   UNL     1       3.761   6.099  20.634  0.00  0.00    +0.000 HD
BRANCH   8  10
ATOM     10  C   UNL     1       3.245   6.654  18.648  0.00  0.00    +0.000 C 
BRANCH  10  11
ATOM     11  C   UNL     1       2.285   7.775  18.881  0.00  0.00    +0.000 A 
ATOM     12  C   UNL     1       1.725   7.981  20.145  0.00  0.00    +0.000 A 
ATOM     13  C   UNL     1       0.944   9.111  20.384  0.00  0.00    +0.000 A 
ATOM     14  C   UNL     1       0.703  10.040  19.361  0.00  0.00    +0.000 A 
ATOM     15  C   UNL     1       1.260   9.822  18.092  0.00  0.00    +0.000 A 
ATOM     16  C   UNL     1       2.037   8.693  17.852  0.00  0.00    +0.000 A 
BRANCH  14  17
ATOM     17  C   UNL     1      -0.144  11.263  19.601  0.00  0.00    +0.000 C 
ATOM     18  F   UNL     1      -1.388  10.980  20.077  0.00  0.00    +0.000 F 
ATOM     19  F   UNL     1       0.417  12.117  20.501  0.00  0.00    +0.000 F 
ATOM     20  F   UNL     1      -0.334  11.988  18.464  0.00  0.00    +0.000 F 
ENDBRANCH  14  17
ENDBRANCH  10  11
ENDBRANCH   8  10
ENDBRANCH   2   6
BRANCH   5  21
ATOM     21  C   UNL     1       4.929   3.785  17.667  0.00  0.00    +0.000 C 
BRANCH  21  22
ATOM     22  C   UNL     1       5.635   4.159  16.402  0.00  0.00    +0.000 A 
ATOM     23  C   UNL     1       6.634   5.066  16.107  0.00  0.00    +0.000 A 
ATOM     24  C   UNL     1       6.926   4.922  14.726  0.00  0.00    +0.000 A 
ATOM     25  C   UNL     1       7.834   5.507  13.824  0.00  0.00    +0.000 A 
ATOM     26  C   UNL     1       7.823   5.086  12.487  0.00  0.00    +0.000 A 
ATOM     27  C   UNL     1       6.925   4.112  12.047  0.00  0.00    +0.000 A 
ATOM     28  C   UNL     1       6.013   3.517  12.928  0.00  0.00    +0.000 A 
ATOM     29  C   UNL     1       6.055   3.948  14.253  0.00  0.00    +0.000 A 
ATOM     30  O   UNL     1       5.272   3.483  15.268  0.00  0.00    +0.000 OA
ENDBRANCH  21  22
ENDBRANCH   5  21
TORSDOF 6
ENDMDL
MODEL 4
REMARK VINA RESULT:      -8.7      2.248      2.829
REMARK  Name = 
REMARK  7 active torsions:
REMARK  status: ('A' for Active; 'I' for Inactive)
REMARK    1  A    between atoms: C_1  and  C_2
REMARK    2  A    between atoms: C_2  and  C_3
REMARK    3  A    between atoms: N_5  and  C_6
REMARK    4  A    between atoms: C_6  and  C_7
REMARK    5  A    between atoms: C_10  and  C_11
REMARK    6  A    between atoms: N_19  and  C_20
REMARK    7  A    between atoms: C_20  and  C_21
REMARK                            x       y       z     vdW  Elec       q    Type
REMARK                         _______ _______ _______ _____ _____    ______ ____
ROOT
ATOM      1  C   UNL     1       1.347   4.204  17.700  0.00  0.00    +0.000 C 
ATOM      2  C   UNL     1       2.562   3.624  18.439  0.00  0.00    +0.000 C 
ATOM      3  C   UNL     1       2.269   2.108  18.654  0.00  0.00    +0.000 C 
ATOM      4  C   UNL     1       3.622   1.839  18.002  0.00  0.00    +0.000 C 
ATOM      5  N   UNL     1       3.630   3.214  17.457  0.00  0.00    +0.000 NA
ENDROOT
BRANCH   2   6
ATOM      6  C   UNL     1       3.068   4.401  19.773  0.00  0.00    +0.000 C 
ATOM      7  O   UNL     1       3.339   3.835  20.844  0.00  0.00    +0.000 OA
ATOM      8  N   UNL     1       3.286   5.767  19.747  0.00  0.00    +0.000 N 
ATOM      9  H   UNL     1       3.615   6.161  20.621  0.00  0.00    +0.000 HD
BRANCH   8  10
ATOM     10  C   UNL     1       3.007   6.636  18.641  0.00  0.00    +0.000 C 
BRANCH  10  11
ATOM     11  C   UNL     1       2.203   7.854  18.963  0.00  0.00    +0.000 A 
ATOM     12  C   UNL     1       1.852   8.760  17.958  0.00  0.00    +0.000 A 
ATOM     13  C   UNL     1       0.985   9.813  18.244  0.00  0.00    +0.000 A 
ATOM     14  C   UNL     1       0.470   9.981  19.538  0.00  0.00    +0.000 A 
ATOM     15  C   UNL     1       0.835   9.074  20.544  0.00  0.00    +0.000 A 
ATOM     16  C   UNL     1       1.702   8.024  20.259  0.00  0.00    +0.000 A 
BRANCH  14  17
ATOM     17  C   UNL     1      -0.463  11.118  19.866  0.00  0.00    +0.000 C 
ATOM     18  F   UNL     1       0.139  12.339  19.849  0.00  0.00    +0.000 F 
ATOM     19  F   UNL     1      -1.507  11.203  18.996  0.00  0.00    +0.000 F 
ATOM     20  F   UNL     1      -1.015  10.990  21.103  0.00  0.00    +0.000 F 
ENDBRANCH  14  17
ENDBRANCH  10  11
ENDBRANCH   8  10
ENDBRANCH   2   6
BRANCH   5  21
ATOM     21  C   UNL     1       4.948   3.826  17.704  0.00  0.00    +0.000 C 
BRANCH  21  22
ATOM     22  C   UNL     1       5.642   4.175  16.424  0.00  0.00    +0.000 A 
ATOM     23  C   UNL     1       6.667   5.046  16.110  0.00  0.00    +0.000 A 
ATOM     24  C   UNL     1       6.926   4.891  14.723  0.00  0.00    +0.000 A 
ATOM     25  C   UNL     1       7.836   5.443  13.804  0.00  0.00    +0.000 A 
ATOM     26  C   UNL     1       7.784   5.023  12.467  0.00  0.00    +0.000 A 
ATOM     27  C   UNL     1       6.843   4.082  12.046  0.00  0.00    +0.000 A 
ATOM     28  C   UNL     1       5.928   3.521  12.944  0.00  0.00    +0.000 A 
ATOM     29  C   UNL     1       6.011   3.949  14.268  0.00  0.00    +0.000 A 
ATOM     30  O   UNL     1       5.233   3.513  15.299  0.00  0.00    +0.000 OA
ENDBRANCH  21  22
ENDBRANCH   5  21
TORSDOF 6
ENDMDL
MODEL 5
REMARK VINA RESULT:      -8.6      2.138      4.870
REMARK  Name = 
REMARK  7 active torsions:
REMARK  status: ('A' for Active; 'I' for Inactive)
REMARK    1  A    between atoms: C_1  and  C_2
REMARK    2  A    between atoms: C_2  and  C_3
REMARK    3  A    between atoms: N_5  and  C_6
REMARK    4  A    between atoms: C_6  and  C_7
REMARK    5  A    between atoms: C_10  and  C_11
REMARK    6  A    between atoms: N_19  and  C_20
REMARK    7  A    between atoms: C_20  and  C_21
REMARK                            x       y       z     vdW  Elec       q    Type
REMARK                         _______ _______ _______ _____ _____    ______ ____
ROOT
ATOM      1  C   UNL     1       6.911   6.286  18.011  0.00  0.00    +0.000 C 
ATOM      2  C   UNL     1       6.306   5.762  16.701  0.00  0.00    +0.000 C 
ATOM      3  C   UNL     1       7.498   5.522  15.725  0.00  0.00    +0.000 C 
ATOM      4  C   UNL     1       6.951   4.110  15.537  0.00  0.00    +0.000 C 
ATOM      5  N   UNL     1       6.134   4.266  16.760  0.00  0.00    +0.000 NA
ENDROOT
BRANCH   2   6
ATOM      6  C   UNL     1       5.076   6.605  16.055  0.00  0.00    +0.000 C 
ATOM      7  O   UNL     1       5.027   6.959  14.867  0.00  0.00    +0.000 OA
ATOM      8  N   UNL     1       3.964   6.915  16.818  0.00  0.00    +0.000 N 
ATOM      9  H   UNL     1       3.242   7.429  16.326  0.00  0.00    +0.000 HD
BRANCH   8  10
ATOM     10  C   UNL     1       3.811   6.645  18.218  0.00  0.00    +0.000 C 
BRANCH  10  11
ATOM     11  C   UNL     1       2.713   7.393  18.903  0.00  0.00    +0.000 A 
ATOM     12  C   UNL     1       2.256   6.992  20.161  0.00  0.00    +0.000 A 
ATOM     13  C   UNL     1       1.334   7.778  20.850  0.00  0.00    +0.000 A 
ATOM     14  C   UNL     1       0.847   8.966  20.285  0.00  0.00    +0.000 A 
ATOM     15  C   UNL     1       1.302   9.358  19.017  0.00  0.00    +0.000 A 
ATOM     16  C   UNL     1       2.221   8.572  18.328  0.00  0.00    +0.000 A 
BRANCH  14  17
ATOM     17  C   UNL     1      -0.154   9.825  21.012  0.00  0.00    +0.000 C 
ATOM     18  F   UNL     1      -1.096  10.375  20.196  0.00  0.00    +0.000 F 
ATOM     19  F   UNL     1      -0.840   9.133  21.963  0.00  0.00    +0.000 F 
ATOM     20  F   UNL     1       0.435  10.867  21.659  0.00  0.00    +0.000 F 
ENDBRANCH  14  17
ENDBRANCH  10  11
ENDBRANCH   8  10
ENDBRANCH   2   6
BRANCH   5  21
ATOM     21  C   UNL     1       4.761   3.801  16.489  0.00  0.00    +0.000 C 
BRANCH  21  22
ATOM     22  C   UNL     1       4.026   3.488  17.755  0.00  0.00    +0.000 A 
ATOM     23  C   UNL     1       4.436   3.155  19.031  0.00  0.00    +0.000 A 
ATOM     24  C   UNL     1       3.263   3.031  19.820  0.00  0.00    +0.000 A 
ATOM     25  C   UNL     1       2.985   2.747  21.170  0.00  0.00    +0.000 A 
ATOM     26  C   UNL     1       1.649   2.713  21.591  0.00  0.00    +0.000 A 
ATOM     27  C   UNL     1       0.605   2.945  20.693  0.00  0.00    +0.000 A 
ATOM     28  C   UNL     1       0.860   3.229  19.345  0.00  0.00    +0.000 A 
ATOM     29  C   UNL     1       2.198   3.268  18.958  0.00  0.00    +0.000 A 
ATOM     30  O   UNL     1       2.659   3.547  17.706  0.00  0.00    +0.000 OA
ENDBRANCH  21  22
ENDBRANCH   5  21
TORSDOF 6
ENDMDL
MODEL 6
REMARK VINA RESULT:      -8.6      2.068      4.671
REMARK  Name = 
REMARK  7 active torsions:
REMARK  status: ('A' for Active; 'I' for Inactive)
REMARK    1  A    between atoms: C_1  and  C_2
REMARK    2  A    between atoms: C_2  and  C_3
REMARK    3  A    between atoms: N_5  and  C_6
REMARK    4  A    between atoms: C_6  and  C_7
REMARK    5  A    between atoms: C_10  and  C_11
REMARK    6  A    between atoms: N_19  and  C_20
REMARK    7  A    between atoms: C_20  and  C_21
REMARK                            x       y       z     vdW  Elec       q    Type
REMARK                         _______ _______ _______ _____ _____    ______ ____
ROOT
ATOM      1  C   UNL     1       6.773   5.832  17.977  0.00  0.00    +0.000 C 
ATOM      2  C   UNL     1       6.171   5.473  16.611  0.00  0.00    +0.000 C 
ATOM      3  C   UNL     1       7.368   5.111  15.680  0.00  0.00    +0.000 C 
ATOM      4  C   UNL     1       6.633   3.807  15.382  0.00  0.00    +0.000 C 
ATOM      5  N   UNL     1       5.782   4.018  16.573  0.00  0.00    +0.000 NA
ENDROOT
BRANCH   2   6
ATOM      6  C   UNL     1       5.113   6.521  15.960  0.00  0.00    +0.000 C 
ATOM      7  O   UNL     1       5.164   6.917  14.785  0.00  0.00    +0.000 OA
ATOM      8  N   UNL     1       4.037   6.978  16.699  0.00  0.00    +0.000 N 
ATOM      9  H   UNL     1       3.424   7.617  16.205  0.00  0.00    +0.000 HD
BRANCH   8  10
ATOM     10  C   UNL     1       3.792   6.691  18.083  0.00  0.00    +0.000 C 
BRANCH  10  11
ATOM     11  C   UNL     1       2.832   7.606  18.772  0.00  0.00    +0.000 A 
ATOM     12  C   UNL     1       2.321   8.728  18.113  0.00  0.00    +0.000 A 
ATOM     13  C   UNL     1       1.322   9.492  18.713  0.00  0.00    +0.000 A 
ATOM     14  C   UNL     1       0.832   9.153  19.983  0.00  0.00    +0.000 A 
ATOM     15  C   UNL     1       1.356   8.032  20.643  0.00  0.00    +0.000 A 
ATOM     16  C   UNL     1       2.355   7.271  20.045  0.00  0.00    +0.000 A 
BRANCH  14  17
ATOM     17  C   UNL     1      -0.243   9.972  20.649  0.00  0.00    +0.000 C 
ATOM     18  F   UNL     1      -0.912   9.301  21.628  0.00  0.00    +0.000 F 
ATOM     19  F   UNL     1       0.247  11.099  21.234  0.00  0.00    +0.000 F 
ATOM     20  F   UNL     1      -1.193  10.390  19.767  0.00  0.00    +0.000 F 
ENDBRANCH  14  17
ENDBRANCH  10  11
ENDBRANCH   8  10
ENDBRANCH   2   6
BRANCH   5  21
ATOM     21  C   UNL     1       4.373   3.776  16.211  0.00  0.00    +0.000 C 
BRANCH  21  22
ATOM     22  C   UNL     1       3.515   3.599  17.424  0.00  0.00    +0.000 A 
ATOM     23  C   UNL     1       2.159   3.730  17.652  0.00  0.00    +0.000 A 
ATOM     24  C   UNL     1       1.934   3.373  19.007  0.00  0.00    +0.000 A 
ATOM     25  C   UNL     1       0.808   3.266  19.845  0.00  0.00    +0.000 A 
ATOM     26  C   UNL     1       0.992   2.865  21.176  0.00  0.00    +0.000 A 
ATOM     27  C   UNL     1       2.267   2.585  21.672  0.00  0.00    +0.000 A 
ATOM     28  C   UNL     1       3.400   2.685  20.855  0.00  0.00    +0.000 A 
ATOM     29  C   UNL     1       3.185   3.074  19.534  0.00  0.00    +0.000 A 
ATOM     30  O   UNL     1       4.144   3.210  18.575  0.00  0.00    +0.000 OA
ENDBRANCH  21  22
ENDBRANCH   5  21
TORSDOF 6
ENDMDL
MODEL 7
REMARK VINA RESULT:      -8.4      2.315      4.900
REMARK  Name = 
REMARK  7 active torsions:
REMARK  status: ('A' for Active; 'I' for Inactive)
REMARK    1  A    between atoms: C_1  and  C_2
REMARK    2  A    between atoms: C_2  and  C_3
REMARK    3  A    between atoms: N_5  and  C_6
REMARK    4  A    between atoms: C_6  and  C_7
REMARK    5  A    between atoms: C_10  and  C_11
REMARK    6  A    between atoms: N_19  and  C_20
REMARK    7  A    between atoms: C_20  and  C_21
REMARK                            x       y       z     vdW  Elec       q    Type
REMARK                         _______ _______ _______ _____ _____    ______ ____
ROOT
ATOM      1  C   UNL     1       7.171   5.786  17.435  0.00  0.00    +0.000 C 
ATOM      2  C   UNL     1       6.297   5.435  16.222  0.00  0.00    +0.000 C 
ATOM      3  C   UNL     1       7.271   5.017  15.079  0.00  0.00    +0.000 C 
ATOM      4  C   UNL     1       6.447   3.739  14.957  0.00  0.00    +0.000 C 
ATOM      5  N   UNL     1       5.857   3.995  16.289  0.00  0.00    +0.000 NA
ENDROOT
BRANCH   2   6
ATOM      6  C   UNL     1       5.168   6.514  15.775  0.00  0.00    +0.000 C 
ATOM      7  O   UNL     1       5.076   6.986  14.631  0.00  0.00    +0.000 OA
ATOM      8  N   UNL     1       4.191   6.915  16.668  0.00  0.00    +0.000 N 
ATOM      9  H   UNL     1       3.521   7.579  16.295  0.00  0.00    +0.000 HD
BRANCH   8  10
ATOM     10  C   UNL     1       4.115   6.536  18.049  0.00  0.00    +0.000 C 
BRANCH  10  11
ATOM     11  C   UNL     1       3.097   7.265  18.864  0.00  0.00    +0.000 A 
ATOM     12  C   UNL     1       2.522   8.448  18.390  0.00  0.00    +0.000 A 
ATOM     13  C   UNL     1       1.473   9.041  19.092  0.00  0.00    +0.000 A 
ATOM     14  C   UNL     1       0.997   8.468  20.280  0.00  0.00    +0.000 A 
ATOM     15  C   UNL     1       1.586   7.287  20.755  0.00  0.00    +0.000 A 
ATOM     16  C   UNL     1       2.634   6.696  20.056  0.00  0.00    +0.000 A 
BRANCH  14  17
ATOM     17  C   UNL     1      -0.131   9.099  21.055  0.00  0.00    +0.000 C 
ATOM     18  F   UNL     1       0.287   9.985  22.002  0.00  0.00    +0.000 F 
ATOM     19  F   UNL     1      -0.993   9.785  20.254  0.00  0.00    +0.000 F 
ATOM     20  F   UNL     1      -0.884   8.176  21.712  0.00  0.00    +0.000 F 
ENDBRANCH  14  17
ENDBRANCH  10  11
ENDBRANCH   8  10
ENDBRANCH   2   6
BRANCH   5  21
ATOM     21  C   UNL     1       4.397   3.802  16.218  0.00  0.00    +0.000 C 
BRANCH  21  22
ATOM     22  C   UNL     1       3.818   3.475  17.559  0.00  0.00    +0.000 A 
ATOM     23  C   UNL     1       4.374   3.068  18.756  0.00  0.00    +0.000 A 
ATOM     24  C   UNL     1       3.310   2.972  19.691  0.00  0.00    +0.000 A 
ATOM     25  C   UNL     1       3.198   2.647  21.055  0.00  0.00    +0.000 A 
ATOM     26  C   UNL     1       1.929   2.666  21.651  0.00  0.00    +0.000 A 
ATOM     27  C   UNL     1       0.791   2.990  20.910  0.00  0.00    +0.000 A 
ATOM     28  C   UNL     1       0.881   3.316  19.551  0.00  0.00    +0.000 A 
ATOM     29  C   UNL     1       2.157   3.301  18.989  0.00  0.00    +0.000 A 
ATOM     30  O   UNL     1       2.463   3.608  17.696  0.00  0.00    +0.000 OA
ENDBRANCH  21  22
ENDBRANCH   5  21
TORSDOF 6
ENDMDL
MODEL 8
REMARK VINA RESULT:      -8.3      0.717      1.225
REMARK  Name = 
REMARK  7 active torsions:
REMARK  status: ('A' for Active; 'I' for Inactive)
REMARK    1  A    between atoms: C_1  and  C_2
REMARK    2  A    between atoms: C_2  and  C_3
REMARK    3  A    between atoms: N_5  and  C_6
REMARK    4  A    between atoms: C_6  and  C_7
REMARK    5  A    between atoms: C_10  and  C_11
REMARK    6  A    between atoms: N_19  and  C_20
REMARK    7  A    between atoms: C_20  and  C_21
REMARK                            x       y       z     vdW  Elec       q    Type
REMARK                         _______ _______ _______ _____ _____    ______ ____
ROOT
ATOM      1  C   UNL     1       1.447   4.768  17.822  0.00  0.00    +0.000 C 
ATOM      2  C   UNL     1       1.851   3.739  18.887  0.00  0.00    +0.000 C 
ATOM      3  C   UNL     1       0.944   2.490  18.666  0.00  0.00    +0.000 C 
ATOM      4  C   UNL     1       2.230   1.668  18.622  0.00  0.00    +0.000 C 
ATOM      5  N   UNL     1       3.010   2.906  18.403  0.00  0.00    +0.000 NA
ENDROOT
BRANCH   2   6
ATOM      6  C   UNL     1       1.922   4.246  20.429  0.00  0.00    +0.000 C 
ATOM      7  O   UNL     1       1.652   3.531  21.407  0.00  0.00    +0.000 OA
ATOM      8  N   UNL     1       2.364   5.523  20.726  0.00  0.00    +0.000 N 
ATOM      9  H   UNL     1       2.388   5.745  21.716  0.00  0.00    +0.000 HD
BRANCH   8  10
ATOM     10  C   UNL     1       2.693   6.536  19.767  0.00  0.00    +0.000 C 
BRANCH  10  11
ATOM     11  C   UNL     1       1.897   7.798  19.861  0.00  0.00    +0.000 A 
ATOM     12  C   UNL     1       1.752   8.632  18.750  0.00  0.00    +0.000 A 
ATOM     13  C   UNL     1       0.893   9.729  18.810  0.00  0.00    +0.000 A 
ATOM     14  C   UNL     1       0.182  10.012  19.985  0.00  0.00    +0.000 A 
ATOM     15  C   UNL     1       0.340   9.177  21.101  0.00  0.00    +0.000 A 
ATOM     16  C   UNL     1       1.199   8.084  21.041  0.00  0.00    +0.000 A 
BRANCH  14  17
ATOM     17  C   UNL     1      -0.745  11.197  20.070  0.00  0.00    +0.000 C 
ATOM     18  F   UNL     1      -0.124  12.391  19.861  0.00  0.00    +0.000 F 
ATOM     19  F   UNL     1      -1.755  11.135  19.159  0.00  0.00    +0.000 F 
ATOM     20  F   UNL     1      -1.345  11.295  21.288  0.00  0.00    +0.000 F 
ENDBRANCH  14  17
ENDBRANCH  10  11
ENDBRANCH   8  10
ENDBRANCH   2   6
BRANCH   5  21
ATOM     21  C   UNL     1       4.178   2.908  19.304  0.00  0.00    +0.000 C 
BRANCH  21  22
ATOM     22  C   UNL     1       5.108   4.040  18.997  0.00  0.00    +0.000 A 
ATOM     23  C   UNL     1       6.254   4.514  19.604  0.00  0.00    +0.000 A 
ATOM     24  C   UNL     1       6.725   5.591  18.808  0.00  0.00    +0.000 A 
ATOM     25  C   UNL     1       7.828   6.463  18.849  0.00  0.00    +0.000 A 
ATOM     26  C   UNL     1       7.959   7.433  17.846  0.00  0.00    +0.000 A 
ATOM     27  C   UNL     1       7.011   7.545  16.826  0.00  0.00    +0.000 A 
ATOM     28  C   UNL     1       5.906   6.688  16.768  0.00  0.00    +0.000 A 
ATOM     29  C   UNL     1       5.809   5.726  17.772  0.00  0.00    +0.000 A 
ATOM     30  O   UNL     1       4.828   4.785  17.884  0.00  0.00    +0.000 OA
ENDBRANCH  21  22
ENDBRANCH   5  21
TORSDOF 6
ENDMDL
MODEL 9
REMARK VINA RESULT:      -8.2      1.812      2.430
REMARK  Name = 
REMARK  7 active torsions:
REMARK  status: ('A' for Active; 'I' for Inactive)
REMARK    1  A    between atoms: C_1  and  C_2
REMARK    2  A    between atoms: C_2  and  C_3
REMARK    3  A    between atoms: N_5  and  C_6
REMARK    4  A    between atoms: C_6  and  C_7
REMARK    5  A    between atoms: C_10  and  C_11
REMARK    6  A    between atoms: N_19  and  C_20
REMARK    7  A    between atoms: C_20  and  C_21
REMARK                            x       y       z     vdW  Elec       q    Type
REMARK                         _______ _______ _______ _____ _____    ______ ____
ROOT
ATOM      1  C   UNL     1       1.136   3.826  18.205  0.00  0.00    +0.000 C 
ATOM      2  C   UNL     1       2.317   3.414  19.095  0.00  0.00    +0.000 C 
ATOM      3  C   UNL     1       2.109   1.908  19.441  0.00  0.00    +0.000 C 
ATOM      4  C   UNL     1       3.529   1.680  18.931  0.00  0.00    +0.000 C 
ATOM      5  N   UNL     1       3.492   2.993  18.250  0.00  0.00    +0.000 NA
ENDROOT
BRANCH   2   6
ATOM      6  C   UNL     1       2.651   4.352  20.379  0.00  0.00    +0.000 C 
ATOM      7  O   UNL     1       2.737   3.930  21.542  0.00  0.00    +0.000 OA
ATOM      8  N   UNL     1       2.926   5.697  20.209  0.00  0.00    +0.000 N 
ATOM      9  H   UNL     1       3.138   6.199  21.065  0.00  0.00    +0.000 HD
BRANCH   8  10
ATOM     10  C   UNL     1       2.851   6.415  18.970  0.00  0.00    +0.000 C 
BRANCH  10  11
ATOM     11  C   UNL     1       2.148   7.733  19.029  0.00  0.00    +0.000 A 
ATOM     12  C   UNL     1       1.914   8.467  17.863  0.00  0.00    +0.000 A 
ATOM     13  C   UNL     1       1.135   9.622  17.912  0.00  0.00    +0.000 A 
ATOM     14  C   UNL     1       0.593  10.064  19.128  0.00  0.00    +0.000 A 
ATOM     15  C   UNL     1       0.840   9.328  20.296  0.00  0.00    +0.000 A 
ATOM     16  C   UNL     1       1.620   8.177  20.248  0.00  0.00    +0.000 A 
BRANCH  14  17
ATOM     17  C   UNL     1      -0.246  11.313  19.200  0.00  0.00    +0.000 C 
ATOM     18  F   UNL     1      -1.239  11.358  18.270  0.00  0.00    +0.000 F 
ATOM     19  F   UNL     1      -0.856  11.462  20.409  0.00  0.00    +0.000 F 
ATOM     20  F   UNL     1       0.494  12.441  19.012  0.00  0.00    +0.000 F 
ENDBRANCH  14  17
ENDBRANCH  10  11
ENDBRANCH   8  10
ENDBRANCH   2   6
BRANCH   5  21
ATOM     21  C   UNL     1       4.740   3.724  18.538  0.00  0.00    +0.000 C 
BRANCH  21  22
ATOM     22  C   UNL     1       5.463   4.097  17.282  0.00  0.00    +0.000 A 
ATOM     23  C   UNL     1       6.599   4.840  17.028  0.00  0.00    +0.000 A 
ATOM     24  C   UNL     1       6.818   4.791  15.627  0.00  0.00    +0.000 A 
ATOM     25  C   UNL     1       7.788   5.297  14.743  0.00  0.00    +0.000 A 
ATOM     26  C   UNL     1       7.661   5.026  13.373  0.00  0.00    +0.000 A 
ATOM     27  C   UNL     1       6.589   4.275  12.886  0.00  0.00    +0.000 A 
ATOM     28  C   UNL     1       5.613   3.762  13.748  0.00  0.00    +0.000 A 
ATOM     29  C   UNL     1       5.772   4.039  15.105  0.00  0.00    +0.000 A 
ATOM     30  O   UNL     1       4.950   3.616  16.108  0.00  0.00    +0.000 OA
ENDBRANCH  21  22
ENDBRANCH   5  21
TORSDOF 6
ENDMDL
