MODEL 1
REMARK VINA RESULT:      -8.0      0.000      0.000
REMARK  Name = 
REMARK  11 active torsions:
REMARK  status: ('A' for Active; 'I' for Inactive)
REMARK    1  A    between atoms: C_1  and  O_2
REMARK    2  A    between atoms: O_2  and  C_3
REMARK    3  A    between atoms: C_6  and  C_7
REMARK    4  A    between atoms: C_7  and  C_8
REMARK    5  A    between atoms: C_8  and  N_9
REMARK    6  A    between atoms: C_10  and  C_12
REMARK    7  A    between atoms: C_12  and  C_13
REMARK    8  A    between atoms: C_13  and  S_14
REMARK    9  A    between atoms: S_14  and  C_17
REMARK   10  A    between atoms: C_29  and  O_30
REMARK   11  A    between atoms: O_30  and  C_31
REMARK                            x       y       z     vdW  Elec       q    Type
REMARK                         _______ _______ _______ _____ _____    ______ ____
ROOT
ATOM      1  C   UNL     1       8.363   7.595  18.403  0.00  0.00    +0.000 C 
ENDROOT
BRANCH   1   3
ATOM      2  N   UNL     1       9.279   9.760  19.121  0.00  0.00    +0.000 N 
ATOM      3  C   UNL     1       8.389   9.105  18.307  0.00  0.00    +0.000 C 
ATOM      4  O   UNL     1       7.694   9.685  17.475  0.00  0.00    +0.000 OA
ATOM      5  H   UNL     1       9.831   9.262  19.804  0.00  0.00    +0.000 HD
BRANCH   2   6
ATOM      6  C   UNL     1       9.406  11.208  19.101  0.00  0.00    +0.000 C 
BRANCH   6   7
ATOM      7  C   UNL     1      10.336  11.705  20.210  0.00  0.00    +0.000 C 
BRANCH   7  11
ATOM      8  C   UNL     1      11.316  15.807  19.287  0.00  0.00    +0.000 A 
ATOM      9  C   UNL     1      12.328  14.847  19.453  0.00  0.00    +0.000 A 
ATOM     10  C   UNL     1      12.021  13.527  19.779  0.00  0.00    +0.000 A 
ATOM     11  C   UNL     1      10.695  13.150  19.990  0.00  0.00    +0.000 A 
ATOM     12  C   UNL     1       9.695  14.127  19.911  0.00  0.00    +0.000 A 
ATOM     13  C   UNL     1       9.988  15.456  19.567  0.00  0.00    +0.000 A 
BRANCH   8  15
ATOM     14  C   UNL     1      11.606  17.272  17.452  0.00  0.00    +0.000 C 
ATOM     15  O   UNL     1      11.611  17.078  18.868  0.00  0.00    +0.000 OA
ENDBRANCH   8  15
BRANCH  13  16
ATOM     16  O   UNL     1       8.857  16.226  19.522  0.00  0.00    +0.000 OA
ATOM     17  C   UNL     1       7.588  15.594  19.557  0.00  0.00    +0.000 C 
ENDBRANCH  13  16
ENDBRANCH   7  11
ENDBRANCH   6   7
ENDBRANCH   2   6
ENDBRANCH   1   3
BRANCH   1  18
ATOM     18  C   UNL     1       7.143   6.915  17.806  0.00  0.00    +0.000 C 
BRANCH  18  19
ATOM     19  S   UNL     1       7.154   5.176  18.213  0.00  0.00    +0.000 S 
ATOM     20  O   UNL     1       7.788   4.444  17.128  0.00  0.00    +0.000 OA
ATOM     21  O   UNL     1       7.620   5.042  19.576  0.00  0.00    +0.000 OA
BRANCH  19  22
ATOM     22  C   UNL     1       5.444   4.716  18.184  0.00  0.00    +0.000 A 
ATOM     23  C   UNL     1       4.853   4.129  17.057  0.00  0.00    +0.000 A 
ATOM     24  C   UNL     1       3.513   3.711  17.117  0.00  0.00    +0.000 A 
ATOM     25  C   UNL     1       2.776   3.903  18.287  0.00  0.00    +0.000 A 
ATOM     26  C   UNL     1       3.362   4.621  19.338  0.00  0.00    +0.000 A 
ATOM     27  C   UNL     1       4.694   4.991  19.320  0.00  0.00    +0.000 A 
ATOM     28  N   UNL     1       2.584   4.955  20.468  0.00  0.00    +0.000 N 
ATOM     29  C   UNL     1       2.141   3.811  21.106  0.00  0.00    +0.000 C 
ATOM     30  O   UNL     1       2.590   3.451  22.189  0.00  0.00    +0.000 OA
ATOM     31  C   UNL     1       1.054   3.052  20.362  0.00  0.00    +0.000 C 
ATOM     32  S   UNL     1       1.132   3.233  18.515  0.00  0.00    +0.000 S 
ATOM     33  H   UNL     1       1.743   5.401  20.097  0.00  0.00    +0.000 HD
ENDBRANCH  19  22
ENDBRANCH  18  19
ENDBRANCH   1  18
TORSDOF 9
ENDMDL
MODEL 2
REMARK VINA RESULT:      -7.9      3.567      4.465
REMARK  Name = 
REMARK  11 active torsions:
REMARK  status: ('A' for Active; 'I' for Inactive)
REMARK    1  A    between atoms: C_1  and  O_2
REMARK    2  A    between atoms: O_2  and  C_3
REMARK    3  A    between atoms: C_6  and  C_7
REMARK    4  A    between atoms: C_7  and  C_8
REMARK    5  A    between atoms: C_8  and  N_9
REMARK    6  A    between atoms: C_10  and  C_12
REMARK    7  A    between atoms: C_12  and  C_13
REMARK    8  A    between atoms: C_13  and  S_14
REMARK    9  A    between atoms: S_14  and  C_17
REMARK   10  A    between atoms: C_29  and  O_30
REMARK   11  A    between atoms: O_30  and  C_31
REMARK                            x       y       z     vdW  Elec       q    Type
REMARK                         _______ _______ _______ _____ _____    ______ ____
ROOT
ATOM      1  C   UNL     1       5.674   5.474  17.320  0.00  0.00    +0.000 C 
ENDROOT
BRANCH   1   3
ATOM      2  N   UNL     1       6.810   7.600  17.801  0.00  0.00    +0.000 N 
ATOM      3  C   UNL     1       6.739   6.496  16.989  0.00  0.00    +0.000 C 
ATOM      4  O   UNL     1       7.540   6.284  16.080  0.00  0.00    +0.000 OA
ATOM      5  H   UNL     1       6.134   7.756  18.534  0.00  0.00    +0.000 HD
BRANCH   2   6
ATOM      6  C   UNL     1       7.806   8.638  17.591  0.00  0.00    +0.000 C 
BRANCH   6   7
ATOM      7  C   UNL     1       8.739   8.772  18.798  0.00  0.00    +0.000 C 
BRANCH   7  11
ATOM      8  C   UNL     1       9.615  12.960  19.379  0.00  0.00    +0.000 A 
ATOM      9  C   UNL     1       9.584  12.405  18.089  0.00  0.00    +0.000 A 
ATOM     10  C   UNL     1       9.329  11.048  17.896  0.00  0.00    +0.000 A 
ATOM     11  C   UNL     1       9.145  10.208  18.993  0.00  0.00    +0.000 A 
ATOM     12  C   UNL     1       9.265  10.744  20.281  0.00  0.00    +0.000 A 
ATOM     13  C   UNL     1       9.504  12.111  20.491  0.00  0.00    +0.000 A 
BRANCH   8  15
ATOM     14  C   UNL     1       8.570  15.080  19.425  0.00  0.00    +0.000 C 
ATOM     15  O   UNL     1       9.764  14.309  19.564  0.00  0.00    +0.000 OA
ENDBRANCH   8  15
BRANCH  13  16
ATOM     16  O   UNL     1       9.554  12.416  21.825  0.00  0.00    +0.000 OA
ATOM     17  C   UNL     1       8.511  11.969  22.675  0.00  0.00    +0.000 C 
ENDBRANCH  13  16
ENDBRANCH   7  11
ENDBRANCH   6   7
ENDBRANCH   2   6
ENDBRANCH   1   3
BRANCH   1  18
ATOM     18  C   UNL     1       5.144   5.509  18.743  0.00  0.00    +0.000 C 
BRANCH  18  19
ATOM     19  S   UNL     1       3.383   5.210  18.745  0.00  0.00    +0.000 S 
ATOM     20  O   UNL     1       2.994   4.691  17.442  0.00  0.00    +0.000 OA
ATOM     21  O   UNL     1       3.054   4.497  19.959  0.00  0.00    +0.000 OA
BRANCH  19  22
ATOM     22  C   UNL     1       2.670   6.827  18.863  0.00  0.00    +0.000 A 
ATOM     23  C   UNL     1       2.591   7.685  17.757  0.00  0.00    +0.000 A 
ATOM     24  C   UNL     1       1.944   8.926  17.889  0.00  0.00    +0.000 A 
ATOM     25  C   UNL     1       1.407   9.303  19.122  0.00  0.00    +0.000 A 
ATOM     26  C   UNL     1       1.635   8.478  20.232  0.00  0.00    +0.000 A 
ATOM     27  C   UNL     1       2.219   7.231  20.113  0.00  0.00    +0.000 A 
ATOM     28  N   UNL     1       1.231   8.914  21.513  0.00  0.00    +0.000 N 
ATOM     29  C   UNL     1      -0.140   9.090  21.554  0.00  0.00    +0.000 C 
ATOM     30  O   UNL     1      -0.878   8.327  22.170  0.00  0.00    +0.000 OA
ATOM     31  C   UNL     1      -0.646  10.301  20.788  0.00  0.00    +0.000 C 
ATOM     32  S   UNL     1       0.406  10.771  19.332  0.00  0.00    +0.000 S 
ATOM     33  H   UNL     1       1.627   9.850  21.620  0.00  0.00    +0.000 HD
ENDBRANCH  19  22
ENDBRANCH  18  19
ENDBRANCH   1  18
TORSDOF 9
ENDMDL
MODEL 3
REMARK VINA RESULT:      -7.9      3.100      4.622
REMARK  Name = 
REMARK  11 active torsions:
REMARK  status: ('A' for Active; 'I' for Inactive)
REMARK    1  A    between atoms: C_1  and  O_2
REMARK    2  A    between atoms: O_2  and  C_3
REMARK    3  A    between atoms: C_6  and  C_7
REMARK    4  A    between atoms: C_7  and  C_8
REMARK    5  A    between atoms: C_8  and  N_9
REMARK    6  A    between atoms: C_10  and  C_12
REMARK    7  A    between atoms: C_12  and  C_13
REMARK    8  A    between atoms: C_13  and  S_14
REMARK    9  A    between atoms: S_14  and  C_17
REMARK   10  A    between atoms: C_29  and  O_30
REMARK   11  A    between atoms: O_30  and  C_31
REMARK                            x       y       z     vdW  Elec       q    Type
REMARK                         _______ _______ _______ _____ _____    ______ ____
ROOT
ATOM      1  C   UNL     1       5.421   4.313  18.286  0.00  0.00    +0.000 C 
ENDROOT
BRANCH   1   3
ATOM      2  N   UNL     1       6.966   6.163  17.803  0.00  0.00    +0.000 N 
ATOM      3  C   UNL     1       6.475   5.296  18.747  0.00  0.00    +0.000 C 
ATOM      4  O   UNL     1       6.799   5.348  19.932  0.00  0.00    +0.000 OA
ATOM      5  H   UNL     1       6.692   6.094  16.834  0.00  0.00    +0.000 HD
BRANCH   2   6
ATOM      6  C   UNL     1       7.967   7.165  18.135  0.00  0.00    +0.000 C 
BRANCH   6   7
ATOM      7  C   UNL     1       7.727   8.471  17.374  0.00  0.00    +0.000 C 
BRANCH   7  11
ATOM      8  C   UNL     1       9.653  11.784  19.363  0.00  0.00    +0.000 A 
ATOM      9  C   UNL     1       9.669  10.498  19.930  0.00  0.00    +0.000 A 
ATOM     10  C   UNL     1       9.025   9.430  19.307  0.00  0.00    +0.000 A 
ATOM     11  C   UNL     1       8.313   9.635  18.126  0.00  0.00    +0.000 A 
ATOM     12  C   UNL     1       8.224  10.933  17.608  0.00  0.00    +0.000 A 
ATOM     13  C   UNL     1       8.881  12.015  18.215  0.00  0.00    +0.000 A 
BRANCH   8  15
ATOM     14  C   UNL     1       9.910  13.252  21.198  0.00  0.00    +0.000 C 
ATOM     15  O   UNL     1      10.369  12.810  19.920  0.00  0.00    +0.000 OA
ENDBRANCH   8  15
BRANCH  13  16
ATOM     16  O   UNL     1       8.678  13.180  17.524  0.00  0.00    +0.000 OA
ATOM     17  C   UNL     1       7.898  14.206  18.114  0.00  0.00    +0.000 C 
ENDBRANCH  13  16
ENDBRANCH   7  11
ENDBRANCH   6   7
ENDBRANCH   2   6
ENDBRANCH   1   3
BRANCH   1  18
ATOM     18  C   UNL     1       4.651   3.605  19.387  0.00  0.00    +0.000 C 
BRANCH  18  19
ATOM     19  S   UNL     1       2.896   3.737  19.086  0.00  0.00    +0.000 S 
ATOM     20  O   UNL     1       2.613   3.251  17.744  0.00  0.00    +0.000 OA
ATOM     21  O   UNL     1       2.205   3.197  20.235  0.00  0.00    +0.000 OA
BRANCH  19  22
ATOM     22  C   UNL     1       2.594   5.482  19.050  0.00  0.00    +0.000 A 
ATOM     23  C   UNL     1       2.800   6.248  17.894  0.00  0.00    +0.000 A 
ATOM     24  C   UNL     1       2.468   7.613  17.900  0.00  0.00    +0.000 A 
ATOM     25  C   UNL     1       1.960   8.200  19.060  0.00  0.00    +0.000 A 
ATOM     26  C   UNL     1       1.905   7.432  20.231  0.00  0.00    +0.000 A 
ATOM     27  C   UNL     1       2.173   6.076  20.233  0.00  0.00    +0.000 A 
ATOM     28  N   UNL     1       1.536   8.049  21.447  0.00  0.00    +0.000 N 
ATOM     29  C   UNL     1       0.251   8.550  21.365  0.00  0.00    +0.000 C 
ATOM     30  O   UNL     1      -0.691   8.036  21.961  0.00  0.00    +0.000 OA
ATOM     31  C   UNL     1       0.107   9.785  20.491  0.00  0.00    +0.000 C 
ATOM     32  S   UNL     1       1.336   9.877  19.101  0.00  0.00    +0.000 S 
ATOM     33  H   UNL     1       2.141   8.868  21.532  0.00  0.00    +0.000 HD
ENDBRANCH  19  22
ENDBRANCH  18  19
ENDBRANCH   1  18
TORSDOF 9
ENDMDL
MODEL 4
REMARK VINA RESULT:      -7.8      5.880      9.057
REMARK  Name = 
REMARK  11 active torsions:
REMARK  status: ('A' for Active; 'I' for Inactive)
REMARK    1  A    between atoms: C_1  and  O_2
REMARK    2  A    between atoms: O_2  and  C_3
REMARK    3  A    between atoms: C_6  and  C_7
REMARK    4  A    between atoms: C_7  and  C_8
REMARK    5  A    between atoms: C_8  and  N_9
REMARK    6  A    between atoms: C_10  and  C_12
REMARK    7  A    between atoms: C_12  and  C_13
REMARK    8  A    between atoms: C_13  and  S_14
REMARK    9  A    between atoms: S_14  and  C_17
REMARK   10  A    between atoms: C_29  and  O_30
REMARK   11  A    between atoms: O_30  and  C_31
REMARK                            x       y       z     vdW  Elec       q    Type
REMARK                         _______ _______ _______ _____ _____    ______ ____
ROOT
ATOM      1  C   UNL     1       1.957   5.050  20.928  0.00  0.00    +0.000 C 
ENDROOT
BRANCH   1   3
ATOM      2  N   UNL     1       1.105   7.333  21.254  0.00  0.00    +0.000 N 
ATOM      3  C   UNL     1       1.940   6.512  20.538  0.00  0.00    +0.000 C 
ATOM      4  O   UNL     1       2.707   6.931  19.673  0.00  0.00    +0.000 OA
ATOM      5  H   UNL     1       0.478   6.962  21.952  0.00  0.00    +0.000 HD
BRANCH   2   6
ATOM      6  C   UNL     1       1.022   8.759  20.982  0.00  0.00    +0.000 C 
BRANCH   6   7
ATOM      7  C   UNL     1       0.773   9.560  22.262  0.00  0.00    +0.000 C 
BRANCH   7  11
ATOM      8  C   UNL     1      -2.324  12.527  21.763  0.00  0.00    +0.000 A 
ATOM      9  C   UNL     1      -2.156  11.864  22.990  0.00  0.00    +0.000 A 
ATOM     10  C   UNL     1      -1.177  10.884  23.150  0.00  0.00    +0.000 A 
ATOM     11  C   UNL     1      -0.374  10.516  22.071  0.00  0.00    +0.000 A 
ATOM     12  C   UNL     1      -0.600  11.115  20.826  0.00  0.00    +0.000 A 
ATOM     13  C   UNL     1      -1.571  12.114  20.654  0.00  0.00    +0.000 A 
BRANCH   8  15
ATOM     14  C   UNL     1      -3.971  13.864  22.808  0.00  0.00    +0.000 C 
ATOM     15  O   UNL     1      -3.216  13.559  21.634  0.00  0.00    +0.000 OA
ENDBRANCH   8  15
BRANCH  13  16
ATOM     16  O   UNL     1      -1.598  12.575  19.365  0.00  0.00    +0.000 OA
ATOM     17  C   UNL     1      -0.375  12.871  18.711  0.00  0.00    +0.000 C 
ENDBRANCH  13  16
ENDBRANCH   7  11
ENDBRANCH   6   7
ENDBRANCH   2   6
ENDBRANCH   1   3
BRANCH   1  18
ATOM     18  C   UNL     1       1.210   4.109  20.000  0.00  0.00    +0.000 C 
BRANCH  18  19
ATOM     19  S   UNL     1       2.344   2.930  19.284  0.00  0.00    +0.000 S 
ATOM     20  O   UNL     1       3.037   2.236  20.359  0.00  0.00    +0.000 OA
ATOM     21  O   UNL     1       1.636   2.197  18.258  0.00  0.00    +0.000 OA
BRANCH  19  22
ATOM     22  C   UNL     1       3.563   3.934  18.482  0.00  0.00    +0.000 A 
ATOM     23  C   UNL     1       3.232   4.811  17.440  0.00  0.00    +0.000 A 
ATOM     24  C   UNL     1       4.224   5.642  16.893  0.00  0.00    +0.000 A 
ATOM     25  C   UNL     1       5.533   5.573  17.375  0.00  0.00    +0.000 A 
ATOM     26  C   UNL     1       5.848   4.583  18.316  0.00  0.00    +0.000 A 
ATOM     27  C   UNL     1       4.878   3.795  18.906  0.00  0.00    +0.000 A 
ATOM     28  N   UNL     1       7.194   4.399  18.703  0.00  0.00    +0.000 N 
ATOM     29  C   UNL     1       7.686   5.543  19.304  0.00  0.00    +0.000 C 
ATOM     30  O   UNL     1       7.908   5.604  20.509  0.00  0.00    +0.000 OA
ATOM     31  C   UNL     1       7.933   6.702  18.352  0.00  0.00    +0.000 C 
ATOM     32  S   UNL     1       6.811   6.721  16.873  0.00  0.00    +0.000 S 
ATOM     33  H   UNL     1       7.718   4.306  17.831  0.00  0.00    +0.000 HD
ENDBRANCH  19  22
ENDBRANCH  18  19
ENDBRANCH   1  18
TORSDOF 9
ENDMDL
MODEL 5
REMARK VINA RESULT:      -7.8      6.514      9.151
REMARK  Name = 
REMARK  11 active torsions:
REMARK  status: ('A' for Active; 'I' for Inactive)
REMARK    1  A    between atoms: C_1  and  O_2
REMARK    2  A    between atoms: O_2  and  C_3
REMARK    3  A    between atoms: C_6  and  C_7
REMARK    4  A    between atoms: C_7  and  C_8
REMARK    5  A    between atoms: C_8  and  N_9
REMARK    6  A    between atoms: C_10  and  C_12
REMARK    7  A    between atoms: C_12  and  C_13
REMARK    8  A    between atoms: C_13  and  S_14
REMARK    9  A    between atoms: S_14  and  C_17
REMARK   10  A    between atoms: C_29  and  O_30
REMARK   11  A    between atoms: O_30  and  C_31
REMARK                            x       y       z     vdW  Elec       q    Type
REMARK                         _______ _______ _______ _____ _____    ______ ____
ROOT
ATOM      1  C   UNL     1       1.614   5.759  20.138  0.00  0.00    +0.000 C 
ENDROOT
BRANCH   1   3
ATOM      2  N   UNL     1       1.338   7.704  21.616  0.00  0.00    +0.000 N 
ATOM      3  C   UNL     1       1.713   7.250  20.376  0.00  0.00    +0.000 C 
ATOM      4  O   UNL     1       2.185   7.985  19.511  0.00  0.00    +0.000 OA
ATOM      5  H   UNL     1       0.944   7.081  22.305  0.00  0.00    +0.000 HD
BRANCH   2   6
ATOM      6  C   UNL     1       1.411   9.113  21.965  0.00  0.00    +0.000 C 
BRANCH   6   7
ATOM      7  C   UNL     1       0.345   9.491  22.997  0.00  0.00    +0.000 C 
BRANCH   7  11
ATOM      8  C   UNL     1      -2.211  12.599  21.432  0.00  0.00    +0.000 A 
ATOM      9  C   UNL     1      -1.005  12.270  20.791  0.00  0.00    +0.000 A 
ATOM     10  C   UNL     1      -0.161  11.287  21.306  0.00  0.00    +0.000 A 
ATOM     11  C   UNL     1      -0.485  10.644  22.500  0.00  0.00    +0.000 A 
ATOM     12  C   UNL     1      -1.642  11.034  23.185  0.00  0.00    +0.000 A 
ATOM     13  C   UNL     1      -2.509  12.010  22.670  0.00  0.00    +0.000 A 
BRANCH   8  15
ATOM     14  C   UNL     1      -2.732  14.868  21.014  0.00  0.00    +0.000 C 
ATOM     15  O   UNL     1      -3.087  13.491  20.873  0.00  0.00    +0.000 OA
ENDBRANCH   8  15
BRANCH  13  16
ATOM     16  O   UNL     1      -3.587  12.211  23.490  0.00  0.00    +0.000 OA
ATOM     17  C   UNL     1      -3.609  13.348  24.337  0.00  0.00    +0.000 C 
ENDBRANCH  13  16
ENDBRANCH   7  11
ENDBRANCH   6   7
ENDBRANCH   2   6
ENDBRANCH   1   3
BRANCH   1  18
ATOM     18  C   UNL     1       2.088   4.874  21.278  0.00  0.00    +0.000 C 
BRANCH  18  19
ATOM     19  S   UNL     1       2.335   3.205  20.692  0.00  0.00    +0.000 S 
ATOM     20  O   UNL     1       3.209   2.507  21.622  0.00  0.00    +0.000 OA
ATOM     21  O   UNL     1       1.042   2.664  20.334  0.00  0.00    +0.000 OA
BRANCH  19  22
ATOM     22  C   UNL     1       3.265   3.405  19.198  0.00  0.00    +0.000 A 
ATOM     23  C   UNL     1       2.686   3.225  17.934  0.00  0.00    +0.000 A 
ATOM     24  C   UNL     1       3.450   3.474  16.781  0.00  0.00    +0.000 A 
ATOM     25  C   UNL     1       4.781   3.876  16.903  0.00  0.00    +0.000 A 
ATOM     26  C   UNL     1       5.359   3.905  18.180  0.00  0.00    +0.000 A 
ATOM     27  C   UNL     1       4.612   3.718  19.328  0.00  0.00    +0.000 A 
ATOM     28  N   UNL     1       6.741   4.163  18.309  0.00  0.00    +0.000 N 
ATOM     29  C   UNL     1       7.047   5.419  17.820  0.00  0.00    +0.000 C 
ATOM     30  O   UNL     1       7.350   6.352  18.559  0.00  0.00    +0.000 OA
ATOM     31  C   UNL     1       6.986   5.542  16.307  0.00  0.00    +0.000 C 
ATOM     32  S   UNL     1       5.766   4.397  15.502  0.00  0.00    +0.000 S 
ATOM     33  H   UNL     1       7.201   3.507  17.675  0.00  0.00    +0.000 HD
ENDBRANCH  19  22
ENDBRANCH  18  19
ENDBRANCH   1  18
TORSDOF 9
ENDMDL
MODEL 6
REMARK VINA RESULT:      -7.8      6.391      8.996
REMARK  Name = 
REMARK  11 active torsions:
REMARK  status: ('A' for Active; 'I' for Inactive)
REMARK    1  A    between atoms: C_1  and  O_2
REMARK    2  A    between atoms: O_2  and  C_3
REMARK    3  A    between atoms: C_6  and  C_7
REMARK    4  A    between atoms: C_7  and  C_8
REMARK    5  A    between atoms: C_8  and  N_9
REMARK    6  A    between atoms: C_10  and  C_12
REMARK    7  A    between atoms: C_12  and  C_13
REMARK    8  A    between atoms: C_13  and  S_14
REMARK    9  A    between atoms: S_14  and  C_17
REMARK   10  A    between atoms: C_29  and  O_30
REMARK   11  A    between atoms: O_30  and  C_31
REMARK                            x       y       z     vdW  Elec       q    Type
REMARK                         _______ _______ _______ _____ _____    ______ ____
ROOT
ATOM      1  C   UNL     1       1.520   5.376  20.275  0.00  0.00    +0.000 C 
ENDROOT
BRANCH   1   3
ATOM      2  N   UNL     1       1.289   7.515  21.466  0.00  0.00    +0.000 N 
ATOM      3  C   UNL     1       1.800   6.860  20.373  0.00  0.00    +0.000 C 
ATOM      4  O   UNL     1       2.521   7.411  19.542  0.00  0.00    +0.000 OA
ATOM      5  H   UNL     1       0.692   7.042  22.128  0.00  0.00    +0.000 HD
BRANCH   2   6
ATOM      6  C   UNL     1       1.512   8.936  21.675  0.00  0.00    +0.000 C 
BRANCH   6   7
ATOM      7  C   UNL     1       0.207   9.666  22.003  0.00  0.00    +0.000 C 
BRANCH   7  11
ATOM      8  C   UNL     1      -1.623  11.438  18.516  0.00  0.00    +0.000 A 
ATOM      9  C   UNL     1      -0.729  10.361  18.390  0.00  0.00    +0.000 A 
ATOM     10  C   UNL     1      -0.113   9.803  19.508  0.00  0.00    +0.000 A 
ATOM     11  C   UNL     1      -0.344  10.339  20.774  0.00  0.00    +0.000 A 
ATOM     12  C   UNL     1      -1.165  11.467  20.890  0.00  0.00    +0.000 A 
ATOM     13  C   UNL     1      -1.805  12.030  19.775  0.00  0.00    +0.000 A 
BRANCH   8  15
ATOM     14  C   UNL     1      -3.576  11.315  17.189  0.00  0.00    +0.000 C 
ATOM     15  O   UNL     1      -2.305  11.920  17.431  0.00  0.00    +0.000 OA
ENDBRANCH   8  15
BRANCH  13  16
ATOM     16  O   UNL     1      -2.579  13.104  20.125  0.00  0.00    +0.000 OA
ATOM     17  C   UNL     1      -3.763  12.888  20.874  0.00  0.00    +0.000 C 
ENDBRANCH  13  16
ENDBRANCH   7  11
ENDBRANCH   6   7
ENDBRANCH   2   6
ENDBRANCH   1   3
BRANCH   1  18
ATOM     18  C   UNL     1       2.182   4.508  21.330  0.00  0.00    +0.000 C 
BRANCH  18  19
ATOM     19  S   UNL     1       2.635   2.931  20.624  0.00  0.00    +0.000 S 
ATOM     20  O   UNL     1       3.610   2.291  21.493  0.00  0.00    +0.000 OA
ATOM     21  O   UNL     1       1.418   2.250  20.240  0.00  0.00    +0.000 OA
BRANCH  19  22
ATOM     22  C   UNL     1       3.502   3.355  19.139  0.00  0.00    +0.000 A 
ATOM     23  C   UNL     1       2.872   3.362  17.888  0.00  0.00    +0.000 A 
ATOM     24  C   UNL     1       3.588   3.784  16.755  0.00  0.00    +0.000 A 
ATOM     25  C   UNL     1       4.924   4.169  16.880  0.00  0.00    +0.000 A 
ATOM     26  C   UNL     1       5.554   4.009  18.121  0.00  0.00    +0.000 A 
ATOM     27  C   UNL     1       4.854   3.650  19.259  0.00  0.00    +0.000 A 
ATOM     28  N   UNL     1       6.941   4.251  18.231  0.00  0.00    +0.000 N 
ATOM     29  C   UNL     1       7.229   5.568  17.923  0.00  0.00    +0.000 C 
ATOM     30  O   UNL     1       7.564   6.381  18.778  0.00  0.00    +0.000 OA
ATOM     31  C   UNL     1       7.105   5.914  16.448  0.00  0.00    +0.000 C 
ATOM     32  S   UNL     1       5.851   4.896  15.532  0.00  0.00    +0.000 S 
ATOM     33  H   UNL     1       7.373   3.699  17.488  0.00  0.00    +0.000 HD
ENDBRANCH  19  22
ENDBRANCH  18  19
ENDBRANCH   1  18
TORSDOF 9
ENDMDL
MODEL 7
REMARK VINA RESULT:      -7.7      6.913     10.613
REMARK  Name = 
REMARK  11 active torsions:
REMARK  status: ('A' for Active; 'I' for Inactive)
REMARK    1  A    between atoms: C_1  and  O_2
REMARK    2  A    between atoms: O_2  and  C_3
REMARK    3  A    between atoms: C_6  and  C_7
REMARK    4  A    between atoms: C_7  and  C_8
REMARK    5  A    between atoms: C_8  and  N_9
REMARK    6  A    between atoms: C_10  and  C_12
REMARK    7  A    between atoms: C_12  and  C_13
REMARK    8  A    between atoms: C_13  and  S_14
REMARK    9  A    between atoms: S_14  and  C_17
REMARK   10  A    between atoms: C_29  and  O_30
REMARK   11  A    between atoms: O_30  and  C_31
REMARK                            x       y       z     vdW  Elec       q    Type
REMARK                         _______ _______ _______ _____ _____    ______ ____
ROOT
ATOM      1  C   UNL     1       1.216   9.133  21.974  0.00  0.00    +0.000 C 
ENDROOT
BRANCH   1   3
ATOM      2  N   UNL     1       1.823   6.978  20.959  0.00  0.00    +0.000 N 
ATOM      3  C   UNL     1       1.508   8.297  20.748  0.00  0.00    +0.000 C 
ATOM      4  O   UNL     1       1.383   8.780  19.624  0.00  0.00    +0.000 OA
ATOM      5  H   UNL     1       1.930   6.607  21.892  0.00  0.00    +0.000 HD
BRANCH   2   6
ATOM      6  C   UNL     1       2.102   6.074  19.855  0.00  0.00    +0.000 C 
BRANCH   6   7
ATOM      7  C   UNL     1       3.043   4.944  20.279  0.00  0.00    +0.000 C 
BRANCH   7  11
ATOM      8  C   UNL     1       5.733   4.265  16.971  0.00  0.00    +0.000 A 
ATOM      9  C   UNL     1       4.472   3.646  17.010  0.00  0.00    +0.000 A 
ATOM     10  C   UNL     1       3.610   3.839  18.089  0.00  0.00    +0.000 A 
ATOM     11  C   UNL     1       4.010   4.618  19.173  0.00  0.00    +0.000 A 
ATOM     12  C   UNL     1       5.300   5.162  19.174  0.00  0.00    +0.000 A 
ATOM     13  C   UNL     1       6.173   4.991  18.088  0.00  0.00    +0.000 A 
BRANCH   8  15
ATOM     14  C   UNL     1       6.208   5.027  14.784  0.00  0.00    +0.000 C 
ATOM     15  O   UNL     1       6.538   4.158  15.868  0.00  0.00    +0.000 OA
ENDBRANCH   8  15
BRANCH  13  16
ATOM     16  O   UNL     1       7.366   5.631  18.294  0.00  0.00    +0.000 OA
ATOM     17  C   UNL     1       7.523   6.963  17.836  0.00  0.00    +0.000 C 
ENDBRANCH  13  16
ENDBRANCH   7  11
ENDBRANCH   6   7
ENDBRANCH   2   6
ENDBRANCH   1   3
BRANCH   1  18
ATOM     18  C   UNL     1      -0.198   9.675  22.083  0.00  0.00    +0.000 C 
BRANCH  18  19
ATOM     19  S   UNL     1      -0.222  11.406  21.642  0.00  0.00    +0.000 S 
ATOM     20  O   UNL     1      -0.910  12.147  22.688  0.00  0.00    +0.000 OA
ATOM     21  O   UNL     1       1.110  11.776  21.219  0.00  0.00    +0.000 OA
BRANCH  19  22
ATOM     22  C   UNL     1      -1.274  11.473  20.218  0.00  0.00    +0.000 A 
ATOM     23  C   UNL     1      -0.895  10.916  18.989  0.00  0.00    +0.000 A 
ATOM     24  C   UNL     1      -1.801  10.929  17.915  0.00  0.00    +0.000 A 
ATOM     25  C   UNL     1      -3.059  11.514  18.073  0.00  0.00    +0.000 A 
ATOM     26  C   UNL     1      -3.341  12.184  19.271  0.00  0.00    +0.000 A 
ATOM     27  C   UNL     1      -2.487  12.135  20.358  0.00  0.00    +0.000 A 
ATOM     28  N   UNL     1      -4.547  12.908  19.393  0.00  0.00    +0.000 N 
ATOM     29  C   UNL     1      -5.634  12.063  19.267  0.00  0.00    +0.000 C 
ATOM     30  O   UNL     1      -6.343  11.764  20.223  0.00  0.00    +0.000 OA
ATOM     31  C   UNL     1      -5.877  11.552  17.857  0.00  0.00    +0.000 C 
ATOM     32  S   UNL     1      -4.339  11.406  16.827  0.00  0.00    +0.000 S 
ATOM     33  H   UNL     1      -4.582  13.518  18.574  0.00  0.00    +0.000 HD
ENDBRANCH  19  22
ENDBRANCH  18  19
ENDBRANCH   1  18
TORSDOF 9
ENDMDL
MODEL 8
REMARK VINA RESULT:      -7.7      6.466      9.360
REMARK  Name = 
REMARK  11 active torsions:
REMARK  status: ('A' for Active; 'I' for Inactive)
REMARK    1  A    between atoms: C_1  and  O_2
REMARK    2  A    between atoms: O_2  and  C_3
REMARK    3  A    between atoms: C_6  and  C_7
REMARK    4  A    between atoms: C_7  and  C_8
REMARK    5  A    between atoms: C_8  and  N_9
REMARK    6  A    between atoms: C_10  and  C_12
REMARK    7  A    between atoms: C_12  and  C_13
REMARK    8  A    between atoms: C_13  and  S_14
REMARK    9  A    between atoms: S_14  and  C_17
REMARK   10  A    between atoms: C_29  and  O_30
REMARK   11  A    between atoms: O_30  and  C_31
REMARK                            x       y       z     vdW  Elec       q    Type
REMARK                         _______ _______ _______ _____ _____    ______ ____
ROOT
ATOM      1  C   UNL     1       2.416   5.841  20.688  0.00  0.00    +0.000 C 
ENDROOT
BRANCH   1   3
ATOM      2  N   UNL     1       1.529   8.075  20.172  0.00  0.00    +0.000 N 
ATOM      3  C   UNL     1       2.246   6.994  19.723  0.00  0.00    +0.000 C 
ATOM      4  O   UNL     1       2.802   6.972  18.626  0.00  0.00    +0.000 OA
ATOM      5  H   UNL     1       1.074   8.065  21.072  0.00  0.00    +0.000 HD
BRANCH   2   6
ATOM      6  C   UNL     1       1.319   9.249  19.340  0.00  0.00    +0.000 C 
BRANCH   6   7
ATOM      7  C   UNL     1       0.609  10.364  20.111  0.00  0.00    +0.000 C 
BRANCH   7  11
ATOM      8  C   UNL     1      -3.079  11.440  18.141  0.00  0.00    +0.000 A 
ATOM      9  C   UNL     1      -2.142  10.606  17.506  0.00  0.00    +0.000 A 
ATOM     10  C   UNL     1      -0.937  10.278  18.125  0.00  0.00    +0.000 A 
ATOM     11  C   UNL     1      -0.624  10.813  19.374  0.00  0.00    +0.000 A 
ATOM     12  C   UNL     1      -1.518  11.713  19.966  0.00  0.00    +0.000 A 
ATOM     13  C   UNL     1      -2.742  12.040  19.363  0.00  0.00    +0.000 A 
BRANCH   8  15
ATOM     14  C   UNL     1      -5.401  10.993  18.183  0.00  0.00    +0.000 C 
ATOM     15  O   UNL     1      -4.305  11.681  17.578  0.00  0.00    +0.000 OA
ENDBRANCH   8  15
BRANCH  13  16
ATOM     16  O   UNL     1      -3.466  12.913  20.130  0.00  0.00    +0.000 OA
ATOM     17  C   UNL     1      -2.786  13.759  21.042  0.00  0.00    +0.000 C 
ENDBRANCH  13  16
ENDBRANCH   7  11
ENDBRANCH   6   7
ENDBRANCH   2   6
ENDBRANCH   1   3
BRANCH   1  18
ATOM     18  C   UNL     1       1.323   4.787  20.657  0.00  0.00    +0.000 C 
BRANCH  18  19
ATOM     19  S   UNL     1       2.027   3.192  20.271  0.00  0.00    +0.000 S 
ATOM     20  O   UNL     1       2.879   2.776  21.374  0.00  0.00    +0.000 OA
ATOM     21  O   UNL     1       0.962   2.340  19.789  0.00  0.00    +0.000 OA
BRANCH  19  22
ATOM     22  C   UNL     1       3.111   3.516  18.908  0.00  0.00    +0.000 A 
ATOM     23  C   UNL     1       2.646   3.568  17.586  0.00  0.00    +0.000 A 
ATOM     24  C   UNL     1       3.535   3.909  16.553  0.00  0.00    +0.000 A 
ATOM     25  C   UNL     1       4.875   4.169  16.846  0.00  0.00    +0.000 A 
ATOM     26  C   UNL     1       5.326   3.965  18.157  0.00  0.00    +0.000 A 
ATOM     27  C   UNL     1       4.459   3.686  19.197  0.00  0.00    +0.000 A 
ATOM     28  N   UNL     1       6.705   4.078  18.441  0.00  0.00    +0.000 N 
ATOM     29  C   UNL     1       7.152   5.358  18.173  0.00  0.00    +0.000 C 
ATOM     30  O   UNL     1       7.451   6.146  19.064  0.00  0.00    +0.000 OA
ATOM     31  C   UNL     1       7.248   5.698  16.694  0.00  0.00    +0.000 C 
ATOM     32  S   UNL     1       6.028   4.791  15.627  0.00  0.00    +0.000 S 
ATOM     33  H   UNL     1       7.173   3.480  17.758  0.00  0.00    +0.000 HD
ENDBRANCH  19  22
ENDBRANCH  18  19
ENDBRANCH   1  18
TORSDOF 9
ENDMDL
MODEL 9
REMARK VINA RESULT:      -7.7      1.329      1.713
REMARK  Name = 
REMARK  11 active torsions:
REMARK  status: ('A' for Active; 'I' for Inactive)
REMARK    1  A    between atoms: C_1  and  O_2
REMARK    2  A    between atoms: O_2  and  C_3
REMARK    3  A    between atoms: C_6  and  C_7
REMARK    4  A    between atoms: C_7  and  C_8
REMARK    5  A    between atoms: C_8  and  N_9
REMARK    6  A    between atoms: C_10  and  C_12
REMARK    7  A    between atoms: C_12  and  C_13
REMARK    8  A    between atoms: C_13  and  S_14
REMARK    9  A    between atoms: S_14  and  C_17
REMARK   10  A    between atoms: C_29  and  O_30
REMARK   11  A    between atoms: O_30  and  C_31
REMARK                            x       y       z     vdW  Elec       q    Type
REMARK                         _______ _______ _______ _____ _____    ______ ____
ROOT
ATOM      1  C   UNL     1       7.434   7.506  17.033  0.00  0.00    +0.000 C 
ENDROOT
BRANCH   1   3
ATOM      2  N   UNL     1       8.368   9.625  17.858  0.00  0.00    +0.000 N 
ATOM      3  C   UNL     1       8.249   8.272  18.052  0.00  0.00    +0.000 C 
ATOM      4  O   UNL     1       8.703   7.697  19.040  0.00  0.00    +0.000 OA
ATOM      5  H   UNL     1       7.995  10.071  17.033  0.00  0.00    +0.000 HD
BRANCH   2   6
ATOM      6  C   UNL     1       9.110  10.466  18.784  0.00  0.00    +0.000 C 
BRANCH   6   7
ATOM      7  C   UNL     1      10.268  11.182  18.086  0.00  0.00    +0.000 C 
BRANCH   7  11
ATOM      8  C   UNL     1      11.125  15.073  19.751  0.00  0.00    +0.000 A 
ATOM      9  C   UNL     1      10.735  14.007  20.579  0.00  0.00    +0.000 A 
ATOM     10  C   UNL     1      10.429  12.756  20.045  0.00  0.00    +0.000 A 
ATOM     11  C   UNL     1      10.464  12.557  18.666  0.00  0.00    +0.000 A 
ATOM     12  C   UNL     1      10.767  13.643  17.835  0.00  0.00    +0.000 A 
ATOM     13  C   UNL     1      11.093  14.904  18.359  0.00  0.00    +0.000 A 
BRANCH   8  15
ATOM     14  C   UNL     1      10.524  16.971  21.027  0.00  0.00    +0.000 C 
ATOM     15  O   UNL     1      11.522  16.271  20.282  0.00  0.00    +0.000 OA
ENDBRANCH   8  15
BRANCH  13  16
ATOM     16  O   UNL     1      11.380  15.803  17.367  0.00  0.00    +0.000 OA
ATOM     17  C   UNL     1      10.420  16.792  17.032  0.00  0.00    +0.000 C 
ENDBRANCH  13  16
ENDBRANCH   7  11
ENDBRANCH   6   7
ENDBRANCH   2   6
ENDBRANCH   1   3
BRANCH   1  18
ATOM     18  C   UNL     1       6.169   6.850  17.556  0.00  0.00    +0.000 C 
BRANCH  18  19
ATOM     19  S   UNL     1       6.413   5.087  17.703  0.00  0.00    +0.000 S 
ATOM     20  O   UNL     1       6.878   4.570  16.426  0.00  0.00    +0.000 OA
ATOM     21  O   UNL     1       7.152   4.840  18.922  0.00  0.00    +0.000 OA
BRANCH  19  22
ATOM     22  C   UNL     1       4.778   4.442  17.929  0.00  0.00    +0.000 A 
ATOM     23  C   UNL     1       4.150   3.655  16.954  0.00  0.00    +0.000 A 
ATOM     24  C   UNL     1       2.885   3.104  17.218  0.00  0.00    +0.000 A 
ATOM     25  C   UNL     1       2.255   3.362  18.437  0.00  0.00    +0.000 A 
ATOM     26  C   UNL     1       2.855   4.269  19.322  0.00  0.00    +0.000 A 
ATOM     27  C   UNL     1       4.122   4.777  19.106  0.00  0.00    +0.000 A 
ATOM     28  N   UNL     1       2.162   4.657  20.490  0.00  0.00    +0.000 N 
ATOM     29  C   UNL     1       1.932   3.563  21.303  0.00  0.00    +0.000 C 
ATOM     30  O   UNL     1       2.532   3.395  22.360  0.00  0.00    +0.000 OA
ATOM     31  C   UNL     1       0.875   2.601  20.784  0.00  0.00    +0.000 C 
ATOM     32  S   UNL     1       0.738   2.552  18.933  0.00  0.00    +0.000 S 
ATOM     33  H   UNL     1       1.239   4.957  20.173  0.00  0.00    +0.000 HD
ENDBRANCH  19  22
ENDBRANCH  18  19
ENDBRANCH   1  18
TORSDOF 9
ENDMDL
