MODEL 1
REMARK VINA RESULT:      -6.7      0.000      0.000
REMARK  Name = 
REMARK  5 active torsions:
REMARK  status: ('A' for Active; 'I' for Inactive)
REMARK    1  A    between atoms: O5*_1  and  C5*_2
REMARK    2  A    between atoms: C5*_2  and  C4*_3
REMARK    3  A    between atoms: C1*_5  and  N_6
REMARK    4  A    between atoms: C2*_16  and  O2*_17
REMARK    5  A    between atoms: C3*_18  and  O3*_19
REMARK                            x       y       z     vdW  Elec       q    Type
REMARK                         _______ _______ _______ _____ _____    ______ ____
ROOT
ATOM      1  C4* UNL     1       1.793   2.401  20.199  0.00  0.00    +0.000 C 
ATOM      2  O4* UNL     1       3.113   2.367  19.606  0.00  0.00    +0.000 OA
ATOM      3  C1* UNL     1       3.624   3.726  19.516  0.00  0.00    +0.000 C 
ATOM      4  C2* UNL     1       2.492   4.675  19.916  0.00  0.00    +0.000 C 
ATOM      5  C3* UNL     1       1.652   3.785  20.821  0.00  0.00    +0.000 C 
ENDROOT
BRANCH   3   6
ATOM      6  N   UNL     1       4.161   3.950  18.188  0.00  0.00    +0.000 N 
ATOM      7  C   UNL     1       3.487   3.869  17.000  0.00  0.00    +0.000 A 
ATOM      8  N   UNL     1       4.275   4.079  15.966  0.00  0.00    +0.000 NA
ATOM      9  C   UNL     1       5.524   4.299  16.510  0.00  0.00    +0.000 A 
ATOM     10  C   UNL     1       6.782   4.559  15.961  0.00  0.00    +0.000 A 
ATOM     11  I   UNL     1       7.069   4.655  13.912  0.00  0.00    +0.000 I 
ATOM     12  N   UNL     1       7.849   4.737  16.784  0.00  0.00    +0.000 NA
ATOM     13  C   UNL     1       7.640   4.646  18.112  0.00  0.00    +0.000 A 
ATOM     14  N   UNL     1       6.488   4.382  18.756  0.00  0.00    +0.000 NA
ATOM     15  C   UNL     1       5.469   4.227  17.895  0.00  0.00    +0.000 A 
ENDBRANCH   3   6
BRANCH   4  16
ATOM     16  O2* UNL     1       2.939   5.835  20.620  0.00  0.00    +0.000 OA
ATOM     17  H2* UNL     1       3.490   5.508  21.363  0.00  0.00    +0.000 HD
ENDBRANCH   4  16
BRANCH   5  18
ATOM     18  O3* UNL     1       2.230   3.816  22.145  0.00  0.00    +0.000 OA
ATOM     19  H3* UNL     1       2.459   2.905  22.412  0.00  0.00    +0.000 HD
ENDBRANCH   5  18
BRANCH   1  20
ATOM     20  C5* UNL     1       0.729   2.084  19.142  0.00  0.00    +0.000 C 
BRANCH  20  21
ATOM     21  O5* UNL     1       1.319   1.610  17.939  0.00  0.00    +0.000 OA
ATOM     22  H5* UNL     1       2.200   1.258  18.165  0.00  0.00    +0.000 HD
ENDBRANCH  20  21
ENDBRANCH   1  20
TORSDOF 5
ENDMDL
MODEL 2
REMARK VINA RESULT:      -6.3      4.305      5.558
REMARK  Name = 
REMARK  5 active torsions:
REMARK  status: ('A' for Active; 'I' for Inactive)
REMARK    1  A    between atoms: O5*_1  and  C5*_2
REMARK    2  A    between atoms: C5*_2  and  C4*_3
REMARK    3  A    between atoms: C1*_5  and  N_6
REMARK    4  A    between atoms: C2*_16  and  O2*_17
REMARK    5  A    between atoms: C3*_18  and  O3*_19
REMARK                            x       y       z     vdW  Elec       q    Type
REMARK                         _______ _______ _______ _____ _____    ______ ____
ROOT
ATOM      1  C4* UNL     1       2.636   3.244  17.526  0.00  0.00    +0.000 C 
ATOM      2  O4* UNL     1       2.382   4.669  17.520  0.00  0.00    +0.000 OA
ATOM      3  C1* UNL     1       3.339   5.321  18.399  0.00  0.00    +0.000 C 
ATOM      4  C2* UNL     1       4.123   4.227  19.128  0.00  0.00    +0.000 C 
ATOM      5  C3* UNL     1       4.019   3.070  18.144  0.00  0.00    +0.000 C 
ENDROOT
BRANCH   3   6
ATOM      6  N   UNL     1       2.639   6.246  19.269  0.00  0.00    +0.000 N 
ATOM      7  C   UNL     1       2.156   5.993  20.524  0.00  0.00    +0.000 A 
ATOM      8  N   UNL     1       1.521   7.030  21.031  0.00  0.00    +0.000 NA
ATOM      9  C   UNL     1       1.590   8.001  20.053  0.00  0.00    +0.000 A 
ATOM     10  C   UNL     1       1.105   9.308  19.956  0.00  0.00    +0.000 A 
ATOM     11  I   UNL     1      -0.002  10.166  21.483  0.00  0.00    +0.000 I 
ATOM     12  N   UNL     1       1.346  10.031  18.831  0.00  0.00    +0.000 NA
ATOM     13  C   UNL     1       2.048   9.442  17.843  0.00  0.00    +0.000 A 
ATOM     14  N   UNL     1       2.547   8.192  17.811  0.00  0.00    +0.000 NA
ATOM     15  C   UNL     1       2.288   7.530  18.950  0.00  0.00    +0.000 A 
ENDBRANCH   3   6
BRANCH   4  16
ATOM     16  O2* UNL     1       5.490   4.566  19.369  0.00  0.00    +0.000 OA
ATOM     17  H2* UNL     1       5.929   4.570  18.492  0.00  0.00    +0.000 HD
ENDBRANCH   4  16
BRANCH   5  18
ATOM     18  O3* UNL     1       5.052   3.234  17.146  0.00  0.00    +0.000 OA
ATOM     19  H3* UNL     1       4.895   2.599  16.422  0.00  0.00    +0.000 HD
ENDBRANCH   5  18
BRANCH   1  20
ATOM     20  C5* UNL     1       1.523   2.511  18.283  0.00  0.00    +0.000 C 
BRANCH  20  21
ATOM     21  O5* UNL     1       2.018   1.351  18.940  0.00  0.00    +0.000 OA
ATOM     22  H5* UNL     1       1.296   1.000  19.493  0.00  0.00    +0.000 HD
ENDBRANCH  20  21
ENDBRANCH   1  20
TORSDOF 5
ENDMDL
MODEL 3
REMARK VINA RESULT:      -6.2      4.424      5.841
REMARK  Name = 
REMARK  5 active torsions:
REMARK  status: ('A' for Active; 'I' for Inactive)
REMARK    1  A    between atoms: O5*_1  and  C5*_2
REMARK    2  A    between atoms: C5*_2  and  C4*_3
REMARK    3  A    between atoms: C1*_5  and  N_6
REMARK    4  A    between atoms: C2*_16  and  O2*_17
REMARK    5  A    between atoms: C3*_18  and  O3*_19
REMARK                            x       y       z     vdW  Elec       q    Type
REMARK                         _______ _______ _______ _____ _____    ______ ____
ROOT
ATOM      1  C4* UNL     1       3.931   3.223  18.443  0.00  0.00    +0.000 C 
ATOM      2  O4* UNL     1       2.795   4.116  18.367  0.00  0.00    +0.000 OA
ATOM      3  C1* UNL     1       3.277   5.478  18.202  0.00  0.00    +0.000 C 
ATOM      4  C2* UNL     1       4.799   5.454  18.356  0.00  0.00    +0.000 C 
ATOM      5  C3* UNL     1       5.126   4.026  17.943  0.00  0.00    +0.000 C 
ENDROOT
BRANCH   3   6
ATOM      6  N   UNL     1       2.588   6.348  19.135  0.00  0.00    +0.000 N 
ATOM      7  C   UNL     1       2.126   6.022  20.381  0.00  0.00    +0.000 A 
ATOM      8  N   UNL     1       1.496   7.026  20.957  0.00  0.00    +0.000 NA
ATOM      9  C   UNL     1       1.546   8.052  20.035  0.00  0.00    +0.000 A 
ATOM     10  C   UNL     1       1.055   9.360  20.021  0.00  0.00    +0.000 A 
ATOM     11  I   UNL     1      -0.029  10.124  21.612  0.00  0.00    +0.000 I 
ATOM     12  N   UNL     1       1.276  10.147  18.936  0.00  0.00    +0.000 NA
ATOM     13  C   UNL     1       1.963   9.618  17.904  0.00  0.00    +0.000 A 
ATOM     14  N   UNL     1       2.466   8.374  17.792  0.00  0.00    +0.000 NA
ATOM     15  C   UNL     1       2.228   7.647  18.896  0.00  0.00    +0.000 A 
ENDBRANCH   3   6
BRANCH   4  16
ATOM     16  O2* UNL     1       5.475   6.391  17.515  0.00  0.00    +0.000 OA
ATOM     17  H2* UNL     1       6.383   6.476  17.874  0.00  0.00    +0.000 HD
ENDBRANCH   4  16
BRANCH   5  18
ATOM     18  O3* UNL     1       5.208   3.982  16.501  0.00  0.00    +0.000 OA
ATOM     19  H3* UNL     1       4.369   3.630  16.147  0.00  0.00    +0.000 HD
ENDBRANCH   5  18
BRANCH   1  20
ATOM     20  C5* UNL     1       4.094   2.693  19.872  0.00  0.00    +0.000 C 
BRANCH  20  21
ATOM     21  O5* UNL     1       5.190   1.793  19.971  0.00  0.00    +0.000 OA
ATOM     22  H5* UNL     1       5.169   1.223  19.181  0.00  0.00    +0.000 HD
ENDBRANCH  20  21
ENDBRANCH   1  20
TORSDOF 5
ENDMDL
MODEL 4
REMARK VINA RESULT:      -6.1      1.924      3.032
REMARK  Name = 
REMARK  5 active torsions:
REMARK  status: ('A' for Active; 'I' for Inactive)
REMARK    1  A    between atoms: O5*_1  and  C5*_2
REMARK    2  A    between atoms: C5*_2  and  C4*_3
REMARK    3  A    between atoms: C1*_5  and  N_6
REMARK    4  A    between atoms: C2*_16  and  O2*_17
REMARK    5  A    between atoms: C3*_18  and  O3*_19
REMARK                            x       y       z     vdW  Elec       q    Type
REMARK                         _______ _______ _______ _____ _____    ______ ____
ROOT
ATOM      1  C4* UNL     1       1.118   3.244  19.730  0.00  0.00    +0.000 C 
ATOM      2  O4* UNL     1       1.615   4.294  18.866  0.00  0.00    +0.000 OA
ATOM      3  C1* UNL     1       2.804   3.814  18.179  0.00  0.00    +0.000 C 
ATOM      4  C2* UNL     1       3.168   2.453  18.776  0.00  0.00    +0.000 C 
ATOM      5  C3* UNL     1       1.816   1.967  19.278  0.00  0.00    +0.000 C 
ENDROOT
BRANCH   3   6
ATOM      6  N   UNL     1       3.849   4.815  18.272  0.00  0.00    +0.000 N 
ATOM      7  C   UNL     1       3.921   5.853  19.160  0.00  0.00    +0.000 A 
ATOM      8  N   UNL     1       4.973   6.617  18.947  0.00  0.00    +0.000 NA
ATOM      9  C   UNL     1       5.611   6.050  17.863  0.00  0.00    +0.000 A 
ATOM     10  C   UNL     1       6.757   6.382  17.137  0.00  0.00    +0.000 A 
ATOM     11  I   UNL     1       7.883   8.058  17.601  0.00  0.00    +0.000 I 
ATOM     12  N   UNL     1       7.138   5.602  16.091  0.00  0.00    +0.000 NA
ATOM     13  C   UNL     1       6.375   4.531  15.795  0.00  0.00    +0.000 A 
ATOM     14  N   UNL     1       5.246   4.122  16.402  0.00  0.00    +0.000 NA
ATOM     15  C   UNL     1       4.925   4.923  17.432  0.00  0.00    +0.000 A 
ENDBRANCH   3   6
BRANCH   4  16
ATOM     16  O2* UNL     1       3.713   1.538  17.824  0.00  0.00    +0.000 OA
ATOM     17  H2* UNL     1       3.368   0.653  18.066  0.00  0.00    +0.000 HD
ENDBRANCH   4  16
BRANCH   5  18
ATOM     18  O3* UNL     1       1.115   1.363  18.168  0.00  0.00    +0.000 OA
ATOM     19  H3* UNL     1       1.756   0.878  17.615  0.00  0.00    +0.000 HD
ENDBRANCH   5  18
BRANCH   1  20
ATOM     20  C5* UNL     1       1.372   3.604  21.199  0.00  0.00    +0.000 C 
BRANCH  20  21
ATOM     21  O5* UNL     1       1.516   2.439  22.001  0.00  0.00    +0.000 OA
ATOM     22  H5* UNL     1       2.469   2.313  22.162  0.00  0.00    +0.000 HD
ENDBRANCH  20  21
ENDBRANCH   1  20
TORSDOF 5
ENDMDL
MODEL 5
REMARK VINA RESULT:      -6.0      4.409      5.978
REMARK  Name = 
REMARK  5 active torsions:
REMARK  status: ('A' for Active; 'I' for Inactive)
REMARK    1  A    between atoms: O5*_1  and  C5*_2
REMARK    2  A    between atoms: C5*_2  and  C4*_3
REMARK    3  A    between atoms: C1*_5  and  N_6
REMARK    4  A    between atoms: C2*_16  and  O2*_17
REMARK    5  A    between atoms: C3*_18  and  O3*_19
REMARK                            x       y       z     vdW  Elec       q    Type
REMARK                         _______ _______ _______ _____ _____    ______ ____
ROOT
ATOM      1  C4* UNL     1       4.882   4.459  19.049  0.00  0.00    +0.000 C 
ATOM      2  O4* UNL     1       4.066   5.461  19.702  0.00  0.00    +0.000 OA
ATOM      3  C1* UNL     1       2.780   5.534  19.027  0.00  0.00    +0.000 C 
ATOM      4  C2* UNL     1       2.860   4.653  17.779  0.00  0.00    +0.000 C 
ATOM      5  C3* UNL     1       3.928   3.646  18.182  0.00  0.00    +0.000 C 
ENDROOT
BRANCH   3   6
ATOM      6  N   UNL     1       2.452   6.922  18.768  0.00  0.00    +0.000 N 
ATOM      7  C   UNL     1       2.747   7.644  17.644  0.00  0.00    +0.000 A 
ATOM      8  N   UNL     1       2.356   8.898  17.742  0.00  0.00    +0.000 NA
ATOM      9  C   UNL     1       1.785   8.996  18.995  0.00  0.00    +0.000 A 
ATOM     10  C   UNL     1       1.203  10.045  19.710  0.00  0.00    +0.000 A 
ATOM     11  I   UNL     1       1.087  11.957  18.920  0.00  0.00    +0.000 I 
ATOM     12  N   UNL     1       0.716   9.818  20.958  0.00  0.00    +0.000 NA
ATOM     13  C   UNL     1       0.825   8.571  21.458  0.00  0.00    +0.000 A 
ATOM     14  N   UNL     1       1.380   7.490  20.878  0.00  0.00    +0.000 NA
ATOM     15  C   UNL     1       1.832   7.771  19.645  0.00  0.00    +0.000 A 
ENDBRANCH   3   6
BRANCH   4  16
ATOM     16  O2* UNL     1       1.633   3.991  17.466  0.00  0.00    +0.000 OA
ATOM     17  H2* UNL     1       1.559   3.240  18.092  0.00  0.00    +0.000 HD
ENDBRANCH   4  16
BRANCH   5  18
ATOM     18  O3* UNL     1       3.293   2.602  18.956  0.00  0.00    +0.000 OA
ATOM     19  H3* UNL     1       3.032   1.878  18.356  0.00  0.00    +0.000 HD
ENDBRANCH   5  18
BRANCH   1  20
ATOM     20  C5* UNL     1       6.015   5.128  18.264  0.00  0.00    +0.000 C 
BRANCH  20  21
ATOM     21  O5* UNL     1       7.153   4.281  18.169  0.00  0.00    +0.000 OA
ATOM     22  H5* UNL     1       6.827   3.366  18.079  0.00  0.00    +0.000 HD
ENDBRANCH  20  21
ENDBRANCH   1  20
TORSDOF 5
ENDMDL
MODEL 6
REMARK VINA RESULT:      -6.0      4.122      6.063
REMARK  Name = 
REMARK  5 active torsions:
REMARK  status: ('A' for Active; 'I' for Inactive)
REMARK    1  A    between atoms: O5*_1  and  C5*_2
REMARK    2  A    between atoms: C5*_2  and  C4*_3
REMARK    3  A    between atoms: C1*_5  and  N_6
REMARK    4  A    between atoms: C2*_16  and  O2*_17
REMARK    5  A    between atoms: C3*_18  and  O3*_19
REMARK                            x       y       z     vdW  Elec       q    Type
REMARK                         _______ _______ _______ _____ _____    ______ ____
ROOT
ATOM      1  C4* UNL     1       5.880   4.788  13.795  0.00  0.00    +0.000 C 
ATOM      2  O4* UNL     1       5.049   5.279  14.875  0.00  0.00    +0.000 OA
ATOM      3  C1* UNL     1       5.719   5.021  16.139  0.00  0.00    +0.000 C 
ATOM      4  C2* UNL     1       6.955   4.168  15.844  0.00  0.00    +0.000 C 
ATOM      5  C3* UNL     1       7.257   4.555  14.404  0.00  0.00    +0.000 C 
ENDROOT
BRANCH   3   6
ATOM      6  N   UNL     1       4.779   4.424  17.067  0.00  0.00    +0.000 N 
ATOM      7  C   UNL     1       4.503   3.092  17.220  0.00  0.00    +0.000 A 
ATOM      8  N   UNL     1       3.559   2.880  18.115  0.00  0.00    +0.000 NA
ATOM      9  C   UNL     1       3.201   4.137  18.559  0.00  0.00    +0.000 A 
ATOM     10  C   UNL     1       2.259   4.602  19.479  0.00  0.00    +0.000 A 
ATOM     11  I   UNL     1       1.007   3.300  20.496  0.00  0.00    +0.000 I 
ATOM     12  N   UNL     1       2.144   5.936  19.705  0.00  0.00    +0.000 NA
ATOM     13  C   UNL     1       2.953   6.763  19.014  0.00  0.00    +0.000 A 
ATOM     14  N   UNL     1       3.879   6.439  18.092  0.00  0.00    +0.000 NA
ATOM     15  C   UNL     1       3.956   5.110  17.919  0.00  0.00    +0.000 A 
ENDBRANCH   3   6
BRANCH   4  16
ATOM     16  O2* UNL     1       8.068   4.461  16.691  0.00  0.00    +0.000 OA
ATOM     17  H2* UNL     1       8.854   4.500  16.107  0.00  0.00    +0.000 HD
ENDBRANCH   4  16
BRANCH   5  18
ATOM     18  O3* UNL     1       8.027   5.778  14.418  0.00  0.00    +0.000 OA
ATOM     19  H3* UNL     1       7.418   6.536  14.337  0.00  0.00    +0.000 HD
ENDBRANCH   5  18
BRANCH   1  20
ATOM     20  C5* UNL     1       5.255   3.533  13.175  0.00  0.00    +0.000 C 
BRANCH  20  21
ATOM     21  O5* UNL     1       6.226   2.756  12.488  0.00  0.00    +0.000 OA
ATOM     22  H5* UNL     1       6.509   2.044  13.091  0.00  0.00    +0.000 HD
ENDBRANCH  20  21
ENDBRANCH   1  20
TORSDOF 5
ENDMDL
MODEL 7
REMARK VINA RESULT:      -5.9      3.966      6.088
REMARK  Name = 
REMARK  5 active torsions:
REMARK  status: ('A' for Active; 'I' for Inactive)
REMARK    1  A    between atoms: O5*_1  and  C5*_2
REMARK    2  A    between atoms: C5*_2  and  C4*_3
REMARK    3  A    between atoms: C1*_5  and  N_6
REMARK    4  A    between atoms: C2*_16  and  O2*_17
REMARK    5  A    between atoms: C3*_18  and  O3*_19
REMARK                            x       y       z     vdW  Elec       q    Type
REMARK                         _______ _______ _______ _____ _____    ______ ____
ROOT
ATOM      1  C4* UNL     1       7.011   4.661  17.766  0.00  0.00    +0.000 C 
ATOM      2  O4* UNL     1       5.611   4.596  18.130  0.00  0.00    +0.000 OA
ATOM      3  C1* UNL     1       4.835   5.338  17.150  0.00  0.00    +0.000 C 
ATOM      4  C2* UNL     1       5.819   6.050  16.219  0.00  0.00    +0.000 C 
ATOM      5  C3* UNL     1       7.043   5.151  16.323  0.00  0.00    +0.000 C 
ENDROOT
BRANCH   3   6
ATOM      6  N   UNL     1       3.908   6.216  17.836  0.00  0.00    +0.000 N 
ATOM      7  C   UNL     1       3.628   7.521  17.532  0.00  0.00    +0.000 A 
ATOM      8  N   UNL     1       2.777   8.058  18.382  0.00  0.00    +0.000 NA
ATOM      9  C   UNL     1       2.497   7.053  19.287  0.00  0.00    +0.000 A 
ATOM     10  C   UNL     1       1.695   6.980  20.428  0.00  0.00    +0.000 A 
ATOM     11  I   UNL     1       0.623   8.620  21.103  0.00  0.00    +0.000 I 
ATOM     12  N   UNL     1       1.624   5.816  21.125  0.00  0.00    +0.000 NA
ATOM     13  C   UNL     1       2.350   4.771  20.679  0.00  0.00    +0.000 A 
ATOM     14  N   UNL     1       3.170   4.725  19.613  0.00  0.00    +0.000 NA
ATOM     15  C   UNL     1       3.190   5.898  18.958  0.00  0.00    +0.000 A 
ENDBRANCH   3   6
BRANCH   4  16
ATOM     16  O2* UNL     1       5.369   6.136  14.866  0.00  0.00    +0.000 OA
ATOM     17  H2* UNL     1       4.709   6.861  14.843  0.00  0.00    +0.000 HD
ENDBRANCH   4  16
BRANCH   5  18
ATOM     18  O3* UNL     1       6.872   4.050  15.403  0.00  0.00    +0.000 OA
ATOM     19  H3* UNL     1       7.508   4.148  14.669  0.00  0.00    +0.000 HD
ENDBRANCH   5  18
BRANCH   1  20
ATOM     20  C5* UNL     1       7.770   5.564  18.745  0.00  0.00    +0.000 C 
BRANCH  20  21
ATOM     21  O5* UNL     1       7.299   5.399  20.076  0.00  0.00    +0.000 OA
ATOM     22  H5* UNL     1       6.341   5.224  20.026  0.00  0.00    +0.000 HD
ENDBRANCH  20  21
ENDBRANCH   1  20
TORSDOF 5
ENDMDL
MODEL 8
REMARK VINA RESULT:      -5.9      2.453      3.042
REMARK  Name = 
REMARK  5 active torsions:
REMARK  status: ('A' for Active; 'I' for Inactive)
REMARK    1  A    between atoms: O5*_1  and  C5*_2
REMARK    2  A    between atoms: C5*_2  and  C4*_3
REMARK    3  A    between atoms: C1*_5  and  N_6
REMARK    4  A    between atoms: C2*_16  and  O2*_17
REMARK    5  A    between atoms: C3*_18  and  O3*_19
REMARK                            x       y       z     vdW  Elec       q    Type
REMARK                         _______ _______ _______ _____ _____    ______ ____
ROOT
ATOM      1  C4* UNL     1       2.218   2.937  17.752  0.00  0.00    +0.000 C 
ATOM      2  O4* UNL     1       3.227   3.559  16.921  0.00  0.00    +0.000 OA
ATOM      3  C1* UNL     1       4.485   3.588  17.650  0.00  0.00    +0.000 C 
ATOM      4  C2* UNL     1       4.205   3.115  19.078  0.00  0.00    +0.000 C 
ATOM      5  C3* UNL     1       2.976   2.241  18.876  0.00  0.00    +0.000 C 
ENDROOT
BRANCH   3   6
ATOM      6  N   UNL     1       5.065   4.912  17.554  0.00  0.00    +0.000 N 
ATOM      7  C   UNL     1       4.601   5.966  16.815  0.00  0.00    +0.000 A 
ATOM      8  N   UNL     1       5.387   7.019  16.901  0.00  0.00    +0.000 NA
ATOM      9  C   UNL     1       6.416   6.627  17.733  0.00  0.00    +0.000 A 
ATOM     10  C   UNL     1       7.568   7.260  18.206  0.00  0.00    +0.000 A 
ATOM     11  I   UNL     1       8.042   9.199  17.648  0.00  0.00    +0.000 I 
ATOM     12  N   UNL     1       8.409   6.590  19.037  0.00  0.00    +0.000 NA
ATOM     13  C   UNL     1       8.090   5.323  19.365  0.00  0.00    +0.000 A 
ATOM     14  N   UNL     1       7.028   4.602  18.960  0.00  0.00    +0.000 NA
ATOM     15  C   UNL     1       6.228   5.318  18.153  0.00  0.00    +0.000 A 
ENDBRANCH   3   6
BRANCH   4  16
ATOM     16  O2* UNL     1       5.275   2.359  19.651  0.00  0.00    +0.000 OA
ATOM     17  H2* UNL     1       6.085   2.621  19.166  0.00  0.00    +0.000 HD
ENDBRANCH   4  16
BRANCH   5  18
ATOM     18  O3* UNL     1       3.419   0.929  18.461  0.00  0.00    +0.000 OA
ATOM     19  H3* UNL     1       3.659   0.960  17.516  0.00  0.00    +0.000 HD
ENDBRANCH   5  18
BRANCH   1  20
ATOM     20  C5* UNL     1       1.213   3.987  18.240  0.00  0.00    +0.000 C 
BRANCH  20  21
ATOM     21  O5* UNL     1       0.938   3.838  19.627  0.00  0.00    +0.000 OA
ATOM     22  H5* UNL     1       0.954   2.884  19.825  0.00  0.00    +0.000 HD
ENDBRANCH  20  21
ENDBRANCH   1  20
TORSDOF 5
ENDMDL
MODEL 9
REMARK VINA RESULT:      -5.7      4.803      6.356
REMARK  Name = 
REMARK  5 active torsions:
REMARK  status: ('A' for Active; 'I' for Inactive)
REMARK    1  A    between atoms: O5*_1  and  C5*_2
REMARK    2  A    between atoms: C5*_2  and  C4*_3
REMARK    3  A    between atoms: C1*_5  and  N_6
REMARK    4  A    between atoms: C2*_16  and  O2*_17
REMARK    5  A    between atoms: C3*_18  and  O3*_19
REMARK                            x       y       z     vdW  Elec       q    Type
REMARK                         _______ _______ _______ _____ _____    ______ ____
ROOT
ATOM      1  C4* UNL     1       5.084   5.305  17.395  0.00  0.00    +0.000 C 
ATOM      2  O4* UNL     1       4.711   6.379  18.291  0.00  0.00    +0.000 OA
ATOM      3  C1* UNL     1       3.321   6.205  18.682  0.00  0.00    +0.000 C 
ATOM      4  C2* UNL     1       2.744   5.058  17.850  0.00  0.00    +0.000 C 
ATOM      5  C3* UNL     1       3.995   4.248  17.537  0.00  0.00    +0.000 C 
ENDROOT
BRANCH   3   6
ATOM      6  N   UNL     1       2.621   7.467  18.540  0.00  0.00    +0.000 N 
ATOM      7  C   UNL     1       2.637   8.302  17.457  0.00  0.00    +0.000 A 
ATOM      8  N   UNL     1       1.936   9.398  17.664  0.00  0.00    +0.000 NA
ATOM      9  C   UNL     1       1.448   9.270  18.949  0.00  0.00    +0.000 A 
ATOM     10  C   UNL     1       0.660  10.084  19.766  0.00  0.00    +0.000 A 
ATOM     11  I   UNL     1      -0.011  11.936  19.123  0.00  0.00    +0.000 I 
ATOM     12  N   UNL     1       0.338   9.666  21.018  0.00  0.00    +0.000 NA
ATOM     13  C   UNL     1       0.807   8.469  21.421  0.00  0.00    +0.000 A 
ATOM     14  N   UNL     1       1.586   7.609  20.738  0.00  0.00    +0.000 NA
ATOM     15  C   UNL     1       1.861   8.069  19.507  0.00  0.00    +0.000 A 
ENDBRANCH   3   6
BRANCH   4  16
ATOM     16  O2* UNL     1       1.790   4.262  18.556  0.00  0.00    +0.000 OA
ATOM     17  H2* UNL     1       2.277   3.843  19.295  0.00  0.00    +0.000 HD
ENDBRANCH   4  16
BRANCH   5  18
ATOM     18  O3* UNL     1       4.263   3.381  18.663  0.00  0.00    +0.000 OA
ATOM     19  H3* UNL     1       5.168   3.552  18.985  0.00  0.00    +0.000 HD
ENDBRANCH   5  18
BRANCH   1  20
ATOM     20  C5* UNL     1       5.247   5.838  15.968  0.00  0.00    +0.000 C 
BRANCH  20  21
ATOM     21  O5* UNL     1       6.607   5.805  15.554  0.00  0.00    +0.000 OA
ATOM     22  H5* UNL     1       7.074   5.181  16.139  0.00  0.00    +0.000 HD
ENDBRANCH  20  21
ENDBRANCH   1  20
TORSDOF 5
ENDMDL
