MODEL 1
REMARK VINA RESULT:      -7.9      0.000      0.000
REMARK  Name = 
REMARK  4 active torsions:
REMARK  status: ('A' for Active; 'I' for Inactive)
REMARK    1  A    between atoms: N_1  and  C_2
REMARK    2  A    between atoms: C_9  and  C_11
REMARK    3  A    between atoms: C_11  and  C_12
REMARK    4  A    between atoms: C_12  and  C_13
REMARK                            x       y       z     vdW  Elec       q    Type
REMARK                         _______ _______ _______ _____ _____    ______ ____
ROOT
ATOM      1  C   UNL     1       3.403   2.142  19.823  0.00  0.00    +0.000 C 
ATOM      2  C   UNL     1       2.896   2.141  18.379  0.00  0.00    +0.000 C 
ATOM      3  C   UNL     1       1.417   2.521  18.551  0.00  0.00    +0.000 C 
ATOM      4  C   UNL     1       1.379   3.410  19.800  0.00  0.00    +0.000 C 
ATOM      5  C   UNL     1       2.839   3.490  20.278  0.00  0.00    +0.000 C 
ATOM      6  C   UNL     1       3.576   4.652  19.599  0.00  0.00    +0.000 C 
ATOM      7  N   UNL     1       3.751   4.520  18.148  0.00  0.00    +0.000 N 
ATOM      8  C   UNL     1       4.483   5.543  17.531  0.00  0.00    +0.000 C 
ATOM      9  O   UNL     1       4.817   6.565  18.130  0.00  0.00    +0.000 OA
ATOM     10  C   UNL     1       3.639   3.190  17.539  0.00  0.00    +0.000 C 
ENDROOT
BRANCH   1  11
ATOM     11  N   UNL     1       4.842   1.985  19.966  0.00  0.00    +0.000 NA
ATOM     12  H   UNL     1       5.326   2.435  19.191  0.00  0.00    +0.000 HD
ATOM     13  H   UNL     1       5.094   0.998  19.933  0.00  0.00    +0.000 HD
ENDBRANCH   1  11
BRANCH   8  14
ATOM     14  C   UNL     1       4.834   5.333  16.066  0.00  0.00    +0.000 C 
BRANCH  14  15
ATOM     15  C   UNL     1       6.274   4.856  15.881  0.00  0.00    +0.000 C 
BRANCH  15  16
ATOM     16  C   UNL     1       6.588   4.645  14.420  0.00  0.00    +0.000 A 
ATOM     17  C   UNL     1       7.571   5.413  13.778  0.00  0.00    +0.000 A 
ATOM     18  C   UNL     1       7.884   5.185  12.437  0.00  0.00    +0.000 A 
ATOM     19  C   UNL     1       7.221   4.184  11.723  0.00  0.00    +0.000 A 
ATOM     20  C   UNL     1       6.249   3.417  12.359  0.00  0.00    +0.000 A 
ATOM     21 CL   UNL     1       5.436   2.177  11.483  0.00  0.00    +0.000 Cl
ATOM     22  C   UNL     1       5.929   3.639  13.697  0.00  0.00    +0.000 A 
ENDBRANCH  15  16
ENDBRANCH  14  15
ENDBRANCH   8  14
TORSDOF 4
ENDMDL
MODEL 2
REMARK VINA RESULT:      -7.8      1.955      2.758
REMARK  Name = 
REMARK  4 active torsions:
REMARK  status: ('A' for Active; 'I' for Inactive)
REMARK    1  A    between atoms: N_1  and  C_2
REMARK    2  A    between atoms: C_9  and  C_11
REMARK    3  A    between atoms: C_11  and  C_12
REMARK    4  A    between atoms: C_12  and  C_13
REMARK                            x       y       z     vdW  Elec       q    Type
REMARK                         _______ _______ _______ _____ _____    ______ ____
ROOT
ATOM      1  C   UNL     1       3.442   2.195  19.607  0.00  0.00    +0.000 C 
ATOM      2  C   UNL     1       2.742   2.521  18.286  0.00  0.00    +0.000 C 
ATOM      3  C   UNL     1       1.285   2.132  18.584  0.00  0.00    +0.000 C 
ATOM      4  C   UNL     1       1.110   2.375  20.088  0.00  0.00    +0.000 C 
ATOM      5  C   UNL     1       2.478   2.888  20.571  0.00  0.00    +0.000 C 
ATOM      6  C   UNL     1       2.569   4.414  20.440  0.00  0.00    +0.000 C 
ATOM      7  N   UNL     1       2.534   4.928  19.066  0.00  0.00    +0.000 N 
ATOM      8  C   UNL     1       2.687   6.314  18.934  0.00  0.00    +0.000 C 
ATOM      9  O   UNL     1       2.685   7.071  19.906  0.00  0.00    +0.000 OA
ATOM     10  C   UNL     1       2.856   4.017  17.961  0.00  0.00    +0.000 C 
ENDROOT
BRANCH   1  11
ATOM     11  N   UNL     1       4.828   2.632  19.687  0.00  0.00    +0.000 NA
ATOM     12  H   UNL     1       4.919   3.404  20.344  0.00  0.00    +0.000 HD
ATOM     13  H   UNL     1       5.141   2.981  18.781  0.00  0.00    +0.000 HD
ENDBRANCH   1  11
BRANCH   8  14
ATOM     14  C   UNL     1       2.839   6.844  17.517  0.00  0.00    +0.000 C 
BRANCH  14  15
ATOM     15  C   UNL     1       4.213   7.470  17.280  0.00  0.00    +0.000 C 
BRANCH  15  16
ATOM     16  C   UNL     1       5.235   6.412  16.941  0.00  0.00    +0.000 A 
ATOM     17  C   UNL     1       6.173   5.988  17.894  0.00  0.00    +0.000 A 
ATOM     18  C   UNL     1       7.090   4.981  17.586  0.00  0.00    +0.000 A 
ATOM     19  C   UNL     1       7.074   4.382  16.324  0.00  0.00    +0.000 A 
ATOM     20  C   UNL     1       6.141   4.797  15.378  0.00  0.00    +0.000 A 
ATOM     21 CL   UNL     1       6.115   4.054  13.825  0.00  0.00    +0.000 Cl
ATOM     22  C   UNL     1       5.223   5.803  15.677  0.00  0.00    +0.000 A 
ENDBRANCH  15  16
ENDBRANCH  14  15
ENDBRANCH   8  14
TORSDOF 4
ENDMDL
MODEL 3
REMARK VINA RESULT:      -7.7      5.076      6.943
REMARK  Name = 
REMARK  4 active torsions:
REMARK  status: ('A' for Active; 'I' for Inactive)
REMARK    1  A    between atoms: N_1  and  C_2
REMARK    2  A    between atoms: C_9  and  C_11
REMARK    3  A    between atoms: C_11  and  C_12
REMARK    4  A    between atoms: C_12  and  C_13
REMARK                            x       y       z     vdW  Elec       q    Type
REMARK                         _______ _______ _______ _____ _____    ______ ____
ROOT
ATOM      1  C   UNL     1       2.148   1.901  19.266  0.00  0.00    +0.000 C 
ATOM      2  C   UNL     1       1.101   2.985  19.536  0.00  0.00    +0.000 C 
ATOM      3  C   UNL     1       1.163   3.124  21.065  0.00  0.00    +0.000 C 
ATOM      4  C   UNL     1       2.611   2.782  21.437  0.00  0.00    +0.000 C 
ATOM      5  C   UNL     1       3.301   2.463  20.099  0.00  0.00    +0.000 C 
ATOM      6  C   UNL     1       3.874   3.735  19.460  0.00  0.00    +0.000 C 
ATOM      7  N   UNL     1       2.879   4.730  19.044  0.00  0.00    +0.000 N 
ATOM      8  C   UNL     1       3.389   5.863  18.397  0.00  0.00    +0.000 C 
ATOM      9  O   UNL     1       4.597   6.091  18.326  0.00  0.00    +0.000 OA
ATOM     10  C   UNL     1       1.488   4.302  18.848  0.00  0.00    +0.000 C 
ENDROOT
BRANCH   1  11
ATOM     11  N   UNL     1       2.444   1.675  17.859  0.00  0.00    +0.000 NA
ATOM     12  H   UNL     1       2.901   0.774  17.734  0.00  0.00    +0.000 HD
ATOM     13  H   UNL     1       3.095   2.382  17.519  0.00  0.00    +0.000 HD
ENDBRANCH   1  11
BRANCH   8  14
ATOM     14  C   UNL     1       2.366   6.814  17.795  0.00  0.00    +0.000 C 
BRANCH  14  15
ATOM     15  C   UNL     1       2.704   8.277  18.077  0.00  0.00    +0.000 C 
BRANCH  15  16
ATOM     16  C   UNL     1       1.556   8.970  18.771  0.00  0.00    +0.000 A 
ATOM     17  C   UNL     1       0.637   9.740  18.042  0.00  0.00    +0.000 A 
ATOM     18  C   UNL     1      -0.445  10.346  18.684  0.00  0.00    +0.000 A 
ATOM     19  C   UNL     1      -0.623  10.184  20.059  0.00  0.00    +0.000 A 
ATOM     20  C   UNL     1       0.284   9.416  20.784  0.00  0.00    +0.000 A 
ATOM     21 CL   UNL     1       0.061   9.208  22.479  0.00  0.00    +0.000 Cl
ATOM     22  C   UNL     1       1.368   8.810  20.151  0.00  0.00    +0.000 A 
ENDBRANCH  15  16
ENDBRANCH  14  15
ENDBRANCH   8  14
TORSDOF 4
ENDMDL
MODEL 4
REMARK VINA RESULT:      -7.7      2.035      2.864
REMARK  Name = 
REMARK  4 active torsions:
REMARK  status: ('A' for Active; 'I' for Inactive)
REMARK    1  A    between atoms: N_1  and  C_2
REMARK    2  A    between atoms: C_9  and  C_11
REMARK    3  A    between atoms: C_11  and  C_12
REMARK    4  A    between atoms: C_12  and  C_13
REMARK                            x       y       z     vdW  Elec       q    Type
REMARK                         _______ _______ _______ _____ _____    ______ ____
ROOT
ATOM      1  C   UNL     1       1.983   2.334  20.752  0.00  0.00    +0.000 C 
ATOM      2  C   UNL     1       2.915   2.465  19.545  0.00  0.00    +0.000 C 
ATOM      3  C   UNL     1       1.990   2.093  18.376  0.00  0.00    +0.000 C 
ATOM      4  C   UNL     1       0.590   2.533  18.822  0.00  0.00    +0.000 C 
ATOM      5  C   UNL     1       0.789   3.133  20.226  0.00  0.00    +0.000 C 
ATOM      6  C   UNL     1       1.121   4.629  20.141  0.00  0.00    +0.000 C 
ATOM      7  N   UNL     1       2.401   4.951  19.503  0.00  0.00    +0.000 N 
ATOM      8  C   UNL     1       2.743   6.310  19.484  0.00  0.00    +0.000 C 
ATOM      9  O   UNL     1       1.955   7.191  19.830  0.00  0.00    +0.000 OA
ATOM     10  C   UNL     1       3.427   3.906  19.403  0.00  0.00    +0.000 C 
ENDROOT
BRANCH   1  11
ATOM     11  N   UNL     1       2.544   2.803  22.010  0.00  0.00    +0.000 NA
ATOM     12  H   UNL     1       2.585   3.821  22.022  0.00  0.00    +0.000 HD
ATOM     13  H   UNL     1       3.502   2.471  22.114  0.00  0.00    +0.000 HD
ENDBRANCH   1  11
BRANCH   8  14
ATOM     14  C   UNL     1       4.144   6.647  18.996  0.00  0.00    +0.000 C 
BRANCH  14  15
ATOM     15  C   UNL     1       4.203   6.800  17.477  0.00  0.00    +0.000 C 
BRANCH  15  16
ATOM     16  C   UNL     1       5.262   5.901  16.886  0.00  0.00    +0.000 A 
ATOM     17  C   UNL     1       6.377   5.512  17.643  0.00  0.00    +0.000 A 
ATOM     18  C   UNL     1       7.332   4.648  17.103  0.00  0.00    +0.000 A 
ATOM     19  C   UNL     1       7.180   4.159  15.804  0.00  0.00    +0.000 A 
ATOM     20  C   UNL     1       6.071   4.539  15.052  0.00  0.00    +0.000 A 
ATOM     21 CL   UNL     1       5.877   3.931  13.453  0.00  0.00    +0.000 Cl
ATOM     22  C   UNL     1       5.114   5.403  15.583  0.00  0.00    +0.000 A 
ENDBRANCH  15  16
ENDBRANCH  14  15
ENDBRANCH   8  14
TORSDOF 4
ENDMDL
MODEL 5
REMARK VINA RESULT:      -7.6      3.449      4.480
REMARK  Name = 
REMARK  4 active torsions:
REMARK  status: ('A' for Active; 'I' for Inactive)
REMARK    1  A    between atoms: N_1  and  C_2
REMARK    2  A    between atoms: C_9  and  C_11
REMARK    3  A    between atoms: C_11  and  C_12
REMARK    4  A    between atoms: C_12  and  C_13
REMARK                            x       y       z     vdW  Elec       q    Type
REMARK                         _______ _______ _______ _____ _____    ______ ____
ROOT
ATOM      1  C   UNL     1       1.799   5.028  21.048  0.00  0.00    +0.000 C 
ATOM      2  C   UNL     1       3.092   4.209  21.052  0.00  0.00    +0.000 C 
ATOM      3  C   UNL     1       2.617   2.852  21.595  0.00  0.00    +0.000 C 
ATOM      4  C   UNL     1       1.160   2.729  21.136  0.00  0.00    +0.000 C 
ATOM      5  C   UNL     1       0.876   4.024  20.354  0.00  0.00    +0.000 C 
ATOM      6  C   UNL     1       1.249   3.865  18.875  0.00  0.00    +0.000 C 
ATOM      7  N   UNL     1       2.678   3.669  18.606  0.00  0.00    +0.000 N 
ATOM      8  C   UNL     1       3.034   3.593  17.253  0.00  0.00    +0.000 C 
ATOM      9  O   UNL     1       2.195   3.529  16.355  0.00  0.00    +0.000 OA
ATOM     10  C   UNL     1       3.652   4.066  19.629  0.00  0.00    +0.000 C 
ENDROOT
BRANCH   1  11
ATOM     11  N   UNL     1       1.903   6.330  20.406  0.00  0.00    +0.000 NA
ATOM     12  H   UNL     1       1.984   7.065  21.107  0.00  0.00    +0.000 HD
ATOM     13  H   UNL     1       1.058   6.527  19.872  0.00  0.00    +0.000 HD
ENDBRANCH   1  11
BRANCH   8  14
ATOM     14  C   UNL     1       4.524   3.576  16.948  0.00  0.00    +0.000 C 
BRANCH  14  15
ATOM     15  C   UNL     1       5.006   4.902  16.360  0.00  0.00    +0.000 C 
BRANCH  15  16
ATOM     16  C   UNL     1       6.085   5.512  17.222  0.00  0.00    +0.000 A 
ATOM     17  C   UNL     1       6.776   4.734  18.165  0.00  0.00    +0.000 A 
ATOM     18  C   UNL     1       7.800   5.295  18.931  0.00  0.00    +0.000 A 
ATOM     19  C   UNL     1       8.148   6.637  18.760  0.00  0.00    +0.000 A 
ATOM     20  C   UNL     1       7.468   7.409  17.822  0.00  0.00    +0.000 A 
ATOM     21 CL   UNL     1       7.902   9.061  17.604  0.00  0.00    +0.000 Cl
ATOM     22  C   UNL     1       6.444   6.857  17.054  0.00  0.00    +0.000 A 
ENDBRANCH  15  16
ENDBRANCH  14  15
ENDBRANCH   8  14
TORSDOF 4
ENDMDL
MODEL 6
REMARK VINA RESULT:      -7.6      4.917      6.835
REMARK  Name = 
REMARK  4 active torsions:
REMARK  status: ('A' for Active; 'I' for Inactive)
REMARK    1  A    between atoms: N_1  and  C_2
REMARK    2  A    between atoms: C_9  and  C_11
REMARK    3  A    between atoms: C_11  and  C_12
REMARK    4  A    between atoms: C_12  and  C_13
REMARK                            x       y       z     vdW  Elec       q    Type
REMARK                         _______ _______ _______ _____ _____    ______ ____
ROOT
ATOM      1  C   UNL     1       2.164   1.918  19.211  0.00  0.00    +0.000 C 
ATOM      2  C   UNL     1       1.112   3.010  19.420  0.00  0.00    +0.000 C 
ATOM      3  C   UNL     1       1.112   3.175  20.949  0.00  0.00    +0.000 C 
ATOM      4  C   UNL     1       2.542   2.834  21.384  0.00  0.00    +0.000 C 
ATOM      5  C   UNL     1       3.285   2.490  20.081  0.00  0.00    +0.000 C 
ATOM      6  C   UNL     1       3.889   3.749  19.445  0.00  0.00    +0.000 C 
ATOM      7  N   UNL     1       2.915   4.740  18.972  0.00  0.00    +0.000 N 
ATOM      8  C   UNL     1       3.456   5.860  18.328  0.00  0.00    +0.000 C 
ATOM      9  O   UNL     1       4.667   6.083  18.302  0.00  0.00    +0.000 OA
ATOM     10  C   UNL     1       1.532   4.314  18.727  0.00  0.00    +0.000 C 
ENDROOT
BRANCH   1  11
ATOM     11  N   UNL     1       2.517   1.668  17.822  0.00  0.00    +0.000 NA
ATOM     12  H   UNL     1       1.967   0.894  17.451  0.00  0.00    +0.000 HD
ATOM     13  H   UNL     1       3.495   1.391  17.751  0.00  0.00    +0.000 HD
ENDBRANCH   1  11
BRANCH   8  14
ATOM     14  C   UNL     1       2.463   6.805  17.669  0.00  0.00    +0.000 C 
BRANCH  14  15
ATOM     15  C   UNL     1       2.750   8.268  18.004  0.00  0.00    +0.000 C 
BRANCH  15  16
ATOM     16  C   UNL     1       1.610   8.873  18.788  0.00  0.00    +0.000 A 
ATOM     17  C   UNL     1       1.444   8.585  20.151  0.00  0.00    +0.000 A 
ATOM     18  C   UNL     1       0.412   9.180  20.880  0.00  0.00    +0.000 A 
ATOM     19  C   UNL     1      -0.462  10.073  20.255  0.00  0.00    +0.000 A 
ATOM     20  C   UNL     1      -0.296  10.365  18.904  0.00  0.00    +0.000 A 
ATOM     21 CL   UNL     1      -1.367  11.471  18.133  0.00  0.00    +0.000 Cl
ATOM     22  C   UNL     1       0.731   9.774  18.169  0.00  0.00    +0.000 A 
ENDBRANCH  15  16
ENDBRANCH  14  15
ENDBRANCH   8  14
TORSDOF 4
ENDMDL
MODEL 7
REMARK VINA RESULT:      -7.6      1.733      2.497
REMARK  Name = 
REMARK  4 active torsions:
REMARK  status: ('A' for Active; 'I' for Inactive)
REMARK    1  A    between atoms: N_1  and  C_2
REMARK    2  A    between atoms: C_9  and  C_11
REMARK    3  A    between atoms: C_11  and  C_12
REMARK    4  A    between atoms: C_12  and  C_13
REMARK                            x       y       z     vdW  Elec       q    Type
REMARK                         _______ _______ _______ _____ _____    ______ ____
ROOT
ATOM      1  C   UNL     1       1.638   2.310  18.930  0.00  0.00    +0.000 C 
ATOM      2  C   UNL     1       1.365   3.811  18.814  0.00  0.00    +0.000 C 
ATOM      3  C   UNL     1       0.841   4.157  20.217  0.00  0.00    +0.000 C 
ATOM      4  C   UNL     1       1.541   3.169  21.156  0.00  0.00    +0.000 C 
ATOM      5  C   UNL     1       2.428   2.306  20.240  0.00  0.00    +0.000 C 
ATOM      6  C   UNL     1       3.809   2.948  20.053  0.00  0.00    +0.000 C 
ATOM      7  N   UNL     1       3.813   4.230  19.340  0.00  0.00    +0.000 N 
ATOM      8  C   UNL     1       5.076   4.787  19.103  0.00  0.00    +0.000 C 
ATOM      9  O   UNL     1       6.103   4.323  19.600  0.00  0.00    +0.000 OA
ATOM     10  C   UNL     1       2.658   4.580  18.505  0.00  0.00    +0.000 C 
ENDROOT
BRANCH   1  11
ATOM     11  N   UNL     1       2.321   1.723  17.787  0.00  0.00    +0.000 NA
ATOM     12  H   UNL     1       3.141   2.276  17.542  0.00  0.00    +0.000 HD
ATOM     13  H   UNL     1       1.710   1.729  16.971  0.00  0.00    +0.000 HD
ENDBRANCH   1  11
BRANCH   8  14
ATOM     14  C   UNL     1       5.115   6.016  18.208  0.00  0.00    +0.000 C 
BRANCH  14  15
ATOM     15  C   UNL     1       6.420   6.113  17.418  0.00  0.00    +0.000 C 
BRANCH  15  16
ATOM     16  C   UNL     1       6.334   5.315  16.139  0.00  0.00    +0.000 A 
ATOM     17  C   UNL     1       5.405   4.272  16.005  0.00  0.00    +0.000 A 
ATOM     18  C   UNL     1       5.304   3.564  14.805  0.00  0.00    +0.000 A 
ATOM     19  C   UNL     1       6.126   3.896  13.725  0.00  0.00    +0.000 A 
ATOM     20  C   UNL     1       7.044   4.934  13.854  0.00  0.00    +0.000 A 
ATOM     21 CL   UNL     1       8.053   5.349  12.522  0.00  0.00    +0.000 Cl
ATOM     22  C   UNL     1       7.153   5.643  15.049  0.00  0.00    +0.000 A 
ENDBRANCH  15  16
ENDBRANCH  14  15
ENDBRANCH   8  14
TORSDOF 4
ENDMDL
MODEL 8
REMARK VINA RESULT:      -7.6      3.846      6.312
REMARK  Name = 
REMARK  4 active torsions:
REMARK  status: ('A' for Active; 'I' for Inactive)
REMARK    1  A    between atoms: N_1  and  C_2
REMARK    2  A    between atoms: C_9  and  C_11
REMARK    3  A    between atoms: C_11  and  C_12
REMARK    4  A    between atoms: C_12  and  C_13
REMARK                            x       y       z     vdW  Elec       q    Type
REMARK                         _______ _______ _______ _____ _____    ______ ____
ROOT
ATOM      1  C   UNL     1       7.099   4.684  17.414  0.00  0.00    +0.000 C 
ATOM      2  C   UNL     1       6.481   4.802  18.810  0.00  0.00    +0.000 C 
ATOM      3  C   UNL     1       7.451   5.762  19.516  0.00  0.00    +0.000 C 
ATOM      4  C   UNL     1       7.998   6.664  18.403  0.00  0.00    +0.000 C 
ATOM      5  C   UNL     1       7.313   6.170  17.117  0.00  0.00    +0.000 C 
ATOM      6  C   UNL     1       5.974   6.886  16.898  0.00  0.00    +0.000 C 
ATOM      7  N   UNL     1       4.942   6.606  17.903  0.00  0.00    +0.000 N 
ATOM      8  C   UNL     1       3.695   7.201  17.673  0.00  0.00    +0.000 C 
ATOM      9  O   UNL     1       3.518   8.033  16.782  0.00  0.00    +0.000 OA
ATOM     10  C   UNL     1       5.070   5.403  18.734  0.00  0.00    +0.000 C 
ENDROOT
BRANCH   1  11
ATOM     11  N   UNL     1       6.287   3.963  16.446  0.00  0.00    +0.000 NA
ATOM     12  H   UNL     1       5.356   3.792  16.821  0.00  0.00    +0.000 HD
ATOM     13  H   UNL     1       6.697   3.049  16.254  0.00  0.00    +0.000 HD
ENDBRANCH   1  11
BRANCH   8  14
ATOM     14  C   UNL     1       2.564   6.777  18.597  0.00  0.00    +0.000 C 
BRANCH  14  15
ATOM     15  C   UNL     1       1.570   5.848  17.902  0.00  0.00    +0.000 C 
BRANCH  15  16
ATOM     16  C   UNL     1       1.734   4.427  18.386  0.00  0.00    +0.000 A 
ATOM     17  C   UNL     1       2.173   3.418  17.514  0.00  0.00    +0.000 A 
ATOM     18  C   UNL     1       2.361   2.115  17.978  0.00  0.00    +0.000 A 
ATOM     19  C   UNL     1       2.117   1.806  19.318  0.00  0.00    +0.000 A 
ATOM     20  C   UNL     1       1.686   2.806  20.186  0.00  0.00    +0.000 A 
ATOM     21 CL   UNL     1       1.393   2.429  21.840  0.00  0.00    +0.000 Cl
ATOM     22  C   UNL     1       1.495   4.109  19.731  0.00  0.00    +0.000 A 
ENDBRANCH  15  16
ENDBRANCH  14  15
ENDBRANCH   8  14
TORSDOF 4
ENDMDL
MODEL 9
REMARK VINA RESULT:      -7.5      3.729      6.736
REMARK  Name = 
REMARK  4 active torsions:
REMARK  status: ('A' for Active; 'I' for Inactive)
REMARK    1  A    between atoms: N_1  and  C_2
REMARK    2  A    between atoms: C_9  and  C_11
REMARK    3  A    between atoms: C_11  and  C_12
REMARK    4  A    between atoms: C_12  and  C_13
REMARK                            x       y       z     vdW  Elec       q    Type
REMARK                         _______ _______ _______ _____ _____    ______ ____
ROOT
ATOM      1  C   UNL     1       7.390   5.131  17.032  0.00  0.00    +0.000 C 
ATOM      2  C   UNL     1       6.424   5.951  17.890  0.00  0.00    +0.000 C 
ATOM      3  C   UNL     1       5.694   6.801  16.838  0.00  0.00    +0.000 C 
ATOM      4  C   UNL     1       5.684   5.940  15.570  0.00  0.00    +0.000 C 
ATOM      5  C   UNL     1       6.411   4.642  15.962  0.00  0.00    +0.000 C 
ATOM      6  C   UNL     1       5.428   3.617  16.542  0.00  0.00    +0.000 C 
ATOM      7  N   UNL     1       4.804   3.997  17.814  0.00  0.00    +0.000 N 
ATOM      8  C   UNL     1       3.959   3.037  18.385  0.00  0.00    +0.000 C 
ATOM      9  O   UNL     1       3.630   2.012  17.787  0.00  0.00    +0.000 OA
ATOM     10  C   UNL     1       5.441   5.034  18.634  0.00  0.00    +0.000 C 
ENDROOT
BRANCH   1  11
ATOM     11  N   UNL     1       8.107   4.086  17.748  0.00  0.00    +0.000 NA
ATOM     12  H   UNL     1       7.523   3.699  18.487  0.00  0.00    +0.000 HD
ATOM     13  H   UNL     1       8.934   4.474  18.201  0.00  0.00    +0.000 HD
ENDBRANCH   1  11
BRANCH   8  14
ATOM     14  C   UNL     1       3.450   3.333  19.787  0.00  0.00    +0.000 C 
BRANCH  14  15
ATOM     15  C   UNL     1       2.027   3.890  19.777  0.00  0.00    +0.000 C 
BRANCH  15  16
ATOM     16  C   UNL     1       2.036   5.387  19.577  0.00  0.00    +0.000 A 
ATOM     17  C   UNL     1       2.281   5.939  18.311  0.00  0.00    +0.000 A 
ATOM     18  C   UNL     1       2.249   7.323  18.124  0.00  0.00    +0.000 A 
ATOM     19  C   UNL     1       1.965   8.168  19.200  0.00  0.00    +0.000 A 
ATOM     20  C   UNL     1       1.716   7.622  20.455  0.00  0.00    +0.000 A 
ATOM     21 CL   UNL     1       1.359   8.662  21.781  0.00  0.00    +0.000 Cl
ATOM     22  C   UNL     1       1.749   6.242  20.651  0.00  0.00    +0.000 A 
ENDBRANCH  15  16
ENDBRANCH  14  15
ENDBRANCH   8  14
TORSDOF 4
ENDMDL
