MODEL 1
REMARK VINA RESULT:      -5.9      0.000      0.000
REMARK  Name = 
REMARK  20 active torsions:
REMARK  status: ('A' for Active; 'I' for Inactive)
REMARK    1  A    between atoms: C_1  and  C_2
REMARK    2  A    between atoms: C_2  and  C_3
REMARK    3  A    between atoms: C_3  and  C_4
REMARK    4  A    between atoms: C_4  and  C_5
REMARK    5  A    between atoms: C_6  and  C_7
REMARK    6  A    between atoms: C_7  and  C_8
REMARK    7  A    between atoms: C_9  and  C_10
REMARK    8  A    between atoms: C_10  and  C_11
REMARK    9  A    between atoms: C_12  and  C_13
REMARK   10  A    between atoms: C_13  and  C_14
REMARK   11  A    between atoms: C_15  and  C_16
REMARK   12  A    between atoms: C_16  and  C_17
REMARK   13  A    between atoms: C_17  and  C_18
REMARK   14  A    between atoms: C_18  and  C_19
REMARK   15  A    between atoms: C_19  and  O_21
REMARK   16  A    between atoms: O_21  and  C_22
REMARK   17  A    between atoms: C_22  and  C_23
REMARK   18  A    between atoms: C_23  and  O_24
REMARK   19  A    between atoms: C_23  and  C_25
REMARK   20  A    between atoms: C_25  and  O_26
REMARK                            x       y       z     vdW  Elec       q    Type
REMARK                         _______ _______ _______ _____ _____    ______ ____
ROOT
ATOM      1  C   UNL     1       2.873   3.145  17.072  0.00  0.00    +0.000 C 
ATOM      2  C   UNL     1       3.784   4.116  16.945  0.00  0.00    +0.000 C 
ENDROOT
BRANCH   2   3
ATOM      3  C   UNL     1       3.661   5.495  17.504  0.00  0.00    +0.000 C 
BRANCH   3   4
ATOM      4  C   UNL     1       4.936   5.985  18.185  0.00  0.00    +0.000 C 
BRANCH   4   5
ATOM      5  C   UNL     1       5.750   6.913  17.290  0.00  0.00    +0.000 C 
BRANCH   5   6
ATOM      6  C   UNL     1       7.215   6.584  17.368  0.00  0.00    +0.000 C 
ATOM      7  O   UNL     1       7.934   6.727  18.347  0.00  0.00    +0.000 OA
BRANCH   6   8
ATOM      8  O   UNL     1       7.642   6.184  16.135  0.00  0.00    +0.000 OA
BRANCH   8   9
ATOM      9  C   UNL     1       7.149   4.898  15.736  0.00  0.00    +0.000 C 
BRANCH   9  10
ATOM     10  C   UNL     1       6.645   4.997  14.287  0.00  0.00    +0.000 C 
BRANCH  10  11
ATOM     11  O   UNL     1       7.702   5.350  13.382  0.00  0.00    +0.000 OA
ATOM     12  H   UNL     1       7.522   6.245  13.037  0.00  0.00    +0.000 HD
ENDBRANCH  10  11
BRANCH  10  13
ATOM     13  C   UNL     1       6.005   3.684  13.837  0.00  0.00    +0.000 C 
BRANCH  13  14
ATOM     14  O   UNL     1       6.567   3.212  12.615  0.00  0.00    +0.000 OA
ATOM     15  H   UNL     1       7.347   2.669  12.830  0.00  0.00    +0.000 HD
ENDBRANCH  13  14
ENDBRANCH  10  13
ENDBRANCH   9  10
ENDBRANCH   8   9
ENDBRANCH   6   8
ENDBRANCH   5   6
ENDBRANCH   4   5
ENDBRANCH   3   4
ENDBRANCH   2   3
BRANCH   1  16
ATOM     16  C   UNL     1       1.597   3.266  17.844  0.00  0.00    +0.000 C 
BRANCH  16  18
ATOM     17  C   UNL     1       1.182   2.386  20.162  0.00  0.00    +0.000 C 
ATOM     18  C   UNL     1       1.462   2.183  18.866  0.00  0.00    +0.000 C 
BRANCH  17  19
ATOM     19  C   UNL     1       0.956   3.721  20.825  0.00  0.00    +0.000 C 
BRANCH  19  21
ATOM     20  C   UNL     1       2.570   5.677  20.901  0.00  0.00    +0.000 C 
ATOM     21  C   UNL     1       2.241   4.406  21.198  0.00  0.00    +0.000 C 
BRANCH  20  22
ATOM     22  C   UNL     1       1.677   6.588  20.113  0.00  0.00    +0.000 C 
BRANCH  22  24
ATOM     23  C   UNL     1       1.232   9.056  20.282  0.00  0.00    +0.000 C 
ATOM     24  C   UNL     1       1.311   7.840  20.849  0.00  0.00    +0.000 C 
BRANCH  23  25
ATOM     25  C   UNL     1       1.564   9.319  18.840  0.00  0.00    +0.000 C 
BRANCH  25  26
ATOM     26  C   UNL     1       0.328   9.437  17.954  0.00  0.00    +0.000 C 
BRANCH  26  28
ATOM     27  C   UNL     1      -2.072  10.193  17.975  0.00  0.00    +0.000 C 
ATOM     28  C   UNL     1      -0.699  10.369  18.599  0.00  0.00    +0.000 C 
ENDBRANCH  26  28
ENDBRANCH  25  26
ENDBRANCH  23  25
ENDBRANCH  22  24
ENDBRANCH  20  22
ENDBRANCH  19  21
ENDBRANCH  17  19
ENDBRANCH  16  18
ENDBRANCH   1  16
TORSDOF 19
ENDMDL
MODEL 2
REMARK VINA RESULT:      -5.7      3.752      7.700
REMARK  Name = 
REMARK  20 active torsions:
REMARK  status: ('A' for Active; 'I' for Inactive)
REMARK    1  A    between atoms: C_1  and  C_2
REMARK    2  A    between atoms: C_2  and  C_3
REMARK    3  A    between atoms: C_3  and  C_4
REMARK    4  A    between atoms: C_4  and  C_5
REMARK    5  A    between atoms: C_6  and  C_7
REMARK    6  A    between atoms: C_7  and  C_8
REMARK    7  A    between atoms: C_9  and  C_10
REMARK    8  A    between atoms: C_10  and  C_11
REMARK    9  A    between atoms: C_12  and  C_13
REMARK   10  A    between atoms: C_13  and  C_14
REMARK   11  A    between atoms: C_15  and  C_16
REMARK   12  A    between atoms: C_16  and  C_17
REMARK   13  A    between atoms: C_17  and  C_18
REMARK   14  A    between atoms: C_18  and  C_19
REMARK   15  A    between atoms: C_19  and  O_21
REMARK   16  A    between atoms: O_21  and  C_22
REMARK   17  A    between atoms: C_22  and  C_23
REMARK   18  A    between atoms: C_23  and  O_24
REMARK   19  A    between atoms: C_23  and  C_25
REMARK   20  A    between atoms: C_25  and  O_26
REMARK                            x       y       z     vdW  Elec       q    Type
REMARK                         _______ _______ _______ _____ _____    ______ ____
ROOT
ATOM      1  C   UNL     1       1.612   3.539  20.753  0.00  0.00    +0.000 C 
ATOM      2  C   UNL     1       1.921   4.782  21.140  0.00  0.00    +0.000 C 
ENDROOT
BRANCH   2   3
ATOM      3  C   UNL     1       2.006   5.971  20.241  0.00  0.00    +0.000 C 
BRANCH   3   4
ATOM      4  C   UNL     1       1.142   7.140  20.705  0.00  0.00    +0.000 C 
BRANCH   4   5
ATOM      5  C   UNL     1       1.812   8.487  20.463  0.00  0.00    +0.000 C 
BRANCH   5   6
ATOM      6  C   UNL     1       1.395   9.065  19.140  0.00  0.00    +0.000 C 
ATOM      7  O   UNL     1       1.639   8.590  18.039  0.00  0.00    +0.000 OA
BRANCH   6   8
ATOM      8  O   UNL     1       0.776  10.262  19.357  0.00  0.00    +0.000 OA
BRANCH   8   9
ATOM      9  C   UNL     1      -0.646  10.162  19.510  0.00  0.00    +0.000 C 
BRANCH   9  10
ATOM     10  C   UNL     1      -1.304  10.461  18.153  0.00  0.00    +0.000 C 
BRANCH  10  11
ATOM     11  O   UNL     1      -2.573   9.803  18.024  0.00  0.00    +0.000 OA
ATOM     12  H   UNL     1      -2.893   9.579  18.919  0.00  0.00    +0.000 HD
ENDBRANCH  10  11
BRANCH  10  13
ATOM     13  C   UNL     1      -1.487  11.965  17.951  0.00  0.00    +0.000 C 
BRANCH  13  14
ATOM     14  O   UNL     1      -0.238  12.645  17.865  0.00  0.00    +0.000 OA
ATOM     15  H   UNL     1       0.191  12.389  17.028  0.00  0.00    +0.000 HD
ENDBRANCH  13  14
ENDBRANCH  10  13
ENDBRANCH   9  10
ENDBRANCH   8   9
ENDBRANCH   6   8
ENDBRANCH   5   6
ENDBRANCH   4   5
ENDBRANCH   3   4
ENDBRANCH   2   3
BRANCH   1  16
ATOM     16  C   UNL     1       1.248   3.145  19.357  0.00  0.00    +0.000 C 
BRANCH  16  18
ATOM     17  C   UNL     1       3.215   2.156  18.143  0.00  0.00    +0.000 C 
ATOM     18  C   UNL     1       2.092   2.013  18.862  0.00  0.00    +0.000 C 
BRANCH  17  19
ATOM     19  C   UNL     1       3.830   3.460  17.702  0.00  0.00    +0.000 C 
BRANCH  19  21
ATOM     20  C   UNL     1       5.940   4.600  18.531  0.00  0.00    +0.000 C 
ATOM     21  C   UNL     1       4.726   4.060  18.749  0.00  0.00    +0.000 C 
BRANCH  20  22
ATOM     22  C   UNL     1       6.581   4.647  17.176  0.00  0.00    +0.000 C 
BRANCH  22  24
ATOM     23  C   UNL     1       5.565   5.572  15.072  0.00  0.00    +0.000 C 
ATOM     24  C   UNL     1       6.054   5.750  16.310  0.00  0.00    +0.000 C 
BRANCH  23  25
ATOM     25  C   UNL     1       5.543   4.241  14.374  0.00  0.00    +0.000 C 
BRANCH  25  26
ATOM     26  C   UNL     1       6.759   4.012  13.484  0.00  0.00    +0.000 C 
BRANCH  26  28
ATOM     27  C   UNL     1       4.847   3.317  12.002  0.00  0.00    +0.000 C 
ATOM     28  C   UNL     1       6.316   3.696  12.054  0.00  0.00    +0.000 C 
ENDBRANCH  26  28
ENDBRANCH  25  26
ENDBRANCH  23  25
ENDBRANCH  22  24
ENDBRANCH  20  22
ENDBRANCH  19  21
ENDBRANCH  17  19
ENDBRANCH  16  18
ENDBRANCH   1  16
TORSDOF 19
ENDMDL
MODEL 3
REMARK VINA RESULT:      -5.7      1.505      3.268
REMARK  Name = 
REMARK  20 active torsions:
REMARK  status: ('A' for Active; 'I' for Inactive)
REMARK    1  A    between atoms: C_1  and  C_2
REMARK    2  A    between atoms: C_2  and  C_3
REMARK    3  A    between atoms: C_3  and  C_4
REMARK    4  A    between atoms: C_4  and  C_5
REMARK    5  A    between atoms: C_6  and  C_7
REMARK    6  A    between atoms: C_7  and  C_8
REMARK    7  A    between atoms: C_9  and  C_10
REMARK    8  A    between atoms: C_10  and  C_11
REMARK    9  A    between atoms: C_12  and  C_13
REMARK   10  A    between atoms: C_13  and  C_14
REMARK   11  A    between atoms: C_15  and  C_16
REMARK   12  A    between atoms: C_16  and  C_17
REMARK   13  A    between atoms: C_17  and  C_18
REMARK   14  A    between atoms: C_18  and  C_19
REMARK   15  A    between atoms: C_19  and  O_21
REMARK   16  A    between atoms: O_21  and  C_22
REMARK   17  A    between atoms: C_22  and  C_23
REMARK   18  A    between atoms: C_23  and  O_24
REMARK   19  A    between atoms: C_23  and  C_25
REMARK   20  A    between atoms: C_25  and  O_26
REMARK                            x       y       z     vdW  Elec       q    Type
REMARK                         _______ _______ _______ _____ _____    ______ ____
ROOT
ATOM      1  C   UNL     1       3.091   2.877  18.021  0.00  0.00    +0.000 C 
ATOM      2  C   UNL     1       4.081   3.094  17.147  0.00  0.00    +0.000 C 
ENDROOT
BRANCH   2   3
ATOM      3  C   UNL     1       3.993   3.970  15.942  0.00  0.00    +0.000 C 
BRANCH   3   4
ATOM      4  C   UNL     1       5.304   4.062  15.167  0.00  0.00    +0.000 C 
BRANCH   4   5
ATOM      5  C   UNL     1       6.014   5.393  15.387  0.00  0.00    +0.000 C 
BRANCH   5   6
ATOM      6  C   UNL     1       7.212   5.222  16.279  0.00  0.00    +0.000 C 
ATOM      7  O   UNL     1       7.996   4.283  16.258  0.00  0.00    +0.000 OA
BRANCH   6   8
ATOM      8  O   UNL     1       7.235   6.242  17.185  0.00  0.00    +0.000 OA
BRANCH   8   9
ATOM      9  C   UNL     1       6.088   6.283  18.044  0.00  0.00    +0.000 C 
BRANCH   9  10
ATOM     10  C   UNL     1       6.466   5.648  19.393  0.00  0.00    +0.000 C 
BRANCH  10  11
ATOM     11  O   UNL     1       6.058   4.274  19.463  0.00  0.00    +0.000 OA
ATOM     12  H   UNL     1       5.532   4.154  20.276  0.00  0.00    +0.000 HD
ENDBRANCH  10  11
BRANCH  10  13
ATOM     13  C   UNL     1       7.971   5.748  19.644  0.00  0.00    +0.000 C 
BRANCH  13  14
ATOM     14  O   UNL     1       8.331   5.228  20.921  0.00  0.00    +0.000 OA
ATOM     15  H   UNL     1       8.182   4.265  20.910  0.00  0.00    +0.000 HD
ENDBRANCH  13  14
ENDBRANCH  10  13
ENDBRANCH   9  10
ENDBRANCH   8   9
ENDBRANCH   6   8
ENDBRANCH   5   6
ENDBRANCH   4   5
ENDBRANCH   3   4
ENDBRANCH   2   3
BRANCH   1  16
ATOM     16  C   UNL     1       1.742   3.520  17.960  0.00  0.00    +0.000 C 
BRANCH  16  18
ATOM     17  C   UNL     1       1.270   3.934  20.395  0.00  0.00    +0.000 C 
ATOM     18  C   UNL     1       0.979   3.331  19.233  0.00  0.00    +0.000 C 
BRANCH  17  19
ATOM     19  C   UNL     1       2.403   4.898  20.638  0.00  0.00    +0.000 C 
BRANCH  19  21
ATOM     20  C   UNL     1       1.929   7.295  19.952  0.00  0.00    +0.000 C 
ATOM     21  C   UNL     1       1.926   6.306  20.865  0.00  0.00    +0.000 C 
BRANCH  20  22
ATOM     22  C   UNL     1       2.451   7.116  18.558  0.00  0.00    +0.000 C 
BRANCH  22  24
ATOM     23  C   UNL     1       1.896   9.373  17.602  0.00  0.00    +0.000 C 
ATOM     24  C   UNL     1       2.790   8.410  17.883  0.00  0.00    +0.000 C 
BRANCH  23  25
ATOM     25  C   UNL     1       0.424   9.241  17.876  0.00  0.00    +0.000 C 
BRANCH  25  26
ATOM     26  C   UNL     1      -0.094  10.276  18.869  0.00  0.00    +0.000 C 
BRANCH  26  28
ATOM     27  C   UNL     1      -1.974  10.128  17.203  0.00  0.00    +0.000 C 
ATOM     28  C   UNL     1      -1.360  10.942  18.327  0.00  0.00    +0.000 C 
ENDBRANCH  26  28
ENDBRANCH  25  26
ENDBRANCH  23  25
ENDBRANCH  22  24
ENDBRANCH  20  22
ENDBRANCH  19  21
ENDBRANCH  17  19
ENDBRANCH  16  18
ENDBRANCH   1  16
TORSDOF 19
ENDMDL
MODEL 4
REMARK VINA RESULT:      -5.6      1.998      4.595
REMARK  Name = 
REMARK  20 active torsions:
REMARK  status: ('A' for Active; 'I' for Inactive)
REMARK    1  A    between atoms: C_1  and  C_2
REMARK    2  A    between atoms: C_2  and  C_3
REMARK    3  A    between atoms: C_3  and  C_4
REMARK    4  A    between atoms: C_4  and  C_5
REMARK    5  A    between atoms: C_6  and  C_7
REMARK    6  A    between atoms: C_7  and  C_8
REMARK    7  A    between atoms: C_9  and  C_10
REMARK    8  A    between atoms: C_10  and  C_11
REMARK    9  A    between atoms: C_12  and  C_13
REMARK   10  A    between atoms: C_13  and  C_14
REMARK   11  A    between atoms: C_15  and  C_16
REMARK   12  A    between atoms: C_16  and  C_17
REMARK   13  A    between atoms: C_17  and  C_18
REMARK   14  A    between atoms: C_18  and  C_19
REMARK   15  A    between atoms: C_19  and  O_21
REMARK   16  A    between atoms: O_21  and  C_22
REMARK   17  A    between atoms: C_22  and  C_23
REMARK   18  A    between atoms: C_23  and  O_24
REMARK   19  A    between atoms: C_23  and  C_25
REMARK   20  A    between atoms: C_25  and  O_26
REMARK                            x       y       z     vdW  Elec       q    Type
REMARK                         _______ _______ _______ _____ _____    ______ ____
ROOT
ATOM      1  C   UNL     1       2.482   6.291  19.842  0.00  0.00    +0.000 C 
ATOM      2  C   UNL     1       2.198   5.107  20.398  0.00  0.00    +0.000 C 
ENDROOT
BRANCH   2   3
ATOM      3  C   UNL     1       1.275   4.083  19.828  0.00  0.00    +0.000 C 
BRANCH   3   4
ATOM      4  C   UNL     1       1.765   3.500  18.505  0.00  0.00    +0.000 C 
BRANCH   4   5
ATOM      5  C   UNL     1       2.867   2.466  18.702  0.00  0.00    +0.000 C 
BRANCH   5   6
ATOM      6  C   UNL     1       4.223   3.081  18.500  0.00  0.00    +0.000 C 
ATOM      7  O   UNL     1       5.025   3.361  19.381  0.00  0.00    +0.000 OA
BRANCH   6   8
ATOM      8  O   UNL     1       4.384   3.368  17.175  0.00  0.00    +0.000 OA
BRANCH   8   9
ATOM      9  C   UNL     1       4.453   4.771  16.887  0.00  0.00    +0.000 C 
BRANCH   9  10
ATOM     10  C   UNL     1       5.456   4.984  15.741  0.00  0.00    +0.000 C 
BRANCH  10  11
ATOM     11  O   UNL     1       5.367   6.311  15.201  0.00  0.00    +0.000 OA
ATOM     12  H   UNL     1       6.029   6.395  14.489  0.00  0.00    +0.000 HD
ENDBRANCH  10  11
BRANCH  10  13
ATOM     13  C   UNL     1       6.887   4.716  16.205  0.00  0.00    +0.000 C 
BRANCH  13  14
ATOM     14  O   UNL     1       7.649   5.917  16.295  0.00  0.00    +0.000 OA
ATOM     15  H   UNL     1       7.630   6.354  15.425  0.00  0.00    +0.000 HD
ENDBRANCH  13  14
ENDBRANCH  10  13
ENDBRANCH   9  10
ENDBRANCH   8   9
ENDBRANCH   6   8
ENDBRANCH   5   6
ENDBRANCH   4   5
ENDBRANCH   3   4
ENDBRANCH   2   3
BRANCH   1  16
ATOM     16  C   UNL     1       1.956   6.762  18.524  0.00  0.00    +0.000 C 
BRANCH  16  18
ATOM     17  C   UNL     1       2.317   9.170  17.895  0.00  0.00    +0.000 C 
ATOM     18  C   UNL     1       2.756   7.906  17.984  0.00  0.00    +0.000 C 
BRANCH  17  19
ATOM     19  C   UNL     1       0.957   9.672  18.311  0.00  0.00    +0.000 C 
BRANCH  19  21
ATOM     20  C   UNL     1       0.317  10.821  20.481  0.00  0.00    +0.000 C 
ATOM     21  C   UNL     1       0.808   9.766  19.804  0.00  0.00    +0.000 C 
BRANCH  20  22
ATOM     22  C   UNL     1      -0.131  12.085  19.809  0.00  0.00    +0.000 C 
BRANCH  22  24
ATOM     23  C   UNL     1      -2.485  11.868  18.957  0.00  0.00    +0.000 C 
ATOM     24  C   UNL     1      -1.612  12.300  19.881  0.00  0.00    +0.000 C 
BRANCH  23  25
ATOM     25  C   UNL     1      -2.073  11.163  17.695  0.00  0.00    +0.000 C 
BRANCH  25  26
ATOM     26  C   UNL     1      -2.703   9.782  17.547  0.00  0.00    +0.000 C 
BRANCH  26  28
ATOM     27  C   UNL     1      -2.869  10.765  15.236  0.00  0.00    +0.000 C 
ATOM     28  C   UNL     1      -3.250   9.599  16.131  0.00  0.00    +0.000 C 
ENDBRANCH  26  28
ENDBRANCH  25  26
ENDBRANCH  23  25
ENDBRANCH  22  24
ENDBRANCH  20  22
ENDBRANCH  19  21
ENDBRANCH  17  19
ENDBRANCH  16  18
ENDBRANCH   1  16
TORSDOF 19
ENDMDL
MODEL 5
REMARK VINA RESULT:      -5.6      1.840      2.645
REMARK  Name = 
REMARK  20 active torsions:
REMARK  status: ('A' for Active; 'I' for Inactive)
REMARK    1  A    between atoms: C_1  and  C_2
REMARK    2  A    between atoms: C_2  and  C_3
REMARK    3  A    between atoms: C_3  and  C_4
REMARK    4  A    between atoms: C_4  and  C_5
REMARK    5  A    between atoms: C_6  and  C_7
REMARK    6  A    between atoms: C_7  and  C_8
REMARK    7  A    between atoms: C_9  and  C_10
REMARK    8  A    between atoms: C_10  and  C_11
REMARK    9  A    between atoms: C_12  and  C_13
REMARK   10  A    between atoms: C_13  and  C_14
REMARK   11  A    between atoms: C_15  and  C_16
REMARK   12  A    between atoms: C_16  and  C_17
REMARK   13  A    between atoms: C_17  and  C_18
REMARK   14  A    between atoms: C_18  and  C_19
REMARK   15  A    between atoms: C_19  and  O_21
REMARK   16  A    between atoms: O_21  and  C_22
REMARK   17  A    between atoms: C_22  and  C_23
REMARK   18  A    between atoms: C_23  and  O_24
REMARK   19  A    between atoms: C_23  and  C_25
REMARK   20  A    between atoms: C_25  and  O_26
REMARK                            x       y       z     vdW  Elec       q    Type
REMARK                         _______ _______ _______ _____ _____    ______ ____
ROOT
ATOM      1  C   UNL     1       3.861   1.973  19.442  0.00  0.00    +0.000 C 
ATOM      2  C   UNL     1       4.752   2.888  19.840  0.00  0.00    +0.000 C 
ENDROOT
BRANCH   2   3
ATOM      3  C   UNL     1       4.981   4.212  19.191  0.00  0.00    +0.000 C 
BRANCH   3   4
ATOM      4  C   UNL     1       6.426   4.424  18.748  0.00  0.00    +0.000 C 
BRANCH   4   5
ATOM      5  C   UNL     1       6.795   5.901  18.662  0.00  0.00    +0.000 C 
BRANCH   5   6
ATOM      6  C   UNL     1       7.412   6.223  17.330  0.00  0.00    +0.000 C 
ATOM      7  O   UNL     1       7.576   7.343  16.866  0.00  0.00    +0.000 OA
BRANCH   6   8
ATOM      8  O   UNL     1       7.679   5.057  16.674  0.00  0.00    +0.000 OA
BRANCH   8   9
ATOM      9  C   UNL     1       7.486   5.129  15.256  0.00  0.00    +0.000 C 
BRANCH   9  10
ATOM     10  C   UNL     1       6.202   4.361  14.900  0.00  0.00    +0.000 C 
BRANCH  10  11
ATOM     11  O   UNL     1       6.163   3.073  15.533  0.00  0.00    +0.000 OA
ATOM     12  H   UNL     1       6.738   3.104  16.322  0.00  0.00    +0.000 HD
ENDBRANCH  10  11
BRANCH  10  13
ATOM     13  C   UNL     1       4.958   5.159  15.289  0.00  0.00    +0.000 C 
BRANCH  13  14
ATOM     14  O   UNL     1       5.177   6.564  15.194  0.00  0.00    +0.000 OA
ATOM     15  H   UNL     1       6.068   6.756  15.540  0.00  0.00    +0.000 HD
ENDBRANCH  13  14
ENDBRANCH  10  13
ENDBRANCH   9  10
ENDBRANCH   8   9
ENDBRANCH   6   8
ENDBRANCH   5   6
ENDBRANCH   4   5
ENDBRANCH   3   4
ENDBRANCH   2   3
BRANCH   1  16
ATOM     16  C   UNL     1       2.907   2.150  18.304  0.00  0.00    +0.000 C 
BRANCH  16  18
ATOM     17  C   UNL     1       0.888   3.347  19.209  0.00  0.00    +0.000 C 
ATOM     18  C   UNL     1       1.489   2.229  18.776  0.00  0.00    +0.000 C 
BRANCH  17  19
ATOM     19  C   UNL     1       1.516   4.714  19.305  0.00  0.00    +0.000 C 
BRANCH  19  21
ATOM     20  C   UNL     1       2.355   6.493  17.701  0.00  0.00    +0.000 C 
ATOM     21  C   UNL     1       1.994   5.225  17.974  0.00  0.00    +0.000 C 
BRANCH  20  22
ATOM     22  C   UNL     1       2.296   7.595  18.717  0.00  0.00    +0.000 C 
BRANCH  22  24
ATOM     23  C   UNL     1       1.450   9.946  18.453  0.00  0.00    +0.000 C 
ATOM     24  C   UNL     1       2.296   8.962  18.106  0.00  0.00    +0.000 C 
BRANCH  23  25
ATOM     25  C   UNL     1       0.349   9.773  19.463  0.00  0.00    +0.000 C 
BRANCH  25  26
ATOM     26  C   UNL     1       0.706  10.326  20.838  0.00  0.00    +0.000 C 
BRANCH  26  28
ATOM     27  C   UNL     1      -0.007   9.525  23.115  0.00  0.00    +0.000 C 
ATOM     28  C   UNL     1       0.783   9.192  21.861  0.00  0.00    +0.000 C 
ENDBRANCH  26  28
ENDBRANCH  25  26
ENDBRANCH  23  25
ENDBRANCH  22  24
ENDBRANCH  20  22
ENDBRANCH  19  21
ENDBRANCH  17  19
ENDBRANCH  16  18
ENDBRANCH   1  16
TORSDOF 19
ENDMDL
MODEL 6
REMARK VINA RESULT:      -5.5      1.628      3.473
REMARK  Name = 
REMARK  20 active torsions:
REMARK  status: ('A' for Active; 'I' for Inactive)
REMARK    1  A    between atoms: C_1  and  C_2
REMARK    2  A    between atoms: C_2  and  C_3
REMARK    3  A    between atoms: C_3  and  C_4
REMARK    4  A    between atoms: C_4  and  C_5
REMARK    5  A    between atoms: C_6  and  C_7
REMARK    6  A    between atoms: C_7  and  C_8
REMARK    7  A    between atoms: C_9  and  C_10
REMARK    8  A    between atoms: C_10  and  C_11
REMARK    9  A    between atoms: C_12  and  C_13
REMARK   10  A    between atoms: C_13  and  C_14
REMARK   11  A    between atoms: C_15  and  C_16
REMARK   12  A    between atoms: C_16  and  C_17
REMARK   13  A    between atoms: C_17  and  C_18
REMARK   14  A    between atoms: C_18  and  C_19
REMARK   15  A    between atoms: C_19  and  O_21
REMARK   16  A    between atoms: O_21  and  C_22
REMARK   17  A    between atoms: C_22  and  C_23
REMARK   18  A    between atoms: C_23  and  O_24
REMARK   19  A    between atoms: C_23  and  C_25
REMARK   20  A    between atoms: C_25  and  O_26
REMARK                            x       y       z     vdW  Elec       q    Type
REMARK                         _______ _______ _______ _____ _____    ______ ____
ROOT
ATOM      1  C   UNL     1       3.482   2.350  20.684  0.00  0.00    +0.000 C 
ATOM      2  C   UNL     1       4.581   2.448  19.927  0.00  0.00    +0.000 C 
ENDROOT
BRANCH   2   3
ATOM      3  C   UNL     1       4.847   3.520  18.924  0.00  0.00    +0.000 C 
BRANCH   3   4
ATOM      4  C   UNL     1       4.684   3.050  17.481  0.00  0.00    +0.000 C 
BRANCH   4   5
ATOM      5  C   UNL     1       4.726   4.204  16.487  0.00  0.00    +0.000 C 
BRANCH   5   6
ATOM      6  C   UNL     1       5.956   4.128  15.626  0.00  0.00    +0.000 C 
ATOM      7  O   UNL     1       6.080   3.461  14.608  0.00  0.00    +0.000 OA
BRANCH   6   8
ATOM      8  O   UNL     1       6.951   4.852  16.215  0.00  0.00    +0.000 OA
BRANCH   8   9
ATOM      9  C   UNL     1       6.568   6.188  16.569  0.00  0.00    +0.000 C 
BRANCH   9  10
ATOM     10  C   UNL     1       7.636   6.768  17.510  0.00  0.00    +0.000 C 
BRANCH  10  11
ATOM     11  O   UNL     1       7.473   8.183  17.688  0.00  0.00    +0.000 OA
ATOM     12  H   UNL     1       7.260   8.576  16.820  0.00  0.00    +0.000 HD
ENDBRANCH  10  11
BRANCH  10  13
ATOM     13  C   UNL     1       7.602   6.075  18.873  0.00  0.00    +0.000 C 
BRANCH  13  14
ATOM     14  O   UNL     1       8.178   4.773  18.820  0.00  0.00    +0.000 OA
ATOM     15  H   UNL     1       7.871   4.337  18.004  0.00  0.00    +0.000 HD
ENDBRANCH  13  14
ENDBRANCH  10  13
ENDBRANCH   9  10
ENDBRANCH   8   9
ENDBRANCH   6   8
ENDBRANCH   5   6
ENDBRANCH   4   5
ENDBRANCH   3   4
ENDBRANCH   2   3
BRANCH   1  16
ATOM     16  C   UNL     1       2.356   3.335  20.685  0.00  0.00    +0.000 C 
BRANCH  16  18
ATOM     17  C   UNL     1       0.917   3.545  18.633  0.00  0.00    +0.000 C 
ATOM     18  C   UNL     1       1.250   2.915  19.770  0.00  0.00    +0.000 C 
BRANCH  17  19
ATOM     19  C   UNL     1       1.580   4.777  18.071  0.00  0.00    +0.000 C 
BRANCH  19  21
ATOM     20  C   UNL     1       2.421   6.970  19.030  0.00  0.00    +0.000 C 
ATOM     21  C   UNL     1       2.175   5.652  19.139  0.00  0.00    +0.000 C 
BRANCH  20  22
ATOM     22  C   UNL     1       2.148   7.750  17.778  0.00  0.00    +0.000 C 
BRANCH  22  24
ATOM     23  C   UNL     1       1.694  10.165  18.305  0.00  0.00    +0.000 C 
ATOM     24  C   UNL     1       2.525   9.196  17.888  0.00  0.00    +0.000 C 
BRANCH  23  25
ATOM     25  C   UNL     1       0.252   9.924  18.655  0.00  0.00    +0.000 C 
BRANCH  25  26
ATOM     26  C   UNL     1      -0.104  10.375  20.067  0.00  0.00    +0.000 C 
BRANCH  26  28
ATOM     27  C   UNL     1       1.127   9.053  21.819  0.00  0.00    +0.000 C 
ATOM     28  C   UNL     1      -0.152   9.172  21.011  0.00  0.00    +0.000 C 
ENDBRANCH  26  28
ENDBRANCH  25  26
ENDBRANCH  23  25
ENDBRANCH  22  24
ENDBRANCH  20  22
ENDBRANCH  19  21
ENDBRANCH  17  19
ENDBRANCH  16  18
ENDBRANCH   1  16
TORSDOF 19
ENDMDL
MODEL 7
REMARK VINA RESULT:      -5.5      1.797      2.841
REMARK  Name = 
REMARK  20 active torsions:
REMARK  status: ('A' for Active; 'I' for Inactive)
REMARK    1  A    between atoms: C_1  and  C_2
REMARK    2  A    between atoms: C_2  and  C_3
REMARK    3  A    between atoms: C_3  and  C_4
REMARK    4  A    between atoms: C_4  and  C_5
REMARK    5  A    between atoms: C_6  and  C_7
REMARK    6  A    between atoms: C_7  and  C_8
REMARK    7  A    between atoms: C_9  and  C_10
REMARK    8  A    between atoms: C_10  and  C_11
REMARK    9  A    between atoms: C_12  and  C_13
REMARK   10  A    between atoms: C_13  and  C_14
REMARK   11  A    between atoms: C_15  and  C_16
REMARK   12  A    between atoms: C_16  and  C_17
REMARK   13  A    between atoms: C_17  and  C_18
REMARK   14  A    between atoms: C_18  and  C_19
REMARK   15  A    between atoms: C_19  and  O_21
REMARK   16  A    between atoms: O_21  and  C_22
REMARK   17  A    between atoms: C_22  and  C_23
REMARK   18  A    between atoms: C_23  and  O_24
REMARK   19  A    between atoms: C_23  and  C_25
REMARK   20  A    between atoms: C_25  and  O_26
REMARK                            x       y       z     vdW  Elec       q    Type
REMARK                         _______ _______ _______ _____ _____    ______ ____
ROOT
ATOM      1  C   UNL     1       2.332   2.542  19.613  0.00  0.00    +0.000 C 
ATOM      2  C   UNL     1       3.234   2.285  18.659  0.00  0.00    +0.000 C 
ENDROOT
BRANCH   2   3
ATOM      3  C   UNL     1       3.206   2.837  17.272  0.00  0.00    +0.000 C 
BRANCH   3   4
ATOM      4  C   UNL     1       4.576   3.290  16.777  0.00  0.00    +0.000 C 
BRANCH   4   5
ATOM      5  C   UNL     1       4.913   4.708  17.222  0.00  0.00    +0.000 C 
BRANCH   5   6
ATOM      6  C   UNL     1       5.540   5.489  16.101  0.00  0.00    +0.000 C 
ATOM      7  O   UNL     1       5.742   6.696  16.090  0.00  0.00    +0.000 OA
BRANCH   6   8
ATOM      8  O   UNL     1       5.768   4.647  15.052  0.00  0.00    +0.000 OA
BRANCH   8   9
ATOM      9  C   UNL     1       7.136   4.602  14.627  0.00  0.00    +0.000 C 
BRANCH   9  10
ATOM     10  C   UNL     1       7.211   5.094  13.172  0.00  0.00    +0.000 C 
BRANCH  10  11
ATOM     11  O   UNL     1       8.417   5.831  12.924  0.00  0.00    +0.000 OA
ATOM     12  H   UNL     1       8.421   6.102  11.987  0.00  0.00    +0.000 HD
ENDBRANCH  10  11
BRANCH  10  13
ATOM     13  C   UNL     1       7.116   3.926  12.191  0.00  0.00    +0.000 C 
BRANCH  13  14
ATOM     14  O   UNL     1       6.185   2.940  12.629  0.00  0.00    +0.000 OA
ATOM     15  H   UNL     1       5.654   3.322  13.351  0.00  0.00    +0.000 HD
ENDBRANCH  13  14
ENDBRANCH  10  13
ENDBRANCH   9  10
ENDBRANCH   8   9
ENDBRANCH   6   8
ENDBRANCH   5   6
ENDBRANCH   4   5
ENDBRANCH   3   4
ENDBRANCH   2   3
BRANCH   1  16
ATOM     16  C   UNL     1       1.170   3.472  19.462  0.00  0.00    +0.000 C 
BRANCH  16  18
ATOM     17  C   UNL     1       1.882   5.617  20.564  0.00  0.00    +0.000 C 
ATOM     18  C   UNL     1       1.138   4.501  20.547  0.00  0.00    +0.000 C 
BRANCH  17  19
ATOM     19  C   UNL     1       2.879   6.038  19.515  0.00  0.00    +0.000 C 
BRANCH  19  21
ATOM     20  C   UNL     1       1.993   7.634  17.752  0.00  0.00    +0.000 C 
ATOM     21  C   UNL     1       2.227   6.389  18.206  0.00  0.00    +0.000 C 
BRANCH  20  22
ATOM     22  C   UNL     1       2.339   8.866  18.534  0.00  0.00    +0.000 C 
BRANCH  22  24
ATOM     23  C   UNL     1       0.478   9.984  19.800  0.00  0.00    +0.000 C 
ATOM     24  C   UNL     1       1.192   9.819  18.674  0.00  0.00    +0.000 C 
BRANCH  23  25
ATOM     25  C   UNL     1       0.708   9.182  21.050  0.00  0.00    +0.000 C 
BRANCH  25  26
ATOM     26  C   UNL     1       0.108   9.826  22.295  0.00  0.00    +0.000 C 
BRANCH  26  28
ATOM     27  C   UNL     1      -1.451  11.621  23.120  0.00  0.00    +0.000 C 
ATOM     28  C   UNL     1      -0.877  10.927  21.898  0.00  0.00    +0.000 C 
ENDBRANCH  26  28
ENDBRANCH  25  26
ENDBRANCH  23  25
ENDBRANCH  22  24
ENDBRANCH  20  22
ENDBRANCH  19  21
ENDBRANCH  17  19
ENDBRANCH  16  18
ENDBRANCH   1  16
TORSDOF 19
ENDMDL
MODEL 8
REMARK VINA RESULT:      -5.5      2.298      5.086
REMARK  Name = 
REMARK  20 active torsions:
REMARK  status: ('A' for Active; 'I' for Inactive)
REMARK    1  A    between atoms: C_1  and  C_2
REMARK    2  A    between atoms: C_2  and  C_3
REMARK    3  A    between atoms: C_3  and  C_4
REMARK    4  A    between atoms: C_4  and  C_5
REMARK    5  A    between atoms: C_6  and  C_7
REMARK    6  A    between atoms: C_7  and  C_8
REMARK    7  A    between atoms: C_9  and  C_10
REMARK    8  A    between atoms: C_10  and  C_11
REMARK    9  A    between atoms: C_12  and  C_13
REMARK   10  A    between atoms: C_13  and  C_14
REMARK   11  A    between atoms: C_15  and  C_16
REMARK   12  A    between atoms: C_16  and  C_17
REMARK   13  A    between atoms: C_17  and  C_18
REMARK   14  A    between atoms: C_18  and  C_19
REMARK   15  A    between atoms: C_19  and  O_21
REMARK   16  A    between atoms: O_21  and  C_22
REMARK   17  A    between atoms: C_22  and  C_23
REMARK   18  A    between atoms: C_23  and  O_24
REMARK   19  A    between atoms: C_23  and  C_25
REMARK   20  A    between atoms: C_25  and  O_26
REMARK                            x       y       z     vdW  Elec       q    Type
REMARK                         _______ _______ _______ _____ _____    ______ ____
ROOT
ATOM      1  C   UNL     1       2.410   6.689  19.839  0.00  0.00    +0.000 C 
ATOM      2  C   UNL     1       2.078   5.668  20.639  0.00  0.00    +0.000 C 
ENDROOT
BRANCH   2   3
ATOM      3  C   UNL     1       1.139   4.563  20.284  0.00  0.00    +0.000 C 
BRANCH   3   4
ATOM      4  C   UNL     1       1.832   3.370  19.633  0.00  0.00    +0.000 C 
BRANCH   4   5
ATOM      5  C   UNL     1       3.325   3.328  19.941  0.00  0.00    +0.000 C 
BRANCH   5   6
ATOM      6  C   UNL     1       4.132   3.254  18.675  0.00  0.00    +0.000 C 
ATOM      7  O   UNL     1       3.966   2.458  17.761  0.00  0.00    +0.000 OA
BRANCH   6   8
ATOM      8  O   UNL     1       5.148   4.163  18.747  0.00  0.00    +0.000 OA
BRANCH   8   9
ATOM      9  C   UNL     1       5.062   5.210  17.771  0.00  0.00    +0.000 C 
BRANCH   9  10
ATOM     10  C   UNL     1       6.483   5.720  17.478  0.00  0.00    +0.000 C 
BRANCH  10  11
ATOM     11  O   UNL     1       7.150   6.145  18.676  0.00  0.00    +0.000 OA
ATOM     12  H   UNL     1       8.061   5.797  18.657  0.00  0.00    +0.000 HD
ENDBRANCH  10  11
BRANCH  10  13
ATOM     13  C   UNL     1       7.319   4.647  16.782  0.00  0.00    +0.000 C 
BRANCH  13  14
ATOM     14  O   UNL     1       8.218   4.006  17.684  0.00  0.00    +0.000 OA
ATOM     15  H   UNL     1       7.702   3.407  18.253  0.00  0.00    +0.000 HD
ENDBRANCH  13  14
ENDBRANCH  10  13
ENDBRANCH   9  10
ENDBRANCH   8   9
ENDBRANCH   6   8
ENDBRANCH   5   6
ENDBRANCH   4   5
ENDBRANCH   3   4
ENDBRANCH   2   3
BRANCH   1  16
ATOM     16  C   UNL     1       1.932   6.861  18.432  0.00  0.00    +0.000 C 
BRANCH  16  18
ATOM     17  C   UNL     1       2.076   9.320  17.926  0.00  0.00    +0.000 C 
ATOM     18  C   UNL     1       2.536   8.068  17.786  0.00  0.00    +0.000 C 
BRANCH  17  19
ATOM     19  C   UNL     1       0.885   9.744  18.745  0.00  0.00    +0.000 C 
BRANCH  19  21
ATOM     20  C   UNL     1      -1.254  10.877  17.982  0.00  0.00    +0.000 C 
ATOM     21  C   UNL     1      -0.369   9.864  17.924  0.00  0.00    +0.000 C 
BRANCH  20  22
ATOM     22  C   UNL     1      -1.108  12.036  18.922  0.00  0.00    +0.000 C 
BRANCH  22  24
ATOM     23  C   UNL     1      -1.912  12.247  21.294  0.00  0.00    +0.000 C 
ATOM     24  C   UNL     1      -2.162  12.070  19.986  0.00  0.00    +0.000 C 
BRANCH  23  25
ATOM     25  C   UNL     1      -0.526  12.372  21.861  0.00  0.00    +0.000 C 
BRANCH  25  26
ATOM     26  C   UNL     1       0.228  11.047  21.896  0.00  0.00    +0.000 C 
BRANCH  26  28
ATOM     27  C   UNL     1      -0.502   8.640  21.984  0.00  0.00    +0.000 C 
ATOM     28  C   UNL     1      -0.582   9.997  22.659  0.00  0.00    +0.000 C 
ENDBRANCH  26  28
ENDBRANCH  25  26
ENDBRANCH  23  25
ENDBRANCH  22  24
ENDBRANCH  20  22
ENDBRANCH  19  21
ENDBRANCH  17  19
ENDBRANCH  16  18
ENDBRANCH   1  16
TORSDOF 19
ENDMDL
MODEL 9
REMARK VINA RESULT:      -5.5      1.805      4.063
REMARK  Name = 
REMARK  20 active torsions:
REMARK  status: ('A' for Active; 'I' for Inactive)
REMARK    1  A    between atoms: C_1  and  C_2
REMARK    2  A    between atoms: C_2  and  C_3
REMARK    3  A    between atoms: C_3  and  C_4
REMARK    4  A    between atoms: C_4  and  C_5
REMARK    5  A    between atoms: C_6  and  C_7
REMARK    6  A    between atoms: C_7  and  C_8
REMARK    7  A    between atoms: C_9  and  C_10
REMARK    8  A    between atoms: C_10  and  C_11
REMARK    9  A    between atoms: C_12  and  C_13
REMARK   10  A    between atoms: C_13  and  C_14
REMARK   11  A    between atoms: C_15  and  C_16
REMARK   12  A    between atoms: C_16  and  C_17
REMARK   13  A    between atoms: C_17  and  C_18
REMARK   14  A    between atoms: C_18  and  C_19
REMARK   15  A    between atoms: C_19  and  O_21
REMARK   16  A    between atoms: O_21  and  C_22
REMARK   17  A    between atoms: C_22  and  C_23
REMARK   18  A    between atoms: C_23  and  O_24
REMARK   19  A    between atoms: C_23  and  C_25
REMARK   20  A    between atoms: C_25  and  O_26
REMARK                            x       y       z     vdW  Elec       q    Type
REMARK                         _______ _______ _______ _____ _____    ______ ____
ROOT
ATOM      1  C   UNL     1       2.374   5.748  18.080  0.00  0.00    +0.000 C 
ATOM      2  C   UNL     1       2.949   4.565  18.325  0.00  0.00    +0.000 C 
ENDROOT
BRANCH   2   3
ATOM      3  C   UNL     1       3.783   4.240  19.519  0.00  0.00    +0.000 C 
BRANCH   3   4
ATOM      4  C   UNL     1       5.277   4.186  19.214  0.00  0.00    +0.000 C 
BRANCH   4   5
ATOM      5  C   UNL     1       5.842   5.553  18.841  0.00  0.00    +0.000 C 
BRANCH   5   6
ATOM      6  C   UNL     1       7.293   5.449  18.461  0.00  0.00    +0.000 C 
ATOM      7  O   UNL     1       8.171   4.907  19.119  0.00  0.00    +0.000 OA
BRANCH   6   8
ATOM      8  O   UNL     1       7.495   6.140  17.302  0.00  0.00    +0.000 OA
BRANCH   8   9
ATOM      9  C   UNL     1       6.543   5.840  16.273  0.00  0.00    +0.000 C 
BRANCH   9  10
ATOM     10  C   UNL     1       6.930   4.500  15.627  0.00  0.00    +0.000 C 
BRANCH  10  11
ATOM     11  O   UNL     1       5.979   3.470  15.936  0.00  0.00    +0.000 OA
ATOM     12  H   UNL     1       5.099   3.883  16.022  0.00  0.00    +0.000 HD
ENDBRANCH  10  11
BRANCH  10  13
ATOM     13  C   UNL     1       7.059   4.637  14.110  0.00  0.00    +0.000 C 
BRANCH  13  14
ATOM     14  O   UNL     1       7.993   5.650  13.746  0.00  0.00    +0.000 OA
ATOM     15  H   UNL     1       7.729   6.009  12.879  0.00  0.00    +0.000 HD
ENDBRANCH  13  14
ENDBRANCH  10  13
ENDBRANCH   9  10
ENDBRANCH   8   9
ENDBRANCH   6   8
ENDBRANCH   5   6
ENDBRANCH   4   5
ENDBRANCH   3   4
ENDBRANCH   2   3
BRANCH   1  16
ATOM     16  C   UNL     1       2.431   6.930  18.994  0.00  0.00    +0.000 C 
BRANCH  16  18
ATOM     17  C   UNL     1       1.639   9.287  18.617  0.00  0.00    +0.000 C 
ATOM     18  C   UNL     1       2.358   8.220  18.239  0.00  0.00    +0.000 C 
BRANCH  17  19
ATOM     19  C   UNL     1       0.781   9.390  19.852  0.00  0.00    +0.000 C 
BRANCH  19  21
ATOM     20  C   UNL     1       0.707  11.922  20.000  0.00  0.00    +0.000 C 
ATOM     21  C   UNL     1       0.927  10.713  20.550  0.00  0.00    +0.000 C 
BRANCH  20  22
ATOM     22  C   UNL     1       0.302  12.105  18.568  0.00  0.00    +0.000 C 
BRANCH  22  24
ATOM     23  C   UNL     1      -2.141  11.708  18.130  0.00  0.00    +0.000 C 
ATOM     24  C   UNL     1      -1.123  12.540  18.407  0.00  0.00    +0.000 C 
BRANCH  23  25
ATOM     25  C   UNL     1      -1.963  10.236  17.883  0.00  0.00    +0.000 C 
BRANCH  25  26
ATOM     26  C   UNL     1      -2.819   9.713  16.735  0.00  0.00    +0.000 C 
BRANCH  26  28
ATOM     27  C   UNL     1      -3.388  10.213  14.335  0.00  0.00    +0.000 C 
ATOM     28  C   UNL     1      -3.018  10.806  15.683  0.00  0.00    +0.000 C 
ENDBRANCH  26  28
ENDBRANCH  25  26
ENDBRANCH  23  25
ENDBRANCH  22  24
ENDBRANCH  20  22
ENDBRANCH  19  21
ENDBRANCH  17  19
ENDBRANCH  16  18
ENDBRANCH   1  16
TORSDOF 19
ENDMDL
