MODEL 1
REMARK VINA RESULT:      -7.3      0.000      0.000
REMARK  Name = 
REMARK  5 active torsions:
REMARK  status: ('A' for Active; 'I' for Inactive)
REMARK    1  A    between atoms: C_5  and  N_6
REMARK    2  A    between atoms: C_7  and  C_8
REMARK    3  A    between atoms: C_8  and  N_9
REMARK    4  A    between atoms: C_8  and  C_19
REMARK    5  A    between atoms: N_9  and  C_10
REMARK                            x       y       z     vdW  Elec       q    Type
REMARK                         _______ _______ _______ _____ _____    ______ ____
ROOT
ATOM      1  N   UNL     1      -3.110  13.068  20.625  0.00  0.00    +0.000 N 
ATOM      2  C   UNL     1      -2.619  12.311  19.558  0.00  0.00    +0.000 A 
ATOM      3  N   UNL     1      -3.421  11.764  18.684  0.00  0.00    +0.000 NA
ATOM      4  C   UNL     1      -4.795  12.054  18.723  0.00  0.00    +0.000 A 
ATOM      5  C   UNL     1      -5.587  11.666  17.637  0.00  0.00    +0.000 A 
ATOM      6  C   UNL     1      -6.935  12.024  17.575  0.00  0.00    +0.000 A 
ATOM      7  C   UNL     1      -7.505  12.778  18.594  0.00  0.00    +0.000 A 
ATOM      8  C   UNL     1      -6.732  13.173  19.687  0.00  0.00    +0.000 A 
ATOM      9 CL   UNL     1      -7.533  14.171  20.852  0.00  0.00    +0.000 Cl
ATOM     10  C   UNL     1      -5.377  12.803  19.748  0.00  0.00    +0.000 A 
ATOM     11  C   UNL     1      -4.489  13.172  20.849  0.00  0.00    +0.000 A 
ATOM     12  O   UNL     1      -4.990  13.494  21.924  0.00  0.00    +0.000 OA
ENDROOT
BRANCH   1  17
ATOM     13  N   UNL     1      -1.288  15.343  25.250  0.00  0.00    +0.000 N 
ATOM     14  C   UNL     1      -1.456  14.701  24.030  0.00  0.00    +0.000 A 
ATOM     15  C   UNL     1      -1.675  13.324  23.924  0.00  0.00    +0.000 A 
ATOM     16  N   UNL     1      -2.070  12.701  22.774  0.00  0.00    +0.000 NA
ATOM     17  C   UNL     1      -2.318  13.519  21.731  0.00  0.00    +0.000 A 
ATOM     18  C   UNL     1      -2.002  14.884  21.831  0.00  0.00    +0.000 A 
ATOM     19  N   UNL     1      -1.552  15.494  22.952  0.00  0.00    +0.000 NA
ATOM     20  H   UNL     1      -0.606  14.924  25.866  0.00  0.00    +0.000 HD
ATOM     21  H   UNL     1      -1.122  16.330  25.067  0.00  0.00    +0.000 HD
ENDBRANCH   1  17
BRANCH   2  22
ATOM     22  C   UNL     1      -1.071  12.225  19.317  0.00  0.00    +0.000 C 
BRANCH  22  23
ATOM     23  C   UNL     1      -0.444  13.238  18.356  0.00  0.00    +0.000 C 
ATOM     24  C   UNL     1      -0.019  14.689  18.670  0.00  0.00    +0.000 C 
ATOM     25  C   UNL     1       0.984  13.564  18.377  0.00  0.00    +0.000 C 
ENDBRANCH  22  23
BRANCH  22  26
ATOM     26  N   UNL     1      -0.682  10.865  18.908  0.00  0.00    +0.000 N 
ATOM     27  H   UNL     1      -0.183  10.805  18.028  0.00  0.00    +0.000 HD
BRANCH  26  28
ATOM     28  C   UNL     1      -0.044  10.116  19.919  0.00  0.00    +0.000 A 
ATOM     29  N   UNL     1      -0.513  10.219  21.180  0.00  0.00    +0.000 NA
ATOM     30  C   UNL     1      -0.012   9.401  22.104  0.00  0.00    +0.000 A 
ATOM     31  N   UNL     1      -0.409   9.607  23.409  0.00  0.00    +0.000 N 
ATOM     32  N   UNL     1       0.893   8.452  21.873  0.00  0.00    +0.000 NA
ATOM     33  C   UNL     1       1.387   8.385  20.627  0.00  0.00    +0.000 A 
ATOM     34  N   UNL     1       2.212   7.282  20.388  0.00  0.00    +0.000 N 
ATOM     35  C   UNL     1       1.013   9.269  19.620  0.00  0.00    +0.000 A 
ATOM     36 CL   UNL     1       1.795   9.263  18.082  0.00  0.00    +0.000 Cl
ATOM     37  H   UNL     1      -0.674  10.576  23.523  0.00  0.00    +0.000 HD
ATOM     38  H   UNL     1       0.305   9.257  24.034  0.00  0.00    +0.000 HD
ATOM     39  H   UNL     1       2.397   6.805  21.264  0.00  0.00    +0.000 HD
ATOM     40  H   UNL     1       3.042   7.509  19.852  0.00  0.00    +0.000 HD
ENDBRANCH  26  28
ENDBRANCH  22  26
ENDBRANCH   2  22
TORSDOF 5
ENDMDL
MODEL 2
REMARK VINA RESULT:      -7.2      2.924      6.407
REMARK  Name = 
REMARK  5 active torsions:
REMARK  status: ('A' for Active; 'I' for Inactive)
REMARK    1  A    between atoms: C_5  and  N_6
REMARK    2  A    between atoms: C_7  and  C_8
REMARK    3  A    between atoms: C_8  and  N_9
REMARK    4  A    between atoms: C_8  and  C_19
REMARK    5  A    between atoms: N_9  and  C_10
REMARK                            x       y       z     vdW  Elec       q    Type
REMARK                         _______ _______ _______ _____ _____    ______ ____
ROOT
ATOM      1  N   UNL     1       0.227  13.320  20.629  0.00  0.00    +0.000 N 
ATOM      2  C   UNL     1      -0.792  13.554  19.702  0.00  0.00    +0.000 A 
ATOM      3  N   UNL     1      -0.903  14.699  19.084  0.00  0.00    +0.000 NA
ATOM      4  C   UNL     1       0.099  15.671  19.236  0.00  0.00    +0.000 A 
ATOM      5  C   UNL     1       0.090  16.775  18.377  0.00  0.00    +0.000 A 
ATOM      6  C   UNL     1       1.122  17.714  18.413  0.00  0.00    +0.000 A 
ATOM      7  C   UNL     1       2.178  17.559  19.304  0.00  0.00    +0.000 A 
ATOM      8  C   UNL     1       2.204  16.466  20.171  0.00  0.00    +0.000 A 
ATOM      9 CL   UNL     1       3.605  16.340  21.179  0.00  0.00    +0.000 Cl
ATOM     10  C   UNL     1       1.158  15.527  20.135  0.00  0.00    +0.000 A 
ATOM     11  C   UNL     1       1.100  14.350  21.002  0.00  0.00    +0.000 A 
ATOM     12  O   UNL     1       1.767  14.349  22.034  0.00  0.00    +0.000 OA
ENDROOT
BRANCH   1  17
ATOM     13  N   UNL     1      -0.641   8.576  23.202  0.00  0.00    +0.000 N 
ATOM     14  C   UNL     1      -0.207   9.820  22.764  0.00  0.00    +0.000 A 
ATOM     15  C   UNL     1       0.830   9.977  21.840  0.00  0.00    +0.000 A 
ATOM     16  N   UNL     1       1.125  11.157  21.218  0.00  0.00    +0.000 NA
ATOM     17  C   UNL     1       0.291  12.179  21.493  0.00  0.00    +0.000 A 
ATOM     18  C   UNL     1      -0.685  12.026  22.493  0.00  0.00    +0.000 A 
ATOM     19  N   UNL     1      -0.940  10.873  23.154  0.00  0.00    +0.000 NA
ATOM     20  H   UNL     1       0.089   7.956  23.525  0.00  0.00    +0.000 HD
ATOM     21  H   UNL     1      -1.383   8.722  23.882  0.00  0.00    +0.000 HD
ENDBRANCH   1  17
BRANCH   2  22
ATOM     22  C   UNL     1      -1.746  12.378  19.287  0.00  0.00    +0.000 C 
BRANCH  22  23
ATOM     23  C   UNL     1      -1.276  11.444  18.169  0.00  0.00    +0.000 C 
ATOM     24  C   UNL     1      -0.526  10.103  18.320  0.00  0.00    +0.000 C 
ATOM     25  C   UNL     1      -1.978  10.204  17.832  0.00  0.00    +0.000 C 
ENDBRANCH  22  23
BRANCH  22  26
ATOM     26  N   UNL     1      -3.088  12.887  18.962  0.00  0.00    +0.000 N 
ATOM     27  H   UNL     1      -3.380  12.751  18.001  0.00  0.00    +0.000 HD
BRANCH  26  28
ATOM     28  C   UNL     1      -4.093  12.492  19.870  0.00  0.00    +0.000 A 
ATOM     29  N   UNL     1      -3.900  12.744  21.182  0.00  0.00    +0.000 NA
ATOM     30  C   UNL     1      -4.909  12.511  22.019  0.00  0.00    +0.000 A 
ATOM     31  N   UNL     1      -4.653  12.652  23.368  0.00  0.00    +0.000 N 
ATOM     32  N   UNL     1      -6.118  12.085  21.659  0.00  0.00    +0.000 NA
ATOM     33  C   UNL     1      -6.288  11.795  20.360  0.00  0.00    +0.000 A 
ATOM     34  N   UNL     1      -7.607  11.503  19.998  0.00  0.00    +0.000 N 
ATOM     35  C   UNL     1      -5.263  11.894  19.425  0.00  0.00    +0.000 A 
ATOM     36 CL   UNL     1      -5.470  11.348  17.801  0.00  0.00    +0.000 Cl
ATOM     37  H   UNL     1      -3.667  12.499  23.533  0.00  0.00    +0.000 HD
ATOM     38  H   UNL     1      -5.294  12.073  23.892  0.00  0.00    +0.000 HD
ATOM     39  H   UNL     1      -8.176  11.429  20.835  0.00  0.00    +0.000 HD
ATOM     40  H   UNL     1      -7.685  10.714  19.367  0.00  0.00    +0.000 HD
ENDBRANCH  26  28
ENDBRANCH  22  26
ENDBRANCH   2  22
TORSDOF 5
ENDMDL
MODEL 3
REMARK VINA RESULT:      -7.2      2.640      6.877
REMARK  Name = 
REMARK  5 active torsions:
REMARK  status: ('A' for Active; 'I' for Inactive)
REMARK    1  A    between atoms: C_5  and  N_6
REMARK    2  A    between atoms: C_7  and  C_8
REMARK    3  A    between atoms: C_8  and  N_9
REMARK    4  A    between atoms: C_8  and  C_19
REMARK    5  A    between atoms: N_9  and  C_10
REMARK                            x       y       z     vdW  Elec       q    Type
REMARK                         _______ _______ _______ _____ _____    ______ ____
ROOT
ATOM      1  N   UNL     1       0.053  12.434  19.975  0.00  0.00    +0.000 N 
ATOM      2  C   UNL     1      -1.153  13.093  19.726  0.00  0.00    +0.000 A 
ATOM      3  N   UNL     1      -1.219  14.396  19.669  0.00  0.00    +0.000 NA
ATOM      4  C   UNL     1      -0.039  15.155  19.712  0.00  0.00    +0.000 A 
ATOM      5  C   UNL     1      -0.111  16.516  19.397  0.00  0.00    +0.000 A 
ATOM      6  C   UNL     1       1.046  17.293  19.320  0.00  0.00    +0.000 A 
ATOM      7  C   UNL     1       2.290  16.716  19.552  0.00  0.00    +0.000 A 
ATOM      8  C   UNL     1       2.383  15.361  19.871  0.00  0.00    +0.000 A 
ATOM      9 CL   UNL     1       3.989  14.743  20.062  0.00  0.00    +0.000 Cl
ATOM     10  C   UNL     1       1.213  14.587  19.955  0.00  0.00    +0.000 A 
ATOM     11  C   UNL     1       1.211  13.160  20.279  0.00  0.00    +0.000 A 
ATOM     12  O   UNL     1       2.192  12.688  20.849  0.00  0.00    +0.000 OA
ENDROOT
BRANCH   1  17
ATOM     13  N   UNL     1       1.831   7.412  21.199  0.00  0.00    +0.000 N 
ATOM     14  C   UNL     1       1.113   8.544  20.841  0.00  0.00    +0.000 A 
ATOM     15  C   UNL     1       0.422   9.327  21.770  0.00  0.00    +0.000 A 
ATOM     16  N   UNL     1      -0.095  10.561  21.494  0.00  0.00    +0.000 NA
ATOM     17  C   UNL     1       0.168  11.034  20.258  0.00  0.00    +0.000 A 
ATOM     18  C   UNL     1       0.781  10.195  19.313  0.00  0.00    +0.000 A 
ATOM     19  N   UNL     1       1.241   8.948  19.568  0.00  0.00    +0.000 NA
ATOM     20  H   UNL     1       1.328   6.749  21.773  0.00  0.00    +0.000 HD
ATOM     21  H   UNL     1       2.222   7.005  20.352  0.00  0.00    +0.000 HD
ENDBRANCH   1  17
BRANCH   2  22
ATOM     22  C   UNL     1      -2.434  12.258  19.370  0.00  0.00    +0.000 C 
BRANCH  22  23
ATOM     23  C   UNL     1      -2.468  11.556  18.010  0.00  0.00    +0.000 C 
ATOM     24  C   UNL     1      -2.544  10.037  17.740  0.00  0.00    +0.000 C 
ATOM     25  C   UNL     1      -3.699  11.003  17.440  0.00  0.00    +0.000 C 
ENDBRANCH  22  23
BRANCH  22  26
ATOM     26  N   UNL     1      -3.649  13.075  19.524  0.00  0.00    +0.000 N 
ATOM     27  H   UNL     1      -4.221  13.159  18.692  0.00  0.00    +0.000 HD
BRANCH  26  28
ATOM     28  C   UNL     1      -4.424  12.751  20.657  0.00  0.00    +0.000 A 
ATOM     29  N   UNL     1      -3.804  12.675  21.853  0.00  0.00    +0.000 NA
ATOM     30  C   UNL     1      -4.557  12.520  22.940  0.00  0.00    +0.000 A 
ATOM     31  N   UNL     1      -3.900  12.317  24.137  0.00  0.00    +0.000 N 
ATOM     32  N   UNL     1      -5.888  12.476  22.948  0.00  0.00    +0.000 NA
ATOM     33  C   UNL     1      -6.495  12.507  21.752  0.00  0.00    +0.000 A 
ATOM     34  N   UNL     1      -7.888  12.617  21.810  0.00  0.00    +0.000 N 
ATOM     35  C   UNL     1      -5.793  12.552  20.551  0.00  0.00    +0.000 A 
ATOM     36 CL   UNL     1      -6.600  12.415  19.032  0.00  0.00    +0.000 Cl
ATOM     37  H   UNL     1      -2.996  11.904  23.950  0.00  0.00    +0.000 HD
ATOM     38  H   UNL     1      -4.506  11.811  24.768  0.00  0.00    +0.000 HD
ATOM     39  H   UNL     1      -8.193  12.509  22.772  0.00  0.00    +0.000 HD
ATOM     40  H   UNL     1      -8.366  12.016  21.149  0.00  0.00    +0.000 HD
ENDBRANCH  26  28
ENDBRANCH  22  26
ENDBRANCH   2  22
TORSDOF 5
ENDMDL
MODEL 4
REMARK VINA RESULT:      -7.0      2.853      6.687
REMARK  Name = 
REMARK  5 active torsions:
REMARK  status: ('A' for Active; 'I' for Inactive)
REMARK    1  A    between atoms: C_5  and  N_6
REMARK    2  A    between atoms: C_7  and  C_8
REMARK    3  A    between atoms: C_8  and  N_9
REMARK    4  A    between atoms: C_8  and  C_19
REMARK    5  A    between atoms: N_9  and  C_10
REMARK                            x       y       z     vdW  Elec       q    Type
REMARK                         _______ _______ _______ _____ _____    ______ ____
ROOT
ATOM      1  N   UNL     1       0.781  13.040  19.174  0.00  0.00    +0.000 N 
ATOM      2  C   UNL     1      -0.529  13.521  19.114  0.00  0.00    +0.000 A 
ATOM      3  N   UNL     1      -0.783  14.782  18.886  0.00  0.00    +0.000 NA
ATOM      4  C   UNL     1       0.266  15.653  18.548  0.00  0.00    +0.000 A 
ATOM      5  C   UNL     1      -0.056  16.925  18.064  0.00  0.00    +0.000 A 
ATOM      6  C   UNL     1       0.942  17.790  17.614  0.00  0.00    +0.000 A 
ATOM      7  C   UNL     1       2.275  17.391  17.637  0.00  0.00    +0.000 A 
ATOM      8  C   UNL     1       2.616  16.127  18.118  0.00  0.00    +0.000 A 
ATOM      9 CL   UNL     1       4.295  15.717  18.025  0.00  0.00    +0.000 Cl
ATOM     10  C   UNL     1       1.607  15.263  18.578  0.00  0.00    +0.000 A 
ATOM     11  C   UNL     1       1.867  13.921  19.097  0.00  0.00    +0.000 A 
ATOM     12  O   UNL     1       3.000  13.654  19.490  0.00  0.00    +0.000 OA
ENDROOT
BRANCH   1  17
ATOM     13  N   UNL     1       0.808   7.946  21.157  0.00  0.00    +0.000 N 
ATOM     14  C   UNL     1       1.105   9.203  20.650  0.00  0.00    +0.000 A 
ATOM     15  C   UNL     1       1.216   9.461  19.281  0.00  0.00    +0.000 A 
ATOM     16  N   UNL     1       1.276  10.715  18.742  0.00  0.00    +0.000 NA
ATOM     17  C   UNL     1       1.143  11.728  19.623  0.00  0.00    +0.000 A 
ATOM     18  C   UNL     1       1.127  11.450  21.000  0.00  0.00    +0.000 A 
ATOM     19  N   UNL     1       1.128  10.209  21.538  0.00  0.00    +0.000 NA
ATOM     20  H   UNL     1       1.379   7.193  20.797  0.00  0.00    +0.000 HD
ATOM     21  H   UNL     1       0.805   8.006  22.172  0.00  0.00    +0.000 HD
ENDBRANCH   1  17
BRANCH   2  22
ATOM     22  C   UNL     1      -1.729  12.512  19.184  0.00  0.00    +0.000 C 
BRANCH  22  23
ATOM     23  C   UNL     1      -2.200  11.875  17.874  0.00  0.00    +0.000 C 
ATOM     24  C   UNL     1      -2.102  10.389  17.465  0.00  0.00    +0.000 C 
ATOM     25  C   UNL     1      -3.432  11.090  17.778  0.00  0.00    +0.000 C 
ENDBRANCH  22  23
BRANCH  22  26
ATOM     26  N   UNL     1      -2.882  13.120  19.869  0.00  0.00    +0.000 N 
ATOM     27  H   UNL     1      -3.748  13.116  19.343  0.00  0.00    +0.000 HD
BRANCH  26  28
ATOM     28  C   UNL     1      -3.076  12.666  21.190  0.00  0.00    +0.000 A 
ATOM     29  N   UNL     1      -2.150  11.842  21.724  0.00  0.00    +0.000 NA
ATOM     30  C   UNL     1      -2.253  11.537  23.016  0.00  0.00    +0.000 A 
ATOM     31  N   UNL     1      -1.374  10.594  23.512  0.00  0.00    +0.000 N 
ATOM     32  N   UNL     1      -3.180  12.016  23.842  0.00  0.00    +0.000 NA
ATOM     33  C   UNL     1      -4.123  12.798  23.296  0.00  0.00    +0.000 A 
ATOM     34  N   UNL     1      -4.981  13.405  24.218  0.00  0.00    +0.000 N 
ATOM     35  C   UNL     1      -4.169  13.084  21.935  0.00  0.00    +0.000 A 
ATOM     36 CL   UNL     1      -5.492  13.949  21.242  0.00  0.00    +0.000 Cl
ATOM     37  H   UNL     1      -1.081   9.989  22.756  0.00  0.00    +0.000 HD
ATOM     38  H   UNL     1      -1.787  10.145  24.317  0.00  0.00    +0.000 HD
ATOM     39  H   UNL     1      -4.809  13.018  25.141  0.00  0.00    +0.000 HD
ATOM     40  H   UNL     1      -5.953  13.391  23.933  0.00  0.00    +0.000 HD
ENDBRANCH  26  28
ENDBRANCH  22  26
ENDBRANCH   2  22
TORSDOF 5
ENDMDL
MODEL 5
REMARK VINA RESULT:      -6.9      2.804      4.548
REMARK  Name = 
REMARK  5 active torsions:
REMARK  status: ('A' for Active; 'I' for Inactive)
REMARK    1  A    between atoms: C_5  and  N_6
REMARK    2  A    between atoms: C_7  and  C_8
REMARK    3  A    between atoms: C_8  and  N_9
REMARK    4  A    between atoms: C_8  and  C_19
REMARK    5  A    between atoms: N_9  and  C_10
REMARK                            x       y       z     vdW  Elec       q    Type
REMARK                         _______ _______ _______ _____ _____    ______ ____
ROOT
ATOM      1  N   UNL     1      -2.388  12.079  20.314  0.00  0.00    +0.000 N 
ATOM      2  C   UNL     1      -1.302  11.229  20.091  0.00  0.00    +0.000 A 
ATOM      3  N   UNL     1      -1.252  10.445  19.048  0.00  0.00    +0.000 NA
ATOM      4  C   UNL     1      -2.232  10.553  18.048  0.00  0.00    +0.000 A 
ATOM      5  C   UNL     1      -2.020   9.891  16.834  0.00  0.00    +0.000 A 
ATOM      6  C   UNL     1      -2.908  10.052  15.770  0.00  0.00    +0.000 A 
ATOM      7  C   UNL     1      -4.016  10.881  15.904  0.00  0.00    +0.000 A 
ATOM      8  C   UNL     1      -4.247  11.548  17.108  0.00  0.00    +0.000 A 
ATOM      9 CL   UNL     1      -5.614  12.610  17.128  0.00  0.00    +0.000 Cl
ATOM     10  C   UNL     1      -3.353  11.376  18.179  0.00  0.00    +0.000 A 
ATOM     11  C   UNL     1      -3.510  12.035  19.475  0.00  0.00    +0.000 A 
ATOM     12  O   UNL     1      -4.620  12.460  19.786  0.00  0.00    +0.000 OA
ENDROOT
BRANCH   1  17
ATOM     13  N   UNL     1      -4.507  15.028  24.400  0.00  0.00    +0.000 N 
ATOM     14  C   UNL     1      -3.710  14.307  23.521  0.00  0.00    +0.000 A 
ATOM     15  C   UNL     1      -3.518  12.926  23.632  0.00  0.00    +0.000 A 
ATOM     16  N   UNL     1      -2.937  12.157  22.665  0.00  0.00    +0.000 NA
ATOM     17  C   UNL     1      -2.614  12.806  21.528  0.00  0.00    +0.000 A 
ATOM     18  C   UNL     1      -2.728  14.205  21.473  0.00  0.00    +0.000 A 
ATOM     19  N   UNL     1      -3.248  14.977  22.455  0.00  0.00    +0.000 NA
ATOM     20  H   UNL     1      -4.317  14.871  25.380  0.00  0.00    +0.000 HD
ATOM     21  H   UNL     1      -4.471  16.007  24.128  0.00  0.00    +0.000 HD
ENDBRANCH   1  17
BRANCH   2  22
ATOM     22  C   UNL     1      -0.050  11.310  21.034  0.00  0.00    +0.000 C 
BRANCH  22  23
ATOM     23  C   UNL     1      -0.055  10.445  22.297  0.00  0.00    +0.000 C 
ATOM     24  C   UNL     1      -0.534   8.983  22.431  0.00  0.00    +0.000 C 
ATOM     25  C   UNL     1       0.940   9.398  22.539  0.00  0.00    +0.000 C 
ENDBRANCH  22  23
BRANCH  22  26
ATOM     26  N   UNL     1       0.235  12.706  21.404  0.00  0.00    +0.000 N 
ATOM     27  H   UNL     1       0.570  12.842  22.351  0.00  0.00    +0.000 HD
BRANCH  26  28
ATOM     28  C   UNL     1       1.025  13.404  20.468  0.00  0.00    +0.000 A 
ATOM     29  N   UNL     1       1.561  12.710  19.443  0.00  0.00    +0.000 NA
ATOM     30  C   UNL     1       2.179  13.390  18.479  0.00  0.00    +0.000 A 
ATOM     31  N   UNL     1       2.829  12.657  17.508  0.00  0.00    +0.000 N 
ATOM     32  N   UNL     1       2.276  14.717  18.424  0.00  0.00    +0.000 NA
ATOM     33  C   UNL     1       1.781  15.398  19.469  0.00  0.00    +0.000 A 
ATOM     34  N   UNL     1       1.762  16.786  19.301  0.00  0.00    +0.000 N 
ATOM     35  C   UNL     1       1.220  14.773  20.578  0.00  0.00    +0.000 A 
ATOM     36 CL   UNL     1       0.753  15.671  21.976  0.00  0.00    +0.000 Cl
ATOM     37  H   UNL     1       3.091  11.759  17.894  0.00  0.00    +0.000 HD
ATOM     38  H   UNL     1       3.573  13.214  17.112  0.00  0.00    +0.000 HD
ATOM     39  H   UNL     1       2.267  17.029  18.455  0.00  0.00    +0.000 HD
ATOM     40  H   UNL     1       2.058  17.295  20.126  0.00  0.00    +0.000 HD
ENDBRANCH  26  28
ENDBRANCH  22  26
ENDBRANCH   2  22
TORSDOF 5
ENDMDL
MODEL 6
REMARK VINA RESULT:      -6.9      2.776      6.846
REMARK  Name = 
REMARK  5 active torsions:
REMARK  status: ('A' for Active; 'I' for Inactive)
REMARK    1  A    between atoms: C_5  and  N_6
REMARK    2  A    between atoms: C_7  and  C_8
REMARK    3  A    between atoms: C_8  and  N_9
REMARK    4  A    between atoms: C_8  and  C_19
REMARK    5  A    between atoms: N_9  and  C_10
REMARK                            x       y       z     vdW  Elec       q    Type
REMARK                         _______ _______ _______ _____ _____    ______ ____
ROOT
ATOM      1  N   UNL     1      -0.228  12.379  20.136  0.00  0.00    +0.000 N 
ATOM      2  C   UNL     1      -1.453  12.983  19.842  0.00  0.00    +0.000 A 
ATOM      3  N   UNL     1      -1.591  14.282  19.843  0.00  0.00    +0.000 NA
ATOM      4  C   UNL     1      -0.461  15.101  19.998  0.00  0.00    +0.000 A 
ATOM      5  C   UNL     1      -0.593  16.471  19.743  0.00  0.00    +0.000 A 
ATOM      6  C   UNL     1       0.520  17.312  19.777  0.00  0.00    +0.000 A 
ATOM      7  C   UNL     1       1.779  16.794  20.060  0.00  0.00    +0.000 A 
ATOM      8  C   UNL     1       1.931  15.432  20.320  0.00  0.00    +0.000 A 
ATOM      9 CL   UNL     1       3.555  14.894  20.583  0.00  0.00    +0.000 Cl
ATOM     10  C   UNL     1       0.805  14.590  20.292  0.00  0.00    +0.000 A 
ATOM     11  C   UNL     1       0.866  13.151  20.547  0.00  0.00    +0.000 A 
ATOM     12  O   UNL     1       1.836  12.705  21.155  0.00  0.00    +0.000 OA
ENDROOT
BRANCH   1  17
ATOM     13  N   UNL     1       1.752   7.411  21.271  0.00  0.00    +0.000 N 
ATOM     14  C   UNL     1       0.998   8.518  20.904  0.00  0.00    +0.000 A 
ATOM     15  C   UNL     1       0.176   9.206  21.801  0.00  0.00    +0.000 A 
ATOM     16  N   UNL     1      -0.392  10.420  21.539  0.00  0.00    +0.000 NA
ATOM     17  C   UNL     1      -0.049  10.975  20.359  0.00  0.00    +0.000 A 
ATOM     18  C   UNL     1       0.700  10.228  19.435  0.00  0.00    +0.000 A 
ATOM     19  N   UNL     1       1.214   8.998  19.670  0.00  0.00    +0.000 NA
ATOM     20  H   UNL     1       1.243   6.689  21.762  0.00  0.00    +0.000 HD
ATOM     21  H   UNL     1       2.243   7.076  20.446  0.00  0.00    +0.000 HD
ENDBRANCH   1  17
BRANCH   2  22
ATOM     22  C   UNL     1      -2.658  12.097  19.366  0.00  0.00    +0.000 C 
BRANCH  22  23
ATOM     23  C   UNL     1      -2.459  11.240  18.113  0.00  0.00    +0.000 C 
ATOM     24  C   UNL     1      -3.164   9.911  17.765  0.00  0.00    +0.000 C 
ATOM     25  C   UNL     1      -3.422  11.223  17.010  0.00  0.00    +0.000 C 
ENDBRANCH  22  23
BRANCH  22  26
ATOM     26  N   UNL     1      -3.873  12.914  19.207  0.00  0.00    +0.000 N 
ATOM     27  H   UNL     1      -4.178  13.051  18.250  0.00  0.00    +0.000 HD
BRANCH  26  28
ATOM     28  C   UNL     1      -4.942  12.531  20.043  0.00  0.00    +0.000 A 
ATOM     29  N   UNL     1      -5.836  11.639  19.567  0.00  0.00    +0.000 NA
ATOM     30  C   UNL     1      -6.755  11.164  20.405  0.00  0.00    +0.000 A 
ATOM     31  N   UNL     1      -7.735  10.353  19.871  0.00  0.00    +0.000 N 
ATOM     32  N   UNL     1      -6.839  11.469  21.698  0.00  0.00    +0.000 NA
ATOM     33  C   UNL     1      -5.976  12.390  22.154  0.00  0.00    +0.000 A 
ATOM     34  N   UNL     1      -5.993  12.566  23.541  0.00  0.00    +0.000 N 
ATOM     35  C   UNL     1      -5.053  13.030  21.333  0.00  0.00    +0.000 A 
ATOM     36 CL   UNL     1      -4.081  14.330  21.915  0.00  0.00    +0.000 Cl
ATOM     37  H   UNL     1      -7.852  10.580  18.892  0.00  0.00    +0.000 HD
ATOM     38  H   UNL     1      -8.563  10.405  20.449  0.00  0.00    +0.000 HD
ATOM     39  H   UNL     1      -6.772  12.049  23.935  0.00  0.00    +0.000 HD
ATOM     40  H   UNL     1      -5.949  13.538  23.824  0.00  0.00    +0.000 HD
ENDBRANCH  26  28
ENDBRANCH  22  26
ENDBRANCH   2  22
TORSDOF 5
ENDMDL
MODEL 7
REMARK VINA RESULT:      -6.9      3.020      6.565
REMARK  Name = 
REMARK  5 active torsions:
REMARK  status: ('A' for Active; 'I' for Inactive)
REMARK    1  A    between atoms: C_5  and  N_6
REMARK    2  A    between atoms: C_7  and  C_8
REMARK    3  A    between atoms: C_8  and  N_9
REMARK    4  A    between atoms: C_8  and  C_19
REMARK    5  A    between atoms: N_9  and  C_10
REMARK                            x       y       z     vdW  Elec       q    Type
REMARK                         _______ _______ _______ _____ _____    ______ ____
ROOT
ATOM      1  N   UNL     1       0.994  12.951  20.881  0.00  0.00    +0.000 N 
ATOM      2  C   UNL     1       0.858  12.525  19.558  0.00  0.00    +0.000 A 
ATOM      3  N   UNL     1       1.646  12.967  18.614  0.00  0.00    +0.000 NA
ATOM      4  C   UNL     1       2.746  13.774  18.948  0.00  0.00    +0.000 A 
ATOM      5  C   UNL     1       3.711  14.022  17.966  0.00  0.00    +0.000 A 
ATOM      6  C   UNL     1       4.875  14.727  18.273  0.00  0.00    +0.000 A 
ATOM      7  C   UNL     1       5.093  15.187  19.567  0.00  0.00    +0.000 A 
ATOM      8  C   UNL     1       4.141  14.952  20.560  0.00  0.00    +0.000 A 
ATOM      9 CL   UNL     1       4.558  15.506  22.146  0.00  0.00    +0.000 Cl
ATOM     10  C   UNL     1       2.966  14.248  20.242  0.00  0.00    +0.000 A 
ATOM     11  C   UNL     1       1.915  13.952  21.215  0.00  0.00    +0.000 A 
ATOM     12  O   UNL     1       1.858  14.628  22.240  0.00  0.00    +0.000 OA
ENDROOT
BRANCH   1  17
ATOM     13  N   UNL     1      -3.479  11.742  23.782  0.00  0.00    +0.000 N 
ATOM     14  C   UNL     1      -2.220  12.102  23.320  0.00  0.00    +0.000 A 
ATOM     15  C   UNL     1      -1.187  11.178  23.140  0.00  0.00    +0.000 A 
ATOM     16  N   UNL     1      -0.025  11.451  22.477  0.00  0.00    +0.000 NA
ATOM     17  C   UNL     1       0.047  12.678  21.921  0.00  0.00    +0.000 A 
ATOM     18  C   UNL     1      -0.958  13.621  22.193  0.00  0.00    +0.000 A 
ATOM     19  N   UNL     1      -2.083  13.369  22.902  0.00  0.00    +0.000 NA
ATOM     20  H   UNL     1      -3.483  11.182  24.623  0.00  0.00    +0.000 HD
ATOM     21  H   UNL     1      -4.043  12.586  23.850  0.00  0.00    +0.000 HD
ENDBRANCH   1  17
BRANCH   2  22
ATOM     22  C   UNL     1      -0.169  11.390  19.211  0.00  0.00    +0.000 C 
BRANCH  22  23
ATOM     23  C   UNL     1       0.378   9.973  19.014  0.00  0.00    +0.000 C 
ATOM     24  C   UNL     1       0.758   9.292  17.681  0.00  0.00    +0.000 C 
ATOM     25  C   UNL     1       1.791   9.706  18.739  0.00  0.00    +0.000 C 
ENDBRANCH  22  23
BRANCH  22  26
ATOM     26  N   UNL     1      -0.982  11.762  18.042  0.00  0.00    +0.000 N 
ATOM     27  H   UNL     1      -0.763  11.264  17.187  0.00  0.00    +0.000 HD
BRANCH  26  28
ATOM     28  C   UNL     1      -2.371  11.787  18.286  0.00  0.00    +0.000 A 
ATOM     29  N   UNL     1      -2.804  12.312  19.451  0.00  0.00    +0.000 NA
ATOM     30  C   UNL     1      -4.115  12.474  19.617  0.00  0.00    +0.000 A 
ATOM     31  N   UNL     1      -4.545  12.891  20.860  0.00  0.00    +0.000 N 
ATOM     32  N   UNL     1      -5.040  12.197  18.701  0.00  0.00    +0.000 NA
ATOM     33  C   UNL     1      -4.607  11.634  17.563  0.00  0.00    +0.000 A 
ATOM     34  N   UNL     1      -5.584  11.504  16.570  0.00  0.00    +0.000 N 
ATOM     35  C   UNL     1      -3.270  11.318  17.340  0.00  0.00    +0.000 A 
ATOM     36 CL   UNL     1      -2.776  10.439  15.940  0.00  0.00    +0.000 Cl
ATOM     37  H   UNL     1      -3.866  12.609  21.555  0.00  0.00    +0.000 HD
ATOM     38  H   UNL     1      -5.496  12.581  21.005  0.00  0.00    +0.000 HD
ATOM     39  H   UNL     1      -6.491  11.740  16.960  0.00  0.00    +0.000 HD
ATOM     40  H   UNL     1      -5.552  10.613  16.090  0.00  0.00    +0.000 HD
ENDBRANCH  26  28
ENDBRANCH  22  26
ENDBRANCH   2  22
TORSDOF 5
ENDMDL
MODEL 8
REMARK VINA RESULT:      -6.8      2.873      4.249
REMARK  Name = 
REMARK  5 active torsions:
REMARK  status: ('A' for Active; 'I' for Inactive)
REMARK    1  A    between atoms: C_5  and  N_6
REMARK    2  A    between atoms: C_7  and  C_8
REMARK    3  A    between atoms: C_8  and  N_9
REMARK    4  A    between atoms: C_8  and  C_19
REMARK    5  A    between atoms: N_9  and  C_10
REMARK                            x       y       z     vdW  Elec       q    Type
REMARK                         _______ _______ _______ _____ _____    ______ ____
ROOT
ATOM      1  N   UNL     1      -2.507  12.270  20.227  0.00  0.00    +0.000 N 
ATOM      2  C   UNL     1      -1.383  11.453  20.092  0.00  0.00    +0.000 A 
ATOM      3  N   UNL     1      -1.267  10.611  19.099  0.00  0.00    +0.000 NA
ATOM      4  C   UNL     1      -2.215  10.621  18.064  0.00  0.00    +0.000 A 
ATOM      5  C   UNL     1      -1.936   9.898  16.899  0.00  0.00    +0.000 A 
ATOM      6  C   UNL     1      -2.792   9.960  15.799  0.00  0.00    +0.000 A 
ATOM      7  C   UNL     1      -3.935  10.751  15.847  0.00  0.00    +0.000 A 
ATOM      8  C   UNL     1      -4.232  11.478  17.001  0.00  0.00    +0.000 A 
ATOM      9 CL   UNL     1      -5.638  12.483  16.913  0.00  0.00    +0.000 Cl
ATOM     10  C   UNL     1      -3.370  11.404  18.108  0.00  0.00    +0.000 A 
ATOM     11  C   UNL     1      -3.597  12.132  19.357  0.00  0.00    +0.000 A 
ATOM     12  O   UNL     1      -4.732  12.529  19.606  0.00  0.00    +0.000 OA
ENDROOT
BRANCH   1  17
ATOM     13  N   UNL     1      -2.420  14.769  25.088  0.00  0.00    +0.000 N 
ATOM     14  C   UNL     1      -2.723  14.253  23.836  0.00  0.00    +0.000 A 
ATOM     15  C   UNL     1      -2.459  14.942  22.649  0.00  0.00    +0.000 A 
ATOM     16  N   UNL     1      -2.528  14.377  21.407  0.00  0.00    +0.000 NA
ATOM     17  C   UNL     1      -2.802  13.057  21.387  0.00  0.00    +0.000 A 
ATOM     18  C   UNL     1      -3.156  12.406  22.581  0.00  0.00    +0.000 A 
ATOM     19  N   UNL     1      -3.146  12.980  23.807  0.00  0.00    +0.000 NA
ATOM     20  H   UNL     1      -2.749  15.710  25.256  0.00  0.00    +0.000 HD
ATOM     21  H   UNL     1      -2.725  14.098  25.789  0.00  0.00    +0.000 HD
ENDBRANCH   1  17
BRANCH   2  22
ATOM     22  C   UNL     1      -0.168  11.639  21.068  0.00  0.00    +0.000 C 
BRANCH  22  23
ATOM     23  C   UNL     1      -0.187  10.856  22.383  0.00  0.00    +0.000 C 
ATOM     24  C   UNL     1      -0.685   9.412  22.608  0.00  0.00    +0.000 C 
ATOM     25  C   UNL     1       0.794   9.815  22.695  0.00  0.00    +0.000 C 
ENDBRANCH  22  23
BRANCH  22  26
ATOM     26  N   UNL     1       0.056  13.065  21.356  0.00  0.00    +0.000 N 
ATOM     27  H   UNL     1      -0.068  13.334  22.325  0.00  0.00    +0.000 HD
BRANCH  26  28
ATOM     28  C   UNL     1       1.253  13.583  20.821  0.00  0.00    +0.000 A 
ATOM     29  N   UNL     1       2.333  13.654  21.627  0.00  0.00    +0.000 NA
ATOM     30  C   UNL     1       3.499  13.999  21.085  0.00  0.00    +0.000 A 
ATOM     31  N   UNL     1       4.561  14.190  21.945  0.00  0.00    +0.000 N 
ATOM     32  N   UNL     1       3.697  14.243  19.792  0.00  0.00    +0.000 NA
ATOM     33  C   UNL     1       2.611  14.214  19.004  0.00  0.00    +0.000 A 
ATOM     34  N   UNL     1       2.883  14.319  17.636  0.00  0.00    +0.000 N 
ATOM     35  C   UNL     1       1.330  13.977  19.493  0.00  0.00    +0.000 A 
ATOM     36 CL   UNL     1      -0.060  14.120  18.482  0.00  0.00    +0.000 Cl
ATOM     37  H   UNL     1       4.205  14.447  22.856  0.00  0.00    +0.000 HD
ATOM     38  H   UNL     1       5.223  14.826  21.522  0.00  0.00    +0.000 HD
ATOM     39  H   UNL     1       3.864  14.541  17.505  0.00  0.00    +0.000 HD
ATOM     40  H   UNL     1       2.245  14.935  17.145  0.00  0.00    +0.000 HD
ENDBRANCH  26  28
ENDBRANCH  22  26
ENDBRANCH   2  22
TORSDOF 5
ENDMDL
MODEL 9
REMARK VINA RESULT:      -6.8      2.685      6.802
REMARK  Name = 
REMARK  5 active torsions:
REMARK  status: ('A' for Active; 'I' for Inactive)
REMARK    1  A    between atoms: C_5  and  N_6
REMARK    2  A    between atoms: C_7  and  C_8
REMARK    3  A    between atoms: C_8  and  N_9
REMARK    4  A    between atoms: C_8  and  C_19
REMARK    5  A    between atoms: N_9  and  C_10
REMARK                            x       y       z     vdW  Elec       q    Type
REMARK                         _______ _______ _______ _____ _____    ______ ____
ROOT
ATOM      1  N   UNL     1       0.343  12.301  19.056  0.00  0.00    +0.000 N 
ATOM      2  C   UNL     1      -0.896  12.945  19.031  0.00  0.00    +0.000 A 
ATOM      3  N   UNL     1      -0.988  14.247  18.965  0.00  0.00    +0.000 NA
ATOM      4  C   UNL     1       0.170  15.017  18.768  0.00  0.00    +0.000 A 
ATOM      5  C   UNL     1       0.022  16.370  18.448  0.00  0.00    +0.000 A 
ATOM      6  C   UNL     1       1.133  17.155  18.137  0.00  0.00    +0.000 A 
ATOM      7  C   UNL     1       2.406  16.594  18.136  0.00  0.00    +0.000 A 
ATOM      8  C   UNL     1       2.575  15.246  18.455  0.00  0.00    +0.000 A 
ATOM      9 CL   UNL     1       4.194  14.646  18.345  0.00  0.00    +0.000 Cl
ATOM     10  C   UNL     1       1.452  14.463  18.775  0.00  0.00    +0.000 A 
ATOM     11  C   UNL     1       1.529  13.043  19.119  0.00  0.00    +0.000 A 
ATOM     12  O   UNL     1       2.607  12.591  19.498  0.00  0.00    +0.000 OA
ENDROOT
BRANCH   1  17
ATOM     13  N   UNL     1       2.384   7.340  20.107  0.00  0.00    +0.000 N 
ATOM     14  C   UNL     1       1.600   8.451  19.826  0.00  0.00    +0.000 A 
ATOM     15  C   UNL     1       1.002   9.227  20.823  0.00  0.00    +0.000 A 
ATOM     16  N   UNL     1       0.424  10.444  20.598  0.00  0.00    +0.000 NA
ATOM     17  C   UNL     1       0.527  10.908  19.336  0.00  0.00    +0.000 A 
ATOM     18  C   UNL     1       1.047  10.074  18.332  0.00  0.00    +0.000 A 
ATOM     19  N   UNL     1       1.566   8.842  18.543  0.00  0.00    +0.000 NA
ATOM     20  H   UNL     1       1.970   6.672  20.742  0.00  0.00    +0.000 HD
ATOM     21  H   UNL     1       2.684   6.933  19.224  0.00  0.00    +0.000 HD
ENDBRANCH   1  17
BRANCH   2  22
ATOM     22  C   UNL     1      -2.211  12.092  18.942  0.00  0.00    +0.000 C 
BRANCH  22  23
ATOM     23  C   UNL     1      -2.683  11.657  17.552  0.00  0.00    +0.000 C 
ATOM     24  C   UNL     1      -2.409  10.310  16.848  0.00  0.00    +0.000 C 
ATOM     25  C   UNL     1      -3.797  10.728  17.354  0.00  0.00    +0.000 C 
ENDBRANCH  22  23
BRANCH  22  26
ATOM     26  N   UNL     1      -3.318  12.766  19.640  0.00  0.00    +0.000 N 
ATOM     27  H   UNL     1      -4.232  12.645  19.218  0.00  0.00    +0.000 HD
BRANCH  26  28
ATOM     28  C   UNL     1      -3.353  12.533  21.031  0.00  0.00    +0.000 A 
ATOM     29  N   UNL     1      -2.309  11.894  21.597  0.00  0.00    +0.000 NA
ATOM     30  C   UNL     1      -2.271  11.809  22.925  0.00  0.00    +0.000 A 
ATOM     31  N   UNL     1      -1.264  11.043  23.478  0.00  0.00    +0.000 N 
ATOM     32  N   UNL     1      -3.167  12.344  23.750  0.00  0.00    +0.000 NA
ATOM     33  C   UNL     1      -4.226  12.939  23.180  0.00  0.00    +0.000 A 
ATOM     34  N   UNL     1      -5.059  13.623  24.072  0.00  0.00    +0.000 N 
ATOM     35  C   UNL     1      -4.416  12.980  21.802  0.00  0.00    +0.000 A 
ATOM     36 CL   UNL     1      -5.872  13.599  21.113  0.00  0.00    +0.000 Cl
ATOM     37  H   UNL     1      -0.977  10.343  22.807  0.00  0.00    +0.000 HD
ATOM     38  H   UNL     1      -1.561  10.707  24.384  0.00  0.00    +0.000 HD
ATOM     39  H   UNL     1      -4.772  13.416  25.023  0.00  0.00    +0.000 HD
ATOM     40  H   UNL     1      -6.045  13.479  23.891  0.00  0.00    +0.000 HD
ENDBRANCH  26  28
ENDBRANCH  22  26
ENDBRANCH   2  22
TORSDOF 5
ENDMDL
