MODEL 1
REMARK VINA RESULT:      -8.7      0.000      0.000
REMARK  Name = 
REMARK  6 active torsions:
REMARK  status: ('A' for Active; 'I' for Inactive)
REMARK    1  A    between atoms: C_2  and  C_3
REMARK    2  A    between atoms: C_3  and  N_4
REMARK    3  A    between atoms: C_5  and  C_7
REMARK    4  A    between atoms: N_13  and  C_14
REMARK    5  A    between atoms: C_19  and  S_20
REMARK    6  A    between atoms: S_20  and  N_23
REMARK                            x       y       z     vdW  Elec       q    Type
REMARK                         _______ _______ _______ _____ _____    ______ ____
ROOT
ATOM      1  C   UNL     1       2.165   6.644  20.026  0.00  0.00    +0.000 A 
ATOM      2  C   UNL     1       1.615   5.734  20.932  0.00  0.00    +0.000 A 
ATOM      3  C   UNL     1       2.043   4.406  20.973  0.00  0.00    +0.000 A 
ATOM      4  C   UNL     1       3.020   3.952  20.095  0.00  0.00    +0.000 A 
ATOM      5  F   UNL     1       3.404   2.675  20.204  0.00  0.00    +0.000 F 
ATOM      6  C   UNL     1       3.554   4.818  19.158  0.00  0.00    +0.000 A 
ATOM      7  C   UNL     1       3.108   6.165  19.103  0.00  0.00    +0.000 A 
ENDROOT
BRANCH   1  10
ATOM      8  O   UNL     1       0.149   7.992  21.672  0.00  0.00    +0.000 OA
ATOM      9  C   UNL     1       0.855   8.593  20.863  0.00  0.00    +0.000 C 
ATOM     10  N   UNL     1       1.814   8.020  20.031  0.00  0.00    +0.000 N 
ATOM     11  H   UNL     1       2.365   8.650  19.454  0.00  0.00    +0.000 HD
BRANCH   9  12
ATOM     12  C   UNL     1       0.671  10.101  20.695  0.00  0.00    +0.000 C 
BRANCH  12  13
ATOM     13  N   UNL     1      -0.456  10.390  19.838  0.00  0.00    +0.000 N 
ATOM     14  C   UNL     1      -0.383  10.228  18.476  0.00  0.00    +0.000 C 
ATOM     15  O   UNL     1       0.649   9.828  17.932  0.00  0.00    +0.000 OA
ATOM     16  H   UNL     1      -1.362  10.592  20.249  0.00  0.00    +0.000 HD
BRANCH  14  17
ATOM     17  C   UNL     1      -1.595  10.561  17.762  0.00  0.00    +0.000 A 
ATOM     18  C   UNL     1      -2.690  11.317  18.135  0.00  0.00    +0.000 A 
ATOM     19  C   UNL     1      -3.596  11.292  17.048  0.00  0.00    +0.000 A 
ATOM     20  C   UNL     1      -3.002  10.522  16.073  0.00  0.00    +0.000 A 
ATOM     21 BR   UNL     1      -3.751  10.135  14.409  0.00  0.00    +0.000 Br
ATOM     22  O   UNL     1      -1.788  10.076  16.495  0.00  0.00    +0.000 OA
ENDBRANCH  14  17
ENDBRANCH  12  13
ENDBRANCH   9  12
ENDBRANCH   1  10
BRANCH   6  23
ATOM     23  S   UNL     1       4.771   4.309  17.978  0.00  0.00    +0.000 S 
ATOM     24  O   UNL     1       6.011   4.231  18.725  0.00  0.00    +0.000 OA
ATOM     25  O   UNL     1       4.235   3.135  17.324  0.00  0.00    +0.000 OA
BRANCH  23  26
ATOM     26  N   UNL     1       4.974   5.519  16.794  0.00  0.00    +0.000 NA
ATOM     27  C   UNL     1       5.390   5.090  15.416  0.00  0.00    +0.000 C 
ATOM     28  C   UNL     1       6.911   4.869  15.317  0.00  0.00    +0.000 C 
ATOM     29  O   UNL     1       7.661   6.003  15.773  0.00  0.00    +0.000 OA
ATOM     30  C   UNL     1       7.303   6.363  17.116  0.00  0.00    +0.000 C 
ATOM     31  C   UNL     1       5.812   6.698  17.201  0.00  0.00    +0.000 C 
ENDBRANCH  23  26
ENDBRANCH   6  23
TORSDOF 6
ENDMDL
MODEL 2
REMARK VINA RESULT:      -8.6      2.714      3.155
REMARK  Name = 
REMARK  6 active torsions:
REMARK  status: ('A' for Active; 'I' for Inactive)
REMARK    1  A    between atoms: C_2  and  C_3
REMARK    2  A    between atoms: C_3  and  N_4
REMARK    3  A    between atoms: C_5  and  C_7
REMARK    4  A    between atoms: N_13  and  C_14
REMARK    5  A    between atoms: C_19  and  S_20
REMARK    6  A    between atoms: S_20  and  N_23
REMARK                            x       y       z     vdW  Elec       q    Type
REMARK                         _______ _______ _______ _____ _____    ______ ____
ROOT
ATOM      1  C   UNL     1       2.036   6.731  19.967  0.00  0.00    +0.000 A 
ATOM      2  C   UNL     1       1.219   5.915  20.753  0.00  0.00    +0.000 A 
ATOM      3  C   UNL     1       1.453   4.542  20.856  0.00  0.00    +0.000 A 
ATOM      4  C   UNL     1       2.501   3.950  20.160  0.00  0.00    +0.000 A 
ATOM      5  F   UNL     1       2.687   2.636  20.323  0.00  0.00    +0.000 F 
ATOM      6  C   UNL     1       3.301   4.724  19.340  0.00  0.00    +0.000 A 
ATOM      7  C   UNL     1       3.054   6.118  19.220  0.00  0.00    +0.000 A 
ENDROOT
BRANCH   1  10
ATOM      8  O   UNL     1       1.560   8.425  17.623  0.00  0.00    +0.000 OA
ATOM      9  C   UNL     1       1.628   8.877  18.766  0.00  0.00    +0.000 C 
ATOM     10  N   UNL     1       1.874   8.140  19.922  0.00  0.00    +0.000 N 
ATOM     11  H   UNL     1       1.842   8.641  20.807  0.00  0.00    +0.000 HD
BRANCH   9  12
ATOM     12  C   UNL     1       1.470  10.383  18.979  0.00  0.00    +0.000 C 
BRANCH  12  13
ATOM     13  N   UNL     1       0.372  10.664  19.874  0.00  0.00    +0.000 N 
ATOM     14  C   UNL     1       0.497  11.565  20.904  0.00  0.00    +0.000 C 
ATOM     15  O   UNL     1       1.553  12.169  21.102  0.00  0.00    +0.000 OA
ATOM     16  H   UNL     1      -0.551  10.294  19.670  0.00  0.00    +0.000 HD
BRANCH  14  17
ATOM     17  C   UNL     1      -0.693  11.732  21.708  0.00  0.00    +0.000 A 
ATOM     18  C   UNL     1      -1.027  11.229  22.951  0.00  0.00    +0.000 A 
ATOM     19  C   UNL     1      -2.329  11.699  23.248  0.00  0.00    +0.000 A 
ATOM     20  C   UNL     1      -2.714  12.462  22.169  0.00  0.00    +0.000 A 
ATOM     21 BR   UNL     1      -4.356  13.334  22.005  0.00  0.00    +0.000 Br
ATOM     22  O   UNL     1      -1.731  12.490  21.230  0.00  0.00    +0.000 OA
ENDBRANCH  14  17
ENDBRANCH  12  13
ENDBRANCH   9  12
ENDBRANCH   1  10
BRANCH   6  23
ATOM     23  S   UNL     1       4.629   4.043  18.388  0.00  0.00    +0.000 S 
ATOM     24  O   UNL     1       5.533   3.466  19.363  0.00  0.00    +0.000 OA
ATOM     25  O   UNL     1       4.014   3.209  17.377  0.00  0.00    +0.000 OA
BRANCH  23  26
ATOM     26  N   UNL     1       5.475   5.291  17.593  0.00  0.00    +0.000 NA
ATOM     27  C   UNL     1       5.485   5.286  16.091  0.00  0.00    +0.000 C 
ATOM     28  C   UNL     1       6.552   4.330  15.526  0.00  0.00    +0.000 C 
ATOM     29  O   UNL     1       7.856   4.580  16.069  0.00  0.00    +0.000 OA
ATOM     30  C   UNL     1       7.848   4.517  17.504  0.00  0.00    +0.000 C 
ATOM     31  C   UNL     1       6.873   5.546  18.080  0.00  0.00    +0.000 C 
ENDBRANCH  23  26
ENDBRANCH   6  23
TORSDOF 6
ENDMDL
MODEL 3
REMARK VINA RESULT:      -8.5      3.704      4.645
REMARK  Name = 
REMARK  6 active torsions:
REMARK  status: ('A' for Active; 'I' for Inactive)
REMARK    1  A    between atoms: C_2  and  C_3
REMARK    2  A    between atoms: C_3  and  N_4
REMARK    3  A    between atoms: C_5  and  C_7
REMARK    4  A    between atoms: N_13  and  C_14
REMARK    5  A    between atoms: C_19  and  S_20
REMARK    6  A    between atoms: S_20  and  N_23
REMARK                            x       y       z     vdW  Elec       q    Type
REMARK                         _______ _______ _______ _____ _____    ______ ____
ROOT
ATOM      1  C   UNL     1       1.269   8.591  20.125  0.00  0.00    +0.000 A 
ATOM      2  C   UNL     1       1.418   9.406  18.999  0.00  0.00    +0.000 A 
ATOM      3  C   UNL     1       2.176   8.992  17.902  0.00  0.00    +0.000 A 
ATOM      4  C   UNL     1       2.818   7.759  17.912  0.00  0.00    +0.000 A 
ATOM      5  F   UNL     1       3.506   7.412  16.819  0.00  0.00    +0.000 F 
ATOM      6  C   UNL     1       2.724   6.948  19.029  0.00  0.00    +0.000 A 
ATOM      7  C   UNL     1       1.968   7.375  20.153  0.00  0.00    +0.000 A 
ENDROOT
BRANCH   1  10
ATOM      8  O   UNL     1       2.052   9.495  22.800  0.00  0.00    +0.000 OA
ATOM      9  C   UNL     1       0.876   9.394  22.452  0.00  0.00    +0.000 C 
ATOM     10  N   UNL     1       0.427   8.951  21.210  0.00  0.00    +0.000 N 
ATOM     11  H   UNL     1      -0.576   8.978  21.041  0.00  0.00    +0.000 HD
BRANCH   9  12
ATOM     12  C   UNL     1      -0.226   9.742  23.452  0.00  0.00    +0.000 C 
BRANCH  12  13
ATOM     13  N   UNL     1      -1.334  10.393  22.792  0.00  0.00    +0.000 N 
ATOM     14  C   UNL     1      -1.430  11.762  22.732  0.00  0.00    +0.000 C 
ATOM     15  O   UNL     1      -0.572  12.488  23.239  0.00  0.00    +0.000 OA
ATOM     16  H   UNL     1      -1.991   9.842  22.248  0.00  0.00    +0.000 HD
BRANCH  14  17
ATOM     17  C   UNL     1      -2.598  12.256  22.038  0.00  0.00    +0.000 A 
ATOM     18  C   UNL     1      -2.751  12.754  20.758  0.00  0.00    +0.000 A 
ATOM     19  C   UNL     1      -4.114  13.110  20.616  0.00  0.00    +0.000 A 
ATOM     20  C   UNL     1      -4.715  12.807  21.817  0.00  0.00    +0.000 A 
ATOM     21 BR   UNL     1      -6.519  13.075  22.210  0.00  0.00    +0.000 Br
ATOM     22  O   UNL     1      -3.806  12.288  22.686  0.00  0.00    +0.000 OA
ENDBRANCH  14  17
ENDBRANCH  12  13
ENDBRANCH   9  12
ENDBRANCH   1  10
BRANCH   6  23
ATOM     23  S   UNL     1       3.544   5.383  19.138  0.00  0.00    +0.000 S 
ATOM     24  O   UNL     1       4.944   5.674  18.902  0.00  0.00    +0.000 OA
ATOM     25  O   UNL     1       3.120   4.792  20.389  0.00  0.00    +0.000 OA
BRANCH  23  26
ATOM     26  N   UNL     1       3.021   4.364  17.875  0.00  0.00    +0.000 NA
ATOM     27  C   UNL     1       1.565   3.999  17.825  0.00  0.00    +0.000 C 
ATOM     28  C   UNL     1       1.230   2.836  18.777  0.00  0.00    +0.000 C 
ATOM     29  O   UNL     1       2.075   1.696  18.569  0.00  0.00    +0.000 OA
ATOM     30  C   UNL     1       3.463   2.042  18.685  0.00  0.00    +0.000 C 
ATOM     31  C   UNL     1       3.834   3.119  17.662  0.00  0.00    +0.000 C 
ENDBRANCH  23  26
ENDBRANCH   6  23
TORSDOF 6
ENDMDL
MODEL 4
REMARK VINA RESULT:      -8.5      1.054      1.123
REMARK  Name = 
REMARK  6 active torsions:
REMARK  status: ('A' for Active; 'I' for Inactive)
REMARK    1  A    between atoms: C_2  and  C_3
REMARK    2  A    between atoms: C_3  and  N_4
REMARK    3  A    between atoms: C_5  and  C_7
REMARK    4  A    between atoms: N_13  and  C_14
REMARK    5  A    between atoms: C_19  and  S_20
REMARK    6  A    between atoms: S_20  and  N_23
REMARK                            x       y       z     vdW  Elec       q    Type
REMARK                         _______ _______ _______ _____ _____    ______ ____
ROOT
ATOM      1  C   UNL     1       2.024   6.798  19.850  0.00  0.00    +0.000 A 
ATOM      2  C   UNL     1       1.374   5.979  20.776  0.00  0.00    +0.000 A 
ATOM      3  C   UNL     1       1.792   4.665  20.997  0.00  0.00    +0.000 A 
ATOM      4  C   UNL     1       2.860   4.134  20.284  0.00  0.00    +0.000 A 
ATOM      5  F   UNL     1       3.226   2.878  20.563  0.00  0.00    +0.000 F 
ATOM      6  C   UNL     1       3.497   4.906  19.330  0.00  0.00    +0.000 A 
ATOM      7  C   UNL     1       3.063   6.237  19.091  0.00  0.00    +0.000 A 
ENDROOT
BRANCH   1  10
ATOM      8  O   UNL     1       0.887   8.641  21.825  0.00  0.00    +0.000 OA
ATOM      9  C   UNL     1       1.160   8.986  20.675  0.00  0.00    +0.000 C 
ATOM     10  N   UNL     1       1.678   8.164  19.677  0.00  0.00    +0.000 N 
ATOM     11  H   UNL     1       1.912   8.602  18.789  0.00  0.00    +0.000 HD
BRANCH   9  12
ATOM     12  C   UNL     1       0.887  10.429  20.249  0.00  0.00    +0.000 C 
BRANCH  12  13
ATOM     13  N   UNL     1      -0.196  10.488  19.295  0.00  0.00    +0.000 N 
ATOM     14  C   UNL     1      -1.268  11.327  19.476  0.00  0.00    +0.000 C 
ATOM     15  O   UNL     1      -1.346  12.065  20.461  0.00  0.00    +0.000 OA
ATOM     16  H   UNL     1      -0.112  10.001  18.408  0.00  0.00    +0.000 HD
BRANCH  14  17
ATOM     17  C   UNL     1      -2.266  11.266  18.432  0.00  0.00    +0.000 A 
ATOM     18  C   UNL     1      -3.591  11.660  18.417  0.00  0.00    +0.000 A 
ATOM     19  C   UNL     1      -4.099  11.344  17.134  0.00  0.00    +0.000 A 
ATOM     20  C   UNL     1      -3.055  10.776  16.439  0.00  0.00    +0.000 A 
ATOM     21 BR   UNL     1      -3.149  10.155  14.682  0.00  0.00    +0.000 Br
ATOM     22  O   UNL     1      -1.939  10.725  17.215  0.00  0.00    +0.000 OA
ENDBRANCH  14  17
ENDBRANCH  12  13
ENDBRANCH   9  12
ENDBRANCH   1  10
BRANCH   6  23
ATOM     23  S   UNL     1       4.837   4.292  18.350  0.00  0.00    +0.000 S 
ATOM     24  O   UNL     1       5.811   3.805  19.307  0.00  0.00    +0.000 OA
ATOM     25  O   UNL     1       4.250   3.393  17.380  0.00  0.00    +0.000 OA
BRANCH  23  26
ATOM     26  N   UNL     1       5.569   5.575  17.498  0.00  0.00    +0.000 NA
ATOM     27  C   UNL     1       5.181   5.774  16.060  0.00  0.00    +0.000 C 
ATOM     28  C   UNL     1       5.954   4.831  15.120  0.00  0.00    +0.000 C 
ATOM     29  O   UNL     1       7.374   4.913  15.307  0.00  0.00    +0.000 OA
ATOM     30  C   UNL     1       7.740   4.656  16.672  0.00  0.00    +0.000 C 
ATOM     31  C   UNL     1       7.064   5.663  17.606  0.00  0.00    +0.000 C 
ENDBRANCH  23  26
ENDBRANCH   6  23
TORSDOF 6
ENDMDL
MODEL 5
REMARK VINA RESULT:      -8.5      1.448      1.588
REMARK  Name = 
REMARK  6 active torsions:
REMARK  status: ('A' for Active; 'I' for Inactive)
REMARK    1  A    between atoms: C_2  and  C_3
REMARK    2  A    between atoms: C_3  and  N_4
REMARK    3  A    between atoms: C_5  and  C_7
REMARK    4  A    between atoms: N_13  and  C_14
REMARK    5  A    between atoms: C_19  and  S_20
REMARK    6  A    between atoms: S_20  and  N_23
REMARK                            x       y       z     vdW  Elec       q    Type
REMARK                         _______ _______ _______ _____ _____    ______ ____
ROOT
ATOM      1  C   UNL     1       2.020   6.197  20.037  0.00  0.00    +0.000 A 
ATOM      2  C   UNL     1       1.553   5.214  20.913  0.00  0.00    +0.000 A 
ATOM      3  C   UNL     1       2.107   3.932  20.922  0.00  0.00    +0.000 A 
ATOM      4  C   UNL     1       3.131   3.599  20.043  0.00  0.00    +0.000 A 
ATOM      5  F   UNL     1       3.635   2.362  20.122  0.00  0.00    +0.000 F 
ATOM      6  C   UNL     1       3.586   4.537  19.135  0.00  0.00    +0.000 A 
ATOM      7  C   UNL     1       3.012   5.837  19.112  0.00  0.00    +0.000 A 
ENDROOT
BRANCH   1  10
ATOM      8  O   UNL     1       2.290   8.278  17.990  0.00  0.00    +0.000 OA
ATOM      9  C   UNL     1       1.686   8.461  19.048  0.00  0.00    +0.000 C 
ATOM     10  N   UNL     1       1.538   7.532  20.075  0.00  0.00    +0.000 N 
ATOM     11  H   UNL     1       0.960   7.804  20.867  0.00  0.00    +0.000 HD
BRANCH   9  12
ATOM     12  C   UNL     1       1.060   9.829  19.317  0.00  0.00    +0.000 C 
BRANCH  12  13
ATOM     13  N   UNL     1      -0.112  10.029  18.497  0.00  0.00    +0.000 N 
ATOM     14  C   UNL     1      -1.115  10.888  18.875  0.00  0.00    +0.000 C 
ATOM     15  O   UNL     1      -1.052  11.524  19.929  0.00  0.00    +0.000 OA
ATOM     16  H   UNL     1      -0.147   9.632  17.563  0.00  0.00    +0.000 HD
BRANCH  14  17
ATOM     17  C   UNL     1      -2.219  10.974  17.945  0.00  0.00    +0.000 A 
ATOM     18  C   UNL     1      -2.354  10.509  16.650  0.00  0.00    +0.000 A 
ATOM     19  C   UNL     1      -3.643  10.894  16.209  0.00  0.00    +0.000 A 
ATOM     20  C   UNL     1      -4.221  11.570  17.259  0.00  0.00    +0.000 A 
ATOM     21 BR   UNL     1      -5.930  12.318  17.242  0.00  0.00    +0.000 Br
ATOM     22  O   UNL     1      -3.368  11.624  18.317  0.00  0.00    +0.000 OA
ENDBRANCH  14  17
ENDBRANCH  12  13
ENDBRANCH   9  12
ENDBRANCH   1  10
BRANCH   6  23
ATOM     23  S   UNL     1       4.856   4.181  17.955  0.00  0.00    +0.000 S 
ATOM     24  O   UNL     1       6.085   4.147  18.723  0.00  0.00    +0.000 OA
ATOM     25  O   UNL     1       4.415   3.010  17.228  0.00  0.00    +0.000 OA
BRANCH  23  26
ATOM     26  N   UNL     1       4.993   5.466  16.843  0.00  0.00    +0.000 NA
ATOM     27  C   UNL     1       5.368   5.132  15.427  0.00  0.00    +0.000 C 
ATOM     28  C   UNL     1       6.888   4.950  15.262  0.00  0.00    +0.000 C 
ATOM     29  O   UNL     1       7.632   6.069  15.762  0.00  0.00    +0.000 OA
ATOM     30  C   UNL     1       7.316   6.338  17.137  0.00  0.00    +0.000 C 
ATOM     31  C   UNL     1       5.822   6.635  17.294  0.00  0.00    +0.000 C 
ENDBRANCH  23  26
ENDBRANCH   6  23
TORSDOF 6
ENDMDL
MODEL 6
REMARK VINA RESULT:      -8.5      1.723      1.998
REMARK  Name = 
REMARK  6 active torsions:
REMARK  status: ('A' for Active; 'I' for Inactive)
REMARK    1  A    between atoms: C_2  and  C_3
REMARK    2  A    between atoms: C_3  and  N_4
REMARK    3  A    between atoms: C_5  and  C_7
REMARK    4  A    between atoms: N_13  and  C_14
REMARK    5  A    between atoms: C_19  and  S_20
REMARK    6  A    between atoms: S_20  and  N_23
REMARK                            x       y       z     vdW  Elec       q    Type
REMARK                         _______ _______ _______ _____ _____    ______ ____
ROOT
ATOM      1  C   UNL     1       1.724   5.568  20.515  0.00  0.00    +0.000 A 
ATOM      2  C   UNL     1       0.817   4.506  20.564  0.00  0.00    +0.000 A 
ATOM      3  C   UNL     1       1.115   3.273  19.979  0.00  0.00    +0.000 A 
ATOM      4  C   UNL     1       2.321   3.079  19.317  0.00  0.00    +0.000 A 
ATOM      5  F   UNL     1       2.555   1.867  18.802  0.00  0.00    +0.000 F 
ATOM      6  C   UNL     1       3.221   4.124  19.215  0.00  0.00    +0.000 A 
ATOM      7  C   UNL     1       2.913   5.384  19.794  0.00  0.00    +0.000 A 
ENDROOT
BRANCH   1  10
ATOM      8  O   UNL     1       1.811   8.279  19.404  0.00  0.00    +0.000 OA
ATOM      9  C   UNL     1       1.521   8.052  20.579  0.00  0.00    +0.000 C 
ATOM     10  N   UNL     1       1.482   6.797  21.183  0.00  0.00    +0.000 N 
ATOM     11  H   UNL     1       1.166   6.756  22.149  0.00  0.00    +0.000 HD
BRANCH   9  12
ATOM     12  C   UNL     1       1.204   9.226  21.504  0.00  0.00    +0.000 C 
BRANCH  12  13
ATOM     13  N   UNL     1      -0.021   9.880  21.106  0.00  0.00    +0.000 N 
ATOM     14  C   UNL     1      -0.014  11.109  20.492  0.00  0.00    +0.000 C 
ATOM     15  O   UNL     1       1.042  11.702  20.258  0.00  0.00    +0.000 OA
ATOM     16  H   UNL     1      -0.901   9.374  21.156  0.00  0.00    +0.000 HD
BRANCH  14  17
ATOM     17  C   UNL     1      -1.322  11.625  20.158  0.00  0.00    +0.000 A 
ATOM     18  C   UNL     1      -2.131  12.538  20.807  0.00  0.00    +0.000 A 
ATOM     19  C   UNL     1      -3.316  12.654  20.041  0.00  0.00    +0.000 A 
ATOM     20  C   UNL     1      -3.161  11.806  18.967  0.00  0.00    +0.000 A 
ATOM     21 BR   UNL     1      -4.423  11.544  17.619  0.00  0.00    +0.000 Br
ATOM     22  O   UNL     1      -1.956  11.178  19.027  0.00  0.00    +0.000 OA
ENDBRANCH  14  17
ENDBRANCH  12  13
ENDBRANCH   9  12
ENDBRANCH   1  10
BRANCH   6  23
ATOM     23  S   UNL     1       4.761   3.972  18.354  0.00  0.00    +0.000 S 
ATOM     24  O   UNL     1       5.675   3.389  19.316  0.00  0.00    +0.000 OA
ATOM     25  O   UNL     1       4.464   3.284  17.116  0.00  0.00    +0.000 OA
BRANCH  23  26
ATOM     26  N   UNL     1       5.362   5.518  17.962  0.00  0.00    +0.000 NA
ATOM     27  C   UNL     1       4.767   6.222  16.775  0.00  0.00    +0.000 C 
ATOM     28  C   UNL     1       5.390   5.746  15.451  0.00  0.00    +0.000 C 
ATOM     29  O   UNL     1       6.822   5.827  15.458  0.00  0.00    +0.000 OA
ATOM     30  C   UNL     1       7.384   5.095  16.558  0.00  0.00    +0.000 C 
ATOM     31  C   UNL     1       6.857   5.639  17.888  0.00  0.00    +0.000 C 
ENDBRANCH  23  26
ENDBRANCH   6  23
TORSDOF 6
ENDMDL
MODEL 7
REMARK VINA RESULT:      -8.5      5.873      8.694
REMARK  Name = 
REMARK  6 active torsions:
REMARK  status: ('A' for Active; 'I' for Inactive)
REMARK    1  A    between atoms: C_2  and  C_3
REMARK    2  A    between atoms: C_3  and  N_4
REMARK    3  A    between atoms: C_5  and  C_7
REMARK    4  A    between atoms: N_13  and  C_14
REMARK    5  A    between atoms: C_19  and  S_20
REMARK    6  A    between atoms: S_20  and  N_23
REMARK                            x       y       z     vdW  Elec       q    Type
REMARK                         _______ _______ _______ _____ _____    ______ ____
ROOT
ATOM      1  C   UNL     1       7.072   6.332  17.787  0.00  0.00    +0.000 A 
ATOM      2  C   UNL     1       7.341   5.751  16.546  0.00  0.00    +0.000 A 
ATOM      3  C   UNL     1       6.401   4.937  15.909  0.00  0.00    +0.000 A 
ATOM      4  C   UNL     1       5.175   4.672  16.509  0.00  0.00    +0.000 A 
ATOM      5  F   UNL     1       4.310   3.906  15.834  0.00  0.00    +0.000 F 
ATOM      6  C   UNL     1       4.896   5.198  17.757  0.00  0.00    +0.000 A 
ATOM      7  C   UNL     1       5.857   6.012  18.414  0.00  0.00    +0.000 A 
ENDROOT
BRANCH   1  10
ATOM      8  O   UNL     1       7.441   9.186  17.229  0.00  0.00    +0.000 OA
ATOM      9  C   UNL     1       8.075   8.592  18.102  0.00  0.00    +0.000 C 
ATOM     10  N   UNL     1       7.972   7.237  18.408  0.00  0.00    +0.000 N 
ATOM     11  H   UNL     1       8.516   6.897  19.197  0.00  0.00    +0.000 HD
BRANCH   9  12
ATOM     12  C   UNL     1       9.106   9.365  18.924  0.00  0.00    +0.000 C 
BRANCH  12  13
ATOM     13  N   UNL     1       9.396  10.643  18.317  0.00  0.00    +0.000 N 
ATOM     14  C   UNL     1      10.322  11.502  18.857  0.00  0.00    +0.000 C 
ATOM     15  O   UNL     1      10.943  11.214  19.883  0.00  0.00    +0.000 OA
ATOM     16  H   UNL     1       9.010  10.866  17.404  0.00  0.00    +0.000 HD
BRANCH  14  17
ATOM     17  C   UNL     1      10.494  12.740  18.130  0.00  0.00    +0.000 A 
ATOM     18  C   UNL     1      11.267  13.045  17.025  0.00  0.00    +0.000 A 
ATOM     19  C   UNL     1      11.066  14.419  16.751  0.00  0.00    +0.000 A 
ATOM     20  C   UNL     1      10.181  14.873  17.702  0.00  0.00    +0.000 A 
ATOM     21 BR   UNL     1       9.556  16.627  17.833  0.00  0.00    +0.000 Br
ATOM     22  O   UNL     1       9.827  13.865  18.542  0.00  0.00    +0.000 OA
ENDBRANCH  14  17
ENDBRANCH  12  13
ENDBRANCH   9  12
ENDBRANCH   1  10
BRANCH   6  23
ATOM     23  S   UNL     1       3.377   4.875  18.607  0.00  0.00    +0.000 S 
ATOM     24  O   UNL     1       3.557   5.442  19.928  0.00  0.00    +0.000 OA
ATOM     25  O   UNL     1       2.321   5.355  17.742  0.00  0.00    +0.000 OA
BRANCH  23  26
ATOM     26  N   UNL     1       3.168   3.195  18.804  0.00  0.00    +0.000 NA
ATOM     27  C   UNL     1       1.816   2.615  18.500  0.00  0.00    +0.000 C 
ATOM     28  C   UNL     1       0.840   2.782  19.679  0.00  0.00    +0.000 C 
ATOM     29  O   UNL     1       1.374   2.274  20.909  0.00  0.00    +0.000 OA
ATOM     30  C   UNL     1       2.635   2.884  21.225  0.00  0.00    +0.000 C 
ATOM     31  C   UNL     1       3.649   2.625  20.108  0.00  0.00    +0.000 C 
ENDBRANCH  23  26
ENDBRANCH   6  23
TORSDOF 6
ENDMDL
MODEL 8
REMARK VINA RESULT:      -8.4      5.380      8.365
REMARK  Name = 
REMARK  6 active torsions:
REMARK  status: ('A' for Active; 'I' for Inactive)
REMARK    1  A    between atoms: C_2  and  C_3
REMARK    2  A    between atoms: C_3  and  N_4
REMARK    3  A    between atoms: C_5  and  C_7
REMARK    4  A    between atoms: N_13  and  C_14
REMARK    5  A    between atoms: C_19  and  S_20
REMARK    6  A    between atoms: S_20  and  N_23
REMARK                            x       y       z     vdW  Elec       q    Type
REMARK                         _______ _______ _______ _____ _____    ______ ____
ROOT
ATOM      1  C   UNL     1       6.493   6.740  16.976  0.00  0.00    +0.000 A 
ATOM      2  C   UNL     1       6.993   5.635  16.283  0.00  0.00    +0.000 A 
ATOM      3  C   UNL     1       6.258   4.451  16.182  0.00  0.00    +0.000 A 
ATOM      4  C   UNL     1       5.011   4.340  16.787  0.00  0.00    +0.000 A 
ATOM      5  F   UNL     1       4.348   3.190  16.630  0.00  0.00    +0.000 F 
ATOM      6  C   UNL     1       4.508   5.403  17.516  0.00  0.00    +0.000 A 
ATOM      7  C   UNL     1       5.261   6.601  17.635  0.00  0.00    +0.000 A 
ENDROOT
BRANCH   1  10
ATOM      8  O   UNL     1       8.521   7.633  18.894  0.00  0.00    +0.000 OA
ATOM      9  C   UNL     1       8.152   8.327  17.947  0.00  0.00    +0.000 C 
ATOM     10  N   UNL     1       7.179   7.982  17.011  0.00  0.00    +0.000 N 
ATOM     11  H   UNL     1       7.021   8.632  16.245  0.00  0.00    +0.000 HD
BRANCH   9  12
ATOM     12  C   UNL     1       8.763   9.716  17.763  0.00  0.00    +0.000 C 
BRANCH  12  13
ATOM     13  N   UNL     1       8.791  10.436  19.015  0.00  0.00    +0.000 N 
ATOM     14  C   UNL     1       9.327  11.697  19.107  0.00  0.00    +0.000 C 
ATOM     15  O   UNL     1       9.804  12.265  18.122  0.00  0.00    +0.000 OA
ATOM     16  H   UNL     1       8.293  10.066  19.819  0.00  0.00    +0.000 HD
BRANCH  14  17
ATOM     17  C   UNL     1       9.279  12.279  20.430  0.00  0.00    +0.000 A 
ATOM     18  C   UNL     1       9.759  13.482  20.911  0.00  0.00    +0.000 A 
ATOM     19  C   UNL     1       9.451  13.524  22.292  0.00  0.00    +0.000 A 
ATOM     20  C   UNL     1       8.799  12.345  22.574  0.00  0.00    +0.000 A 
ATOM     21 BR   UNL     1       8.161  11.849  24.256  0.00  0.00    +0.000 Br
ATOM     22  O   UNL     1       8.688  11.583  21.453  0.00  0.00    +0.000 OA
ENDBRANCH  14  17
ENDBRANCH  12  13
ENDBRANCH   9  12
ENDBRANCH   1  10
BRANCH   6  23
ATOM     23  S   UNL     1       2.949   5.329  18.351  0.00  0.00    +0.000 S 
ATOM     24  O   UNL     1       2.598   6.709  18.618  0.00  0.00    +0.000 OA
ATOM     25  O   UNL     1       2.091   4.500  17.532  0.00  0.00    +0.000 OA
BRANCH  23  26
ATOM     26  N   UNL     1       3.134   4.556  19.860  0.00  0.00    +0.000 NA
ATOM     27  C   UNL     1       3.557   3.115  19.864  0.00  0.00    +0.000 C 
ATOM     28  C   UNL     1       2.369   2.165  19.628  0.00  0.00    +0.000 C 
ATOM     29  O   UNL     1       1.285   2.406  20.536  0.00  0.00    +0.000 OA
ATOM     30  C   UNL     1       0.844   3.771  20.476  0.00  0.00    +0.000 C 
ATOM     31  C   UNL     1       1.993   4.721  20.823  0.00  0.00    +0.000 C 
ENDBRANCH  23  26
ENDBRANCH   6  23
TORSDOF 6
ENDMDL
MODEL 9
REMARK VINA RESULT:      -8.4      2.331      2.631
REMARK  Name = 
REMARK  6 active torsions:
REMARK  status: ('A' for Active; 'I' for Inactive)
REMARK    1  A    between atoms: C_2  and  C_3
REMARK    2  A    between atoms: C_3  and  N_4
REMARK    3  A    between atoms: C_5  and  C_7
REMARK    4  A    between atoms: N_13  and  C_14
REMARK    5  A    between atoms: C_19  and  S_20
REMARK    6  A    between atoms: S_20  and  N_23
REMARK                            x       y       z     vdW  Elec       q    Type
REMARK                         _______ _______ _______ _____ _____    ______ ____
ROOT
ATOM      1  C   UNL     1       1.833   5.387  20.381  0.00  0.00    +0.000 A 
ATOM      2  C   UNL     1       0.979   4.282  20.442  0.00  0.00    +0.000 A 
ATOM      3  C   UNL     1       1.300   3.085  19.798  0.00  0.00    +0.000 A 
ATOM      4  C   UNL     1       2.474   2.971  19.063  0.00  0.00    +0.000 A 
ATOM      5  F   UNL     1       2.733   1.789  18.493  0.00  0.00    +0.000 F 
ATOM      6  C   UNL     1       3.318   4.060  18.948  0.00  0.00    +0.000 A 
ATOM      7  C   UNL     1       2.986   5.284  19.588  0.00  0.00    +0.000 A 
ENDROOT
BRANCH   1  10
ATOM      8  O   UNL     1       1.883   8.147  19.397  0.00  0.00    +0.000 OA
ATOM      9  C   UNL     1       1.596   7.862  20.560  0.00  0.00    +0.000 C 
ATOM     10  N   UNL     1       1.574   6.580  21.105  0.00  0.00    +0.000 N 
ATOM     11  H   UNL     1       1.257   6.490  22.067  0.00  0.00    +0.000 HD
BRANCH   9  12
ATOM     12  C   UNL     1       1.262   8.988  21.538  0.00  0.00    +0.000 C 
BRANCH  12  13
ATOM     13  N   UNL     1       0.082   9.705  21.115  0.00  0.00    +0.000 N 
ATOM     14  C   UNL     1       0.055  11.077  21.063  0.00  0.00    +0.000 C 
ATOM     15  O   UNL     1       1.040  11.750  21.376  0.00  0.00    +0.000 OA
ATOM     16  H   UNL     1      -0.704   9.194  20.722  0.00  0.00    +0.000 HD
BRANCH  14  17
ATOM     17  C   UNL     1      -1.200  11.640  20.619  0.00  0.00    +0.000 A 
ATOM     18  C   UNL     1      -1.830  11.601  19.389  0.00  0.00    +0.000 A 
ATOM     19  C   UNL     1      -3.029  12.341  19.518  0.00  0.00    +0.000 A 
ATOM     20  C   UNL     1      -3.064  12.790  20.819  0.00  0.00    +0.000 A 
ATOM     21 BR   UNL     1      -4.424  13.833  21.557  0.00  0.00    +0.000 Br
ATOM     22  O   UNL     1      -1.962  12.370  21.496  0.00  0.00    +0.000 OA
ENDBRANCH  14  17
ENDBRANCH  12  13
ENDBRANCH   9  12
ENDBRANCH   1  10
BRANCH   6  23
ATOM     23  S   UNL     1       4.811   4.010  17.998  0.00  0.00    +0.000 S 
ATOM     24  O   UNL     1       5.881   4.040  18.975  0.00  0.00    +0.000 OA
ATOM     25  O   UNL     1       4.676   2.889  17.093  0.00  0.00    +0.000 OA
BRANCH  23  26
ATOM     26  N   UNL     1       4.948   5.427  17.059  0.00  0.00    +0.000 NA
ATOM     27  C   UNL     1       5.268   5.272  15.599  0.00  0.00    +0.000 C 
ATOM     28  C   UNL     1       6.776   5.077  15.358  0.00  0.00    +0.000 C 
ATOM     29  O   UNL     1       7.568   6.103  15.973  0.00  0.00    +0.000 OA
ATOM     30  C   UNL     1       7.303   6.197  17.381  0.00  0.00    +0.000 C 
ATOM     31  C   UNL     1       5.824   6.506  17.628  0.00  0.00    +0.000 C 
ENDBRANCH  23  26
ENDBRANCH   6  23
TORSDOF 6
ENDMDL
