MODEL 1
REMARK VINA RESULT:      -8.3      0.000      0.000
REMARK  Name = 
REMARK  3 active torsions:
REMARK  status: ('A' for Active; 'I' for Inactive)
REMARK    1  A    between atoms: C_1  and  N_2
REMARK    2  A    between atoms: C_11  and  S_12
REMARK    3  A    between atoms: S_12  and  C_15
REMARK                            x       y       z     vdW  Elec       q    Type
REMARK                         _______ _______ _______ _____ _____    ______ ____
ROOT
ATOM      1  C   UNL     1       1.765   3.080  21.607  0.00  0.00    +0.000 C 
ATOM      2  N   UNL     1       2.796   3.711  20.809  0.00  0.00    +0.000 N 
ATOM      3  C   UNL     1       2.602   4.951  20.308  0.00  0.00    +0.000 A 
ATOM      4  N   UNL     1       1.788   5.857  20.852  0.00  0.00    +0.000 NA
ATOM      5  N   UNL     1       1.872   6.946  20.053  0.00  0.00    +0.000 N 
ATOM      6  C   UNL     1       1.221   8.176  20.204  0.00  0.00    +0.000 A 
ATOM      7  C   UNL     1       1.406   9.144  19.287  0.00  0.00    +0.000 A 
ATOM      8  C   UNL     1       2.310   8.799  18.158  0.00  0.00    +0.000 A 
ATOM      9  N   UNL     1       2.950   7.680  18.009  0.00  0.00    +0.000 NA
ATOM     10  C   UNL     1       2.736   6.730  18.973  0.00  0.00    +0.000 A 
ATOM     11  C   UNL     1       3.228   5.456  19.150  0.00  0.00    +0.000 A 
ATOM     12  C   UNL     1       0.770  10.493  19.343  0.00  0.00    +0.000 C 
ATOM     13  N   UNL     1      -0.329  10.577  20.316  0.00  0.00    +0.000 NA
ATOM     14  C   UNL     1       0.042   9.927  21.581  0.00  0.00    +0.000 C 
ATOM     15  C   UNL     1       0.350   8.426  21.405  0.00  0.00    +0.000 C 
ATOM     16  H   UNL     1       3.350   3.050  20.257  0.00  0.00    +0.000 HD
ATOM     17  H   UNL     1      -1.146  10.103  19.928  0.00  0.00    +0.000 HD
ENDROOT
BRANCH  11  18
ATOM     18  S   UNL     1       4.329   4.648  18.126  0.00  0.00    +0.000 S 
ATOM     19  O   UNL     1       4.548   3.344  18.726  0.00  0.00    +0.000 OA
ATOM     20  O   UNL     1       3.776   4.764  16.792  0.00  0.00    +0.000 OA
BRANCH  18  21
ATOM     21  C   UNL     1       5.854   5.552  18.200  0.00  0.00    +0.000 A 
ATOM     22  C   UNL     1       6.107   6.563  17.264  0.00  0.00    +0.000 A 
ATOM     23  C   UNL     1       7.273   7.324  17.368  0.00  0.00    +0.000 A 
ATOM     24  C   UNL     1       8.177   7.081  18.405  0.00  0.00    +0.000 A 
ATOM     25  C   UNL     1       7.916   6.082  19.343  0.00  0.00    +0.000 A 
ATOM     26  C   UNL     1       6.750   5.319  19.247  0.00  0.00    +0.000 A 
ENDBRANCH  18  21
ENDBRANCH  11  18
TORSDOF 2
ENDMDL
MODEL 2
REMARK VINA RESULT:      -8.2      0.161      1.002
REMARK  Name = 
REMARK  3 active torsions:
REMARK  status: ('A' for Active; 'I' for Inactive)
REMARK    1  A    between atoms: C_1  and  N_2
REMARK    2  A    between atoms: C_11  and  S_12
REMARK    3  A    between atoms: S_12  and  C_15
REMARK                            x       y       z     vdW  Elec       q    Type
REMARK                         _______ _______ _______ _____ _____    ______ ____
ROOT
ATOM      1  C   UNL     1       1.563   3.099  21.589  0.00  0.00    +0.000 C 
ATOM      2  N   UNL     1       2.617   3.742  20.833  0.00  0.00    +0.000 N 
ATOM      3  C   UNL     1       2.444   4.995  20.356  0.00  0.00    +0.000 A 
ATOM      4  N   UNL     1       1.620   5.893  20.901  0.00  0.00    +0.000 NA
ATOM      5  N   UNL     1       1.731   7.000  20.130  0.00  0.00    +0.000 N 
ATOM      6  C   UNL     1       1.084   8.230  20.293  0.00  0.00    +0.000 A 
ATOM      7  C   UNL     1       1.298   9.219  19.404  0.00  0.00    +0.000 A 
ATOM      8  C   UNL     1       2.228   8.895  18.291  0.00  0.00    +0.000 A 
ATOM      9  N   UNL     1       2.865   7.775  18.132  0.00  0.00    +0.000 NA
ATOM     10  C   UNL     1       2.622   6.804  19.068  0.00  0.00    +0.000 A 
ATOM     11  C   UNL     1       3.101   5.523  19.227  0.00  0.00    +0.000 A 
ATOM     12  C   UNL     1       0.668  10.570  19.477  0.00  0.00    +0.000 C 
ATOM     13  N   UNL     1      -0.454  10.638  20.423  0.00  0.00    +0.000 NA
ATOM     14  C   UNL     1      -0.120   9.956  21.681  0.00  0.00    +0.000 C 
ATOM     15  C   UNL     1       0.184   8.458  21.477  0.00  0.00    +0.000 C 
ATOM     16  H   UNL     1       3.181   3.091  20.278  0.00  0.00    +0.000 HD
ATOM     17  H   UNL     1      -1.264  10.179  20.003  0.00  0.00    +0.000 HD
ENDROOT
BRANCH  11  18
ATOM     18  S   UNL     1       4.224   4.733  18.211  0.00  0.00    +0.000 S 
ATOM     19  O   UNL     1       4.458   3.432  18.814  0.00  0.00    +0.000 OA
ATOM     20  O   UNL     1       3.679   4.839  16.873  0.00  0.00    +0.000 OA
BRANCH  18  21
ATOM     21  C   UNL     1       5.733   5.661  18.297  0.00  0.00    +0.000 A 
ATOM     22  C   UNL     1       6.671   5.367  19.295  0.00  0.00    +0.000 A 
ATOM     23  C   UNL     1       7.891   6.046  19.317  0.00  0.00    +0.000 A 
ATOM     24  C   UNL     1       8.174   7.007  18.344  0.00  0.00    +0.000 A 
ATOM     25  C   UNL     1       7.242   7.289  17.344  0.00  0.00    +0.000 A 
ATOM     26  C   UNL     1       6.022   6.611  17.314  0.00  0.00    +0.000 A 
ENDBRANCH  18  21
ENDBRANCH  11  18
TORSDOF 2
ENDMDL
MODEL 3
REMARK VINA RESULT:      -8.2      1.358      1.802
REMARK  Name = 
REMARK  3 active torsions:
REMARK  status: ('A' for Active; 'I' for Inactive)
REMARK    1  A    between atoms: C_1  and  N_2
REMARK    2  A    between atoms: C_11  and  S_12
REMARK    3  A    between atoms: S_12  and  C_15
REMARK                            x       y       z     vdW  Elec       q    Type
REMARK                         _______ _______ _______ _____ _____    ______ ____
ROOT
ATOM      1  C   UNL     1       1.508   2.652  21.947  0.00  0.00    +0.000 C 
ATOM      2  N   UNL     1       2.434   3.000  20.889  0.00  0.00    +0.000 N 
ATOM      3  C   UNL     1       2.373   4.219  20.308  0.00  0.00    +0.000 A 
ATOM      4  N   UNL     1       1.889   5.309  20.909  0.00  0.00    +0.000 NA
ATOM      5  N   UNL     1       1.998   6.302  19.997  0.00  0.00    +0.000 N 
ATOM      6  C   UNL     1       1.645   7.649  20.146  0.00  0.00    +0.000 A 
ATOM      7  C   UNL     1       1.800   8.497  19.111  0.00  0.00    +0.000 A 
ATOM      8  C   UNL     1       2.343   7.899  17.863  0.00  0.00    +0.000 A 
ATOM      9  N   UNL     1       2.708   6.663  17.706  0.00  0.00    +0.000 NA
ATOM     10  C   UNL     1       2.539   5.842  18.791  0.00  0.00    +0.000 A 
ATOM     11  C   UNL     1       2.806   4.507  18.998  0.00  0.00    +0.000 A 
ATOM     12  C   UNL     1       1.462   9.950  19.153  0.00  0.00    +0.000 C 
ATOM     13  N   UNL     1       0.647  10.324  20.317  0.00  0.00    +0.000 NA
ATOM     14  C   UNL     1       1.162   9.692  21.541  0.00  0.00    +0.000 C 
ATOM     15  C   UNL     1       1.130   8.152  21.467  0.00  0.00    +0.000 C 
ATOM     16  H   UNL     1       2.713   2.204  20.308  0.00  0.00    +0.000 HD
ATOM     17  H   UNL     1      -0.312  10.008  20.161  0.00  0.00    +0.000 HD
ENDROOT
BRANCH  11  18
ATOM     18  S   UNL     1       3.473   3.423  17.860  0.00  0.00    +0.000 S 
ATOM     19  O   UNL     1       3.894   2.259  18.620  0.00  0.00    +0.000 OA
ATOM     20  O   UNL     1       2.482   3.303  16.810  0.00  0.00    +0.000 OA
BRANCH  18  21
ATOM     21  C   UNL     1       4.924   4.203  17.200  0.00  0.00    +0.000 A 
ATOM     22  C   UNL     1       5.991   4.513  18.051  0.00  0.00    +0.000 A 
ATOM     23  C   UNL     1       7.161   5.059  17.518  0.00  0.00    +0.000 A 
ATOM     24  C   UNL     1       7.266   5.286  16.144  0.00  0.00    +0.000 A 
ATOM     25  C   UNL     1       6.204   4.964  15.298  0.00  0.00    +0.000 A 
ATOM     26  C   UNL     1       5.033   4.415  15.823  0.00  0.00    +0.000 A 
ENDBRANCH  18  21
ENDBRANCH  11  18
TORSDOF 2
ENDMDL
MODEL 4
REMARK VINA RESULT:      -7.7      3.643      7.196
REMARK  Name = 
REMARK  3 active torsions:
REMARK  status: ('A' for Active; 'I' for Inactive)
REMARK    1  A    between atoms: C_1  and  N_2
REMARK    2  A    between atoms: C_11  and  S_12
REMARK    3  A    between atoms: S_12  and  C_15
REMARK                            x       y       z     vdW  Elec       q    Type
REMARK                         _______ _______ _______ _____ _____    ______ ____
ROOT
ATOM      1  C   UNL     1      -0.018   9.340  23.450  0.00  0.00    +0.000 C 
ATOM      2  N   UNL     1      -0.234   9.723  22.071  0.00  0.00    +0.000 N 
ATOM      3  C   UNL     1       0.508   9.166  21.088  0.00  0.00    +0.000 A 
ATOM      4  N   UNL     1       1.077   7.962  21.173  0.00  0.00    +0.000 NA
ATOM      5  N   UNL     1       1.726   7.784  20.000  0.00  0.00    +0.000 N 
ATOM      6  C   UNL     1       2.465   6.670  19.585  0.00  0.00    +0.000 A 
ATOM      7  C   UNL     1       3.070   6.681  18.382  0.00  0.00    +0.000 A 
ATOM      8  C   UNL     1       2.896   7.923  17.584  0.00  0.00    +0.000 A 
ATOM      9  N   UNL     1       2.191   8.957  17.929  0.00  0.00    +0.000 NA
ATOM     10  C   UNL     1       1.588   8.894  19.157  0.00  0.00    +0.000 A 
ATOM     11  C   UNL     1       0.782   9.774  19.846  0.00  0.00    +0.000 A 
ATOM     12  C   UNL     1       3.880   5.553  17.834  0.00  0.00    +0.000 C 
ATOM     13  N   UNL     1       4.231   4.546  18.844  0.00  0.00    +0.000 NA
ATOM     14  C   UNL     1       3.072   4.225  19.689  0.00  0.00    +0.000 C 
ATOM     15  C   UNL     1       2.551   5.452  20.465  0.00  0.00    +0.000 C 
ATOM     16  H   UNL     1      -0.531  10.697  21.956  0.00  0.00    +0.000 HD
ATOM     17  H   UNL     1       4.976   4.919  19.434  0.00  0.00    +0.000 HD
ENDROOT
BRANCH  11  18
ATOM     18  S   UNL     1       0.277  11.313  19.305  0.00  0.00    +0.000 S 
ATOM     19  O   UNL     1       0.003  12.085  20.505  0.00  0.00    +0.000 OA
ATOM     20  O   UNL     1       1.289  11.745  18.363  0.00  0.00    +0.000 OA
BRANCH  18  21
ATOM     21  C   UNL     1      -1.255  11.075  18.442  0.00  0.00    +0.000 A 
ATOM     22  C   UNL     1      -1.349  10.082  17.459  0.00  0.00    +0.000 A 
ATOM     23  C   UNL     1      -2.575   9.846  16.833  0.00  0.00    +0.000 A 
ATOM     24  C   UNL     1      -3.700  10.591  17.192  0.00  0.00    +0.000 A 
ATOM     25  C   UNL     1      -3.605  11.571  18.181  0.00  0.00    +0.000 A 
ATOM     26  C   UNL     1      -2.384  11.811  18.814  0.00  0.00    +0.000 A 
ENDBRANCH  18  21
ENDBRANCH  11  18
TORSDOF 2
ENDMDL
MODEL 5
REMARK VINA RESULT:      -7.7      3.763      7.278
REMARK  Name = 
REMARK  3 active torsions:
REMARK  status: ('A' for Active; 'I' for Inactive)
REMARK    1  A    between atoms: C_1  and  N_2
REMARK    2  A    between atoms: C_11  and  S_12
REMARK    3  A    between atoms: S_12  and  C_15
REMARK                            x       y       z     vdW  Elec       q    Type
REMARK                         _______ _______ _______ _____ _____    ______ ____
ROOT
ATOM      1  C   UNL     1      -0.039   9.422  23.491  0.00  0.00    +0.000 C 
ATOM      2  N   UNL     1      -0.323   9.780  22.117  0.00  0.00    +0.000 N 
ATOM      3  C   UNL     1       0.410   9.251  21.113  0.00  0.00    +0.000 A 
ATOM      4  N   UNL     1       1.043   8.079  21.187  0.00  0.00    +0.000 NA
ATOM      5  N   UNL     1       1.658   7.922  19.992  0.00  0.00    +0.000 N 
ATOM      6  C   UNL     1       2.437   6.843  19.560  0.00  0.00    +0.000 A 
ATOM      7  C   UNL     1       2.997   6.873  18.336  0.00  0.00    +0.000 A 
ATOM      8  C   UNL     1       2.732   8.096  17.535  0.00  0.00    +0.000 A 
ATOM      9  N   UNL     1       1.989   9.097  17.897  0.00  0.00    +0.000 NA
ATOM     10  C   UNL     1       1.433   9.016  19.147  0.00  0.00    +0.000 A 
ATOM     11  C   UNL     1       0.609   9.860  19.857  0.00  0.00    +0.000 A 
ATOM     12  C   UNL     1       3.843   5.782  17.768  0.00  0.00    +0.000 C 
ATOM     13  N   UNL     1       4.281   4.803  18.772  0.00  0.00    +0.000 NA
ATOM     14  C   UNL     1       3.169   4.433  19.661  0.00  0.00    +0.000 C 
ATOM     15  C   UNL     1       2.616   5.639  20.446  0.00  0.00    +0.000 C 
ATOM     16  H   UNL     1      -0.673  10.737  22.006  0.00  0.00    +0.000 HD
ATOM     17  H   UNL     1       5.027   5.219  19.332  0.00  0.00    +0.000 HD
ENDROOT
BRANCH  11  18
ATOM     18  S   UNL     1       0.008  11.367  19.323  0.00  0.00    +0.000 S 
ATOM     19  O   UNL     1      -0.339  12.104  20.525  0.00  0.00    +0.000 OA
ATOM     20  O   UNL     1       1.003  11.878  18.403  0.00  0.00    +0.000 OA
BRANCH  18  21
ATOM     21  C   UNL     1      -1.488  11.033  18.430  0.00  0.00    +0.000 A 
ATOM     22  C   UNL     1      -2.652  11.748  18.737  0.00  0.00    +0.000 A 
ATOM     23  C   UNL     1      -3.810  11.538  17.984  0.00  0.00    +0.000 A 
ATOM     24  C   UNL     1      -3.801  10.626  16.927  0.00  0.00    +0.000 A 
ATOM     25  C   UNL     1      -2.636   9.925  16.615  0.00  0.00    +0.000 A 
ATOM     26  C   UNL     1      -1.474  10.132  17.361  0.00  0.00    +0.000 A 
ENDBRANCH  18  21
ENDBRANCH  11  18
TORSDOF 2
ENDMDL
MODEL 6
REMARK VINA RESULT:      -7.5      3.213      6.922
REMARK  Name = 
REMARK  3 active torsions:
REMARK  status: ('A' for Active; 'I' for Inactive)
REMARK    1  A    between atoms: C_1  and  N_2
REMARK    2  A    between atoms: C_11  and  S_12
REMARK    3  A    between atoms: S_12  and  C_15
REMARK                            x       y       z     vdW  Elec       q    Type
REMARK                         _______ _______ _______ _____ _____    ______ ____
ROOT
ATOM      1  C   UNL     1       0.108   9.322  23.116  0.00  0.00    +0.000 C 
ATOM      2  N   UNL     1       0.078   9.515  21.681  0.00  0.00    +0.000 N 
ATOM      3  C   UNL     1       0.818   8.721  20.875  0.00  0.00    +0.000 A 
ATOM      4  N   UNL     1       1.194   7.480  21.190  0.00  0.00    +0.000 NA
ATOM      5  N   UNL     1       1.916   7.041  20.134  0.00  0.00    +0.000 N 
ATOM      6  C   UNL     1       2.519   5.789  19.964  0.00  0.00    +0.000 A 
ATOM      7  C   UNL     1       3.227   5.537  18.847  0.00  0.00    +0.000 A 
ATOM      8  C   UNL     1       3.310   6.653  17.870  0.00  0.00    +0.000 A 
ATOM      9  N   UNL     1       2.737   7.812  17.986  0.00  0.00    +0.000 NA
ATOM     10  C   UNL     1       2.019   8.017  19.135  0.00  0.00    +0.000 A 
ATOM     11  C   UNL     1       1.291   9.090  19.600  0.00  0.00    +0.000 A 
ATOM     12  C   UNL     1       3.910   4.242  18.555  0.00  0.00    +0.000 C 
ATOM     13  N   UNL     1       4.015   3.363  19.728  0.00  0.00    +0.000 NA
ATOM     14  C   UNL     1       2.748   3.331  20.473  0.00  0.00    +0.000 C 
ATOM     15  C   UNL     1       2.344   4.720  21.008  0.00  0.00    +0.000 C 
ATOM     16  H   UNL     1      -0.061  10.490  21.400  0.00  0.00    +0.000 HD
ATOM     17  H   UNL     1       4.750   3.721  20.340  0.00  0.00    +0.000 HD
ENDROOT
BRANCH  11  18
ATOM     18  S   UNL     1       1.069  10.581  18.798  0.00  0.00    +0.000 S 
ATOM     19  O   UNL     1       1.344  11.609  19.786  0.00  0.00    +0.000 OA
ATOM     20  O   UNL     1       1.857  10.491  17.585  0.00  0.00    +0.000 OA
BRANCH  18  21
ATOM     21  C   UNL     1      -0.649  10.678  18.365  0.00  0.00    +0.000 A 
ATOM     22  C   UNL     1      -1.455  11.663  18.947  0.00  0.00    +0.000 A 
ATOM     23  C   UNL     1      -2.789  11.787  18.551  0.00  0.00    +0.000 A 
ATOM     24  C   UNL     1      -3.310  10.937  17.573  0.00  0.00    +0.000 A 
ATOM     25  C   UNL     1      -2.500   9.965  16.986  0.00  0.00    +0.000 A 
ATOM     26  C   UNL     1      -1.165   9.837  17.375  0.00  0.00    +0.000 A 
ENDBRANCH  18  21
ENDBRANCH  11  18
TORSDOF 2
ENDMDL
MODEL 7
REMARK VINA RESULT:      -7.3      0.985      1.441
REMARK  Name = 
REMARK  3 active torsions:
REMARK  status: ('A' for Active; 'I' for Inactive)
REMARK    1  A    between atoms: C_1  and  N_2
REMARK    2  A    between atoms: C_11  and  S_12
REMARK    3  A    between atoms: S_12  and  C_15
REMARK                            x       y       z     vdW  Elec       q    Type
REMARK                         _______ _______ _______ _____ _____    ______ ____
ROOT
ATOM      1  C   UNL     1       1.976   3.804  21.123  0.00  0.00    +0.000 C 
ATOM      2  N   UNL     1       2.847   4.605  20.288  0.00  0.00    +0.000 N 
ATOM      3  C   UNL     1       2.500   5.871  19.964  0.00  0.00    +0.000 A 
ATOM      4  N   UNL     1       1.698   6.638  20.705  0.00  0.00    +0.000 NA
ATOM      5  N   UNL     1       1.600   7.810  20.037  0.00  0.00    +0.000 N 
ATOM      6  C   UNL     1       0.886   8.955  20.409  0.00  0.00    +0.000 A 
ATOM      7  C   UNL     1       0.881  10.030  19.598  0.00  0.00    +0.000 A 
ATOM      8  C   UNL     1       1.654   9.890  18.337  0.00  0.00    +0.000 A 
ATOM      9  N   UNL     1       2.350   8.854  17.980  0.00  0.00    +0.000 NA
ATOM     10  C   UNL     1       2.331   7.790  18.844  0.00  0.00    +0.000 A 
ATOM     11  C   UNL     1       2.933   6.551  18.808  0.00  0.00    +0.000 A 
ATOM     12  C   UNL     1       0.160  11.305  19.890  0.00  0.00    +0.000 C 
ATOM     13  N   UNL     1      -0.808  11.186  20.990  0.00  0.00    +0.000 NA
ATOM     14  C   UNL     1      -0.231  10.437  22.116  0.00  0.00    +0.000 C 
ATOM     15  C   UNL     1       0.160   8.997  21.727  0.00  0.00    +0.000 C 
ATOM     16  H   UNL     1       3.372   4.059  19.598  0.00  0.00    +0.000 HD
ATOM     17  H   UNL     1      -1.631  10.688  20.649  0.00  0.00    +0.000 HD
ENDROOT
BRANCH  11  18
ATOM     18  S   UNL     1       3.949   5.959  17.570  0.00  0.00    +0.000 S 
ATOM     19  O   UNL     1       3.712   4.527  17.512  0.00  0.00    +0.000 OA
ATOM     20  O   UNL     1       3.689   6.799  16.418  0.00  0.00    +0.000 OA
BRANCH  18  21
ATOM     21  C   UNL     1       5.619   6.220  18.110  0.00  0.00    +0.000 A 
ATOM     22  C   UNL     1       6.148   5.426  19.135  0.00  0.00    +0.000 A 
ATOM     23  C   UNL     1       7.484   5.581  19.508  0.00  0.00    +0.000 A 
ATOM     24  C   UNL     1       8.289   6.519  18.857  0.00  0.00    +0.000 A 
ATOM     25  C   UNL     1       7.762   7.300  17.828  0.00  0.00    +0.000 A 
ATOM     26  C   UNL     1       6.427   7.148  17.447  0.00  0.00    +0.000 A 
ENDBRANCH  18  21
ENDBRANCH  11  18
TORSDOF 2
ENDMDL
MODEL 8
REMARK VINA RESULT:      -7.2      2.908      5.291
REMARK  Name = 
REMARK  3 active torsions:
REMARK  status: ('A' for Active; 'I' for Inactive)
REMARK    1  A    between atoms: C_1  and  N_2
REMARK    2  A    between atoms: C_11  and  S_12
REMARK    3  A    between atoms: S_12  and  C_15
REMARK                            x       y       z     vdW  Elec       q    Type
REMARK                         _______ _______ _______ _____ _____    ______ ____
ROOT
ATOM      1  C   UNL     1       2.800   8.736  17.547  0.00  0.00    +0.000 C 
ATOM      2  N   UNL     1       3.737   7.714  17.128  0.00  0.00    +0.000 N 
ATOM      3  C   UNL     1       3.869   6.578  17.849  0.00  0.00    +0.000 A 
ATOM      4  N   UNL     1       2.907   6.068  18.621  0.00  0.00    +0.000 NA
ATOM      5  N   UNL     1       3.436   4.949  19.166  0.00  0.00    +0.000 N 
ATOM      6  C   UNL     1       2.821   4.042  20.038  0.00  0.00    +0.000 A 
ATOM      7  C   UNL     1       3.518   2.989  20.505  0.00  0.00    +0.000 A 
ATOM      8  C   UNL     1       4.926   2.891  20.040  0.00  0.00    +0.000 A 
ATOM      9  N   UNL     1       5.513   3.697  19.209  0.00  0.00    +0.000 NA
ATOM     10  C   UNL     1       4.759   4.747  18.755  0.00  0.00    +0.000 A 
ATOM     11  C   UNL     1       5.031   5.781  17.886  0.00  0.00    +0.000 A 
ATOM     12  C   UNL     1       2.968   1.958  21.434  0.00  0.00    +0.000 C 
ATOM     13  N   UNL     1       1.696   2.354  22.054  0.00  0.00    +0.000 NA
ATOM     14  C   UNL     1       0.792   2.949  21.059  0.00  0.00    +0.000 C 
ATOM     15  C   UNL     1       1.377   4.225  20.419  0.00  0.00    +0.000 C 
ATOM     16  H   UNL     1       4.569   8.085  16.659  0.00  0.00    +0.000 HD
ATOM     17  H   UNL     1       1.887   3.045  22.781  0.00  0.00    +0.000 HD
ENDROOT
BRANCH  11  18
ATOM     18  S   UNL     1       6.507   6.054  17.074  0.00  0.00    +0.000 S 
ATOM     19  O   UNL     1       6.534   7.473  16.763  0.00  0.00    +0.000 OA
ATOM     20  O   UNL     1       7.529   5.463  17.914  0.00  0.00    +0.000 OA
BRANCH  18  21
ATOM     21  C   UNL     1       6.425   5.156  15.545  0.00  0.00    +0.000 A 
ATOM     22  C   UNL     1       5.290   4.391  15.253  0.00  0.00    +0.000 A 
ATOM     23  C   UNL     1       5.193   3.745  14.018  0.00  0.00    +0.000 A 
ATOM     24  C   UNL     1       6.221   3.870  13.081  0.00  0.00    +0.000 A 
ATOM     25  C   UNL     1       7.344   4.644  13.371  0.00  0.00    +0.000 A 
ATOM     26  C   UNL     1       7.446   5.295  14.602  0.00  0.00    +0.000 A 
ENDBRANCH  18  21
ENDBRANCH  11  18
TORSDOF 2
ENDMDL
MODEL 9
REMARK VINA RESULT:      -7.1      1.683      2.324
REMARK  Name = 
REMARK  3 active torsions:
REMARK  status: ('A' for Active; 'I' for Inactive)
REMARK    1  A    between atoms: C_1  and  N_2
REMARK    2  A    between atoms: C_11  and  S_12
REMARK    3  A    between atoms: S_12  and  C_15
REMARK                            x       y       z     vdW  Elec       q    Type
REMARK                         _______ _______ _______ _____ _____    ______ ____
ROOT
ATOM      1  C   UNL     1       1.541   3.223  21.540  0.00  0.00    +0.000 C 
ATOM      2  N   UNL     1       2.827   3.703  21.078  0.00  0.00    +0.000 N 
ATOM      3  C   UNL     1       2.902   4.821  20.322  0.00  0.00    +0.000 A 
ATOM      4  N   UNL     1       1.999   5.804  20.351  0.00  0.00    +0.000 NA
ATOM      5  N   UNL     1       2.432   6.720  19.455  0.00  0.00    +0.000 N 
ATOM      6  C   UNL     1       1.844   7.947  19.127  0.00  0.00    +0.000 A 
ATOM      7  C   UNL     1       2.407   8.724  18.182  0.00  0.00    +0.000 A 
ATOM      8  C   UNL     1       3.637   8.182  17.550  0.00  0.00    +0.000 A 
ATOM      9  N   UNL     1       4.222   7.064  17.856  0.00  0.00    +0.000 NA
ATOM     10  C   UNL     1       3.616   6.313  18.829  0.00  0.00    +0.000 A 
ATOM     11  C   UNL     1       3.934   5.103  19.405  0.00  0.00    +0.000 A 
ATOM     12  C   UNL     1       1.873  10.050  17.751  0.00  0.00    +0.000 C 
ATOM     13  N   UNL     1       0.502  10.304  18.217  0.00  0.00    +0.000 NA
ATOM     14  C   UNL     1       0.348   9.914  19.626  0.00  0.00    +0.000 C 
ATOM     15  C   UNL     1       0.611   8.411  19.854  0.00  0.00    +0.000 C 
ATOM     16  H   UNL     1       3.505   2.956  20.900  0.00  0.00    +0.000 HD
ATOM     17  H   UNL     1      -0.143   9.753  17.649  0.00  0.00    +0.000 HD
ENDROOT
BRANCH  11  18
ATOM     18  S   UNL     1       5.285   4.130  19.026  0.00  0.00    +0.000 S 
ATOM     19  O   UNL     1       6.390   4.663  19.803  0.00  0.00    +0.000 OA
ATOM     20  O   UNL     1       4.842   2.762  19.212  0.00  0.00    +0.000 OA
BRANCH  18  21
ATOM     21  C   UNL     1       5.640   4.394  17.308  0.00  0.00    +0.000 A 
ATOM     22  C   UNL     1       6.881   4.922  16.931  0.00  0.00    +0.000 A 
ATOM     23  C   UNL     1       7.188   5.060  15.576  0.00  0.00    +0.000 A 
ATOM     24  C   UNL     1       6.265   4.666  14.605  0.00  0.00    +0.000 A 
ATOM     25  C   UNL     1       5.035   4.129  14.984  0.00  0.00    +0.000 A 
ATOM     26  C   UNL     1       4.722   3.985  16.337  0.00  0.00    +0.000 A 
ENDBRANCH  18  21
ENDBRANCH  11  18
TORSDOF 2
ENDMDL
