MODEL 1
REMARK VINA RESULT:      -6.8      0.000      0.000
REMARK  Name = 
REMARK  8 active torsions:
REMARK  status: ('A' for Active; 'I' for Inactive)
REMARK    1  A    between atoms: C_1  and  O_2
REMARK    2  A    between atoms: O_2  and  C_3
REMARK    3  A    between atoms: C_9  and  C_10
REMARK    4  A    between atoms: C_11  and  O_12
REMARK    5  A    between atoms: C_14  and  C_15
REMARK    6  A    between atoms: C_14  and  C_16
REMARK    7  A    between atoms: C_23  and  C_24
REMARK    8  A    between atoms: C_23  and  C_25
REMARK                            x       y       z     vdW  Elec       q    Type
REMARK                         _______ _______ _______ _____ _____    ______ ____
ROOT
ATOM      1  C   UNL     1       1.654   8.520  19.466  0.00  0.00    +0.000 A 
ATOM      2  C   UNL     1       1.621   7.940  20.736  0.00  0.00    +0.000 A 
ATOM      3  C   UNL     1       0.813   8.489  21.735  0.00  0.00    +0.000 A 
ATOM      4  C   UNL     1       0.045   9.628  21.475  0.00  0.00    +0.000 A 
ATOM      5  C   UNL     1       0.077  10.221  20.211  0.00  0.00    +0.000 A 
ATOM      6  C   UNL     1       0.880   9.651  19.208  0.00  0.00    +0.000 A 
ATOM      7  C   UNL     1      -0.719  11.484  19.944  0.00  0.00    +0.000 C 
ATOM      8  C   UNL     1      -1.572  11.870  21.115  0.00  0.00    +0.000 C 
ATOM      9  C   UNL     1      -1.493  11.248  22.305  0.00  0.00    +0.000 C 
ATOM     10  C   UNL     1      -2.215  11.730  23.533  0.00  0.00    +0.000 C 
ATOM     11  C   UNL     1      -2.595  13.229  23.466  0.00  0.00    +0.000 C 
ATOM     12  C   UNL     1      -1.347  14.127  23.609  0.00  0.00    +0.000 C 
ATOM     13  C   UNL     1      -3.547  13.568  24.626  0.00  0.00    +0.000 C 
ATOM     14  C   UNL     1      -3.303  13.504  22.128  0.00  0.00    +0.000 C 
ATOM     15  C   UNL     1      -2.525  12.997  20.932  0.00  0.00    +0.000 C 
ATOM     16  O   UNL     1      -2.723  13.448  19.801  0.00  0.00    +0.000 OA
ATOM     17  O   UNL     1      -0.692  10.134  22.523  0.00  0.00    +0.000 OA
ENDROOT
BRANCH   7  18
ATOM     18  C   UNL     1       0.186  12.633  19.499  0.00  0.00    +0.000 C 
ATOM     19  C   UNL     1       0.068  13.263  18.317  0.00  0.00    +0.000 C 
ATOM     20  C   UNL     1       0.979  14.325  17.790  0.00  0.00    +0.000 C 
ATOM     21  C   UNL     1       2.058  14.884  18.742  0.00  0.00    +0.000 C 
ATOM     22  C   UNL     1       1.652  16.304  19.193  0.00  0.00    +0.000 C 
ATOM     23  C   UNL     1       3.380  15.000  17.953  0.00  0.00    +0.000 C 
ATOM     24  C   UNL     1       2.334  14.023  19.984  0.00  0.00    +0.000 C 
ATOM     25  C   UNL     1       1.271  13.053  20.427  0.00  0.00    +0.000 C 
ATOM     26  O   UNL     1       1.341  12.583  21.564  0.00  0.00    +0.000 OA
BRANCH  19  27
ATOM     27  O   UNL     1      -0.961  12.964  17.439  0.00  0.00    +0.000 OA
ATOM     28  H   UNL     1      -1.016  13.689  16.782  0.00  0.00    +0.000 HD
ENDBRANCH  19  27
ENDBRANCH   7  18
BRANCH   1  30
ATOM     29  C   UNL     1       2.637   6.709  18.298  0.00  0.00    +0.000 C 
ATOM     30  O   UNL     1       2.430   8.109  18.417  0.00  0.00    +0.000 OA
ENDBRANCH   1  30
TORSDOF 3
ENDMDL
MODEL 2
REMARK VINA RESULT:      -6.6      2.716      6.069
REMARK  Name = 
REMARK  8 active torsions:
REMARK  status: ('A' for Active; 'I' for Inactive)
REMARK    1  A    between atoms: C_1  and  O_2
REMARK    2  A    between atoms: O_2  and  C_3
REMARK    3  A    between atoms: C_9  and  C_10
REMARK    4  A    between atoms: C_11  and  O_12
REMARK    5  A    between atoms: C_14  and  C_15
REMARK    6  A    between atoms: C_14  and  C_16
REMARK    7  A    between atoms: C_23  and  C_24
REMARK    8  A    between atoms: C_23  and  C_25
REMARK                            x       y       z     vdW  Elec       q    Type
REMARK                         _______ _______ _______ _____ _____    ______ ____
ROOT
ATOM      1  C   UNL     1      -5.537  12.635  18.223  0.00  0.00    +0.000 A 
ATOM      2  C   UNL     1      -5.362  12.131  16.932  0.00  0.00    +0.000 A 
ATOM      3  C   UNL     1      -4.222  11.386  16.619  0.00  0.00    +0.000 A 
ATOM      4  C   UNL     1      -3.244  11.152  17.589  0.00  0.00    +0.000 A 
ATOM      5  C   UNL     1      -3.404  11.658  18.881  0.00  0.00    +0.000 A 
ATOM      6  C   UNL     1      -4.562  12.392  19.191  0.00  0.00    +0.000 A 
ATOM      7  C   UNL     1      -2.320  11.444  19.921  0.00  0.00    +0.000 C 
ATOM      8  C   UNL     1      -1.218  10.564  19.412  0.00  0.00    +0.000 C 
ATOM      9  C   UNL     1      -1.144  10.164  18.130  0.00  0.00    +0.000 C 
ATOM     10  C   UNL     1       0.039   9.425  17.568  0.00  0.00    +0.000 C 
ATOM     11  C   UNL     1       1.333   9.633  18.390  0.00  0.00    +0.000 C 
ATOM     12  C   UNL     1       1.889  11.061  18.203  0.00  0.00    +0.000 C 
ATOM     13  C   UNL     1       2.412   8.647  17.906  0.00  0.00    +0.000 C 
ATOM     14  C   UNL     1       1.029   9.366  19.874  0.00  0.00    +0.000 C 
ATOM     15  C   UNL     1      -0.171  10.141  20.380  0.00  0.00    +0.000 C 
ATOM     16  O   UNL     1      -0.332  10.359  21.583  0.00  0.00    +0.000 OA
ATOM     17  O   UNL     1      -2.130  10.446  17.193  0.00  0.00    +0.000 OA
ENDROOT
BRANCH   7  18
ATOM     18  C   UNL     1      -1.783  12.773  20.452  0.00  0.00    +0.000 C 
ATOM     19  C   UNL     1      -1.082  13.647  19.709  0.00  0.00    +0.000 C 
ATOM     20  C   UNL     1      -0.453  14.912  20.196  0.00  0.00    +0.000 C 
ATOM     21  C   UNL     1      -0.767  15.362  21.639  0.00  0.00    +0.000 C 
ATOM     22  C   UNL     1      -1.730  16.569  21.597  0.00  0.00    +0.000 C 
ATOM     23  C   UNL     1       0.551  15.833  22.292  0.00  0.00    +0.000 C 
ATOM     24  C   UNL     1      -1.367  14.272  22.540  0.00  0.00    +0.000 C 
ATOM     25  C   UNL     1      -2.036  13.096  21.882  0.00  0.00    +0.000 C 
ATOM     26  O   UNL     1      -2.771  12.381  22.566  0.00  0.00    +0.000 OA
BRANCH  19  27
ATOM     27  O   UNL     1      -0.869  13.436  18.356  0.00  0.00    +0.000 OA
ATOM     28  H   UNL     1      -0.477  14.253  17.982  0.00  0.00    +0.000 HD
ENDBRANCH  19  27
ENDBRANCH   7  18
BRANCH   1  30
ATOM     29  C   UNL     1      -6.911  14.523  17.826  0.00  0.00    +0.000 C 
ATOM     30  O   UNL     1      -6.579  13.411  18.647  0.00  0.00    +0.000 OA
ENDBRANCH   1  30
TORSDOF 3
ENDMDL
MODEL 3
REMARK VINA RESULT:      -6.6      0.965      1.065
REMARK  Name = 
REMARK  8 active torsions:
REMARK  status: ('A' for Active; 'I' for Inactive)
REMARK    1  A    between atoms: C_1  and  O_2
REMARK    2  A    between atoms: O_2  and  C_3
REMARK    3  A    between atoms: C_9  and  C_10
REMARK    4  A    between atoms: C_11  and  O_12
REMARK    5  A    between atoms: C_14  and  C_15
REMARK    6  A    between atoms: C_14  and  C_16
REMARK    7  A    between atoms: C_23  and  C_24
REMARK    8  A    between atoms: C_23  and  C_25
REMARK                            x       y       z     vdW  Elec       q    Type
REMARK                         _______ _______ _______ _____ _____    ______ ____
ROOT
ATOM      1  C   UNL     1       1.118   8.878  20.453  0.00  0.00    +0.000 A 
ATOM      2  C   UNL     1       1.078   8.512  21.800  0.00  0.00    +0.000 A 
ATOM      3  C   UNL     1       0.355   9.283  22.714  0.00  0.00    +0.000 A 
ATOM      4  C   UNL     1      -0.321  10.431  22.290  0.00  0.00    +0.000 A 
ATOM      5  C   UNL     1      -0.281  10.811  20.947  0.00  0.00    +0.000 A 
ATOM      6  C   UNL     1       0.435  10.020  20.032  0.00  0.00    +0.000 A 
ATOM      7  C   UNL     1      -0.975  12.082  20.496  0.00  0.00    +0.000 C 
ATOM      8  C   UNL     1      -1.751  12.724  21.607  0.00  0.00    +0.000 C 
ATOM      9  C   UNL     1      -1.685  12.293  22.879  0.00  0.00    +0.000 C 
ATOM     10  C   UNL     1      -2.321  13.027  24.027  0.00  0.00    +0.000 C 
ATOM     11  C   UNL     1      -2.574  14.524  23.729  0.00  0.00    +0.000 C 
ATOM     12  C   UNL     1      -1.249  15.318  23.701  0.00  0.00    +0.000 C 
ATOM     13  C   UNL     1      -3.453  15.127  24.838  0.00  0.00    +0.000 C 
ATOM     14  C   UNL     1      -3.301  14.647  22.379  0.00  0.00    +0.000 C 
ATOM     15  C   UNL     1      -2.610  13.889  21.264  0.00  0.00    +0.000 C 
ATOM     16  O   UNL     1      -2.806  14.172  20.079  0.00  0.00    +0.000 OA
ATOM     17  O   UNL     1      -0.976  11.161  23.257  0.00  0.00    +0.000 OA
ENDROOT
BRANCH   7  18
ATOM     18  C   UNL     1       0.009  13.061  19.854  0.00  0.00    +0.000 C 
ATOM     19  C   UNL     1      -0.025  13.414  18.558  0.00  0.00    +0.000 C 
ATOM     20  C   UNL     1       0.963  14.288  17.856  0.00  0.00    +0.000 C 
ATOM     21  C   UNL     1       2.032  14.997  18.715  0.00  0.00    +0.000 C 
ATOM     22  C   UNL     1       1.688  16.500  18.817  0.00  0.00    +0.000 C 
ATOM     23  C   UNL     1       3.390  14.874  17.990  0.00  0.00    +0.000 C 
ATOM     24  C   UNL     1       2.209  14.426  20.130  0.00  0.00    +0.000 C 
ATOM     25  C   UNL     1       1.078  13.629  20.720  0.00  0.00    +0.000 C 
ATOM     26  O   UNL     1       1.076  13.423  21.936  0.00  0.00    +0.000 OA
BRANCH  19  27
ATOM     27  O   UNL     1      -1.033  12.971  17.715  0.00  0.00    +0.000 OA
ATOM     28  H   UNL     1      -1.889  13.113  18.171  0.00  0.00    +0.000 HD
ENDBRANCH  19  27
ENDBRANCH   7  18
BRANCH   1  30
ATOM     29  C   UNL     1       1.830   8.867  18.194  0.00  0.00    +0.000 C 
ATOM     30  O   UNL     1       1.820   8.239  19.468  0.00  0.00    +0.000 OA
ENDBRANCH   1  30
TORSDOF 3
ENDMDL
MODEL 4
REMARK VINA RESULT:      -6.4      2.393      5.876
REMARK  Name = 
REMARK  8 active torsions:
REMARK  status: ('A' for Active; 'I' for Inactive)
REMARK    1  A    between atoms: C_1  and  O_2
REMARK    2  A    between atoms: O_2  and  C_3
REMARK    3  A    between atoms: C_9  and  C_10
REMARK    4  A    between atoms: C_11  and  O_12
REMARK    5  A    between atoms: C_14  and  C_15
REMARK    6  A    between atoms: C_14  and  C_16
REMARK    7  A    between atoms: C_23  and  C_24
REMARK    8  A    between atoms: C_23  and  C_25
REMARK                            x       y       z     vdW  Elec       q    Type
REMARK                         _______ _______ _______ _____ _____    ______ ____
ROOT
ATOM      1  C   UNL     1      -5.448  13.144  19.485  0.00  0.00    +0.000 A 
ATOM      2  C   UNL     1      -5.549  12.522  18.239  0.00  0.00    +0.000 A 
ATOM      3  C   UNL     1      -4.506  11.718  17.771  0.00  0.00    +0.000 A 
ATOM      4  C   UNL     1      -3.351  11.542  18.539  0.00  0.00    +0.000 A 
ATOM      5  C   UNL     1      -3.236  12.166  19.783  0.00  0.00    +0.000 A 
ATOM      6  C   UNL     1      -4.297  12.959  20.253  0.00  0.00    +0.000 A 
ATOM      7  C   UNL     1      -1.964  12.013  20.595  0.00  0.00    +0.000 C 
ATOM      8  C   UNL     1      -1.000  11.058  19.956  0.00  0.00    +0.000 C 
ATOM      9  C   UNL     1      -1.197  10.542  18.730  0.00  0.00    +0.000 C 
ATOM     10  C   UNL     1      -0.163   9.721  18.010  0.00  0.00    +0.000 C 
ATOM     11  C   UNL     1       1.275   9.962  18.527  0.00  0.00    +0.000 C 
ATOM     12  C   UNL     1       1.797  11.350  18.098  0.00  0.00    +0.000 C 
ATOM     13  C   UNL     1       2.219   8.905  17.928  0.00  0.00    +0.000 C 
ATOM     14  C   UNL     1       1.280   9.838  20.061  0.00  0.00    +0.000 C 
ATOM     15  C   UNL     1       0.219  10.691  20.726  0.00  0.00    +0.000 C 
ATOM     16  O   UNL     1       0.312  11.021  21.910  0.00  0.00    +0.000 OA
ATOM     17  O   UNL     1      -2.351  10.769  17.991  0.00  0.00    +0.000 OA
ENDROOT
BRANCH   7  18
ATOM     18  C   UNL     1      -1.314  13.367  20.878  0.00  0.00    +0.000 C 
ATOM     19  C   UNL     1      -0.782  14.155  19.927  0.00  0.00    +0.000 C 
ATOM     20  C   UNL     1      -0.052  15.439  20.154  0.00  0.00    +0.000 C 
ATOM     21  C   UNL     1      -0.044  16.019  21.585  0.00  0.00    +0.000 C 
ATOM     22  C   UNL     1      -0.983  17.244  21.643  0.00  0.00    +0.000 C 
ATOM     23  C   UNL     1       1.387  16.508  21.897  0.00  0.00    +0.000 C 
ATOM     24  C   UNL     1      -0.445  15.027  22.687  0.00  0.00    +0.000 C 
ATOM     25  C   UNL     1      -1.251  13.817  22.295  0.00  0.00    +0.000 C 
ATOM     26  O   UNL     1      -1.827  13.184  23.181  0.00  0.00    +0.000 OA
BRANCH  19  27
ATOM     27  O   UNL     1      -0.866  13.823  18.585  0.00  0.00    +0.000 OA
ATOM     28  H   UNL     1      -0.940  12.847  18.521  0.00  0.00    +0.000 HD
ENDBRANCH  19  27
ENDBRANCH   7  18
BRANCH   1  30
ATOM     29  C   UNL     1      -6.831  13.649  21.341  0.00  0.00    +0.000 C 
ATOM     30  O   UNL     1      -6.372  13.986  20.039  0.00  0.00    +0.000 OA
ENDBRANCH   1  30
TORSDOF 3
ENDMDL
MODEL 5
REMARK VINA RESULT:      -6.4      4.383      8.548
REMARK  Name = 
REMARK  8 active torsions:
REMARK  status: ('A' for Active; 'I' for Inactive)
REMARK    1  A    between atoms: C_1  and  O_2
REMARK    2  A    between atoms: O_2  and  C_3
REMARK    3  A    between atoms: C_9  and  C_10
REMARK    4  A    between atoms: C_11  and  O_12
REMARK    5  A    between atoms: C_14  and  C_15
REMARK    6  A    between atoms: C_14  and  C_16
REMARK    7  A    between atoms: C_23  and  C_24
REMARK    8  A    between atoms: C_23  and  C_25
REMARK                            x       y       z     vdW  Elec       q    Type
REMARK                         _______ _______ _______ _____ _____    ______ ____
ROOT
ATOM      1  C   UNL     1       7.018   7.645  17.846  0.00  0.00    +0.000 A 
ATOM      2  C   UNL     1       7.806   6.623  18.378  0.00  0.00    +0.000 A 
ATOM      3  C   UNL     1       7.232   5.390  18.699  0.00  0.00    +0.000 A 
ATOM      4  C   UNL     1       5.865   5.175  18.502  0.00  0.00    +0.000 A 
ATOM      5  C   UNL     1       5.065   6.193  17.978  0.00  0.00    +0.000 A 
ATOM      6  C   UNL     1       5.655   7.425  17.643  0.00  0.00    +0.000 A 
ATOM      7  C   UNL     1       3.573   5.977  17.809  0.00  0.00    +0.000 C 
ATOM      8  C   UNL     1       3.168   4.571  18.140  0.00  0.00    +0.000 C 
ATOM      9  C   UNL     1       4.019   3.679  18.678  0.00  0.00    +0.000 C 
ATOM     10  C   UNL     1       3.586   2.326  19.171  0.00  0.00    +0.000 C 
ATOM     11  C   UNL     1       2.076   2.252  19.500  0.00  0.00    +0.000 C 
ATOM     12  C   UNL     1       1.747   3.041  20.786  0.00  0.00    +0.000 C 
ATOM     13  C   UNL     1       1.674   0.786  19.738  0.00  0.00    +0.000 C 
ATOM     14  C   UNL     1       1.278   2.812  18.309  0.00  0.00    +0.000 C 
ATOM     15  C   UNL     1       1.761   4.177  17.864  0.00  0.00    +0.000 C 
ATOM     16  O   UNL     1       1.034   4.932  17.213  0.00  0.00    +0.000 OA
ATOM     17  O   UNL     1       5.366   3.949  18.881  0.00  0.00    +0.000 OA
ENDROOT
BRANCH   7  18
ATOM     18  C   UNL     1       2.764   7.001  18.605  0.00  0.00    +0.000 C 
ATOM     19  C   UNL     1       2.453   6.861  19.905  0.00  0.00    +0.000 C 
ATOM     20  C   UNL     1       1.589   7.778  20.708  0.00  0.00    +0.000 C 
ATOM     21  C   UNL     1       1.142   9.103  20.052  0.00  0.00    +0.000 C 
ATOM     22  C   UNL     1       1.929  10.273  20.683  0.00  0.00    +0.000 C 
ATOM     23  C   UNL     1      -0.353   9.315  20.370  0.00  0.00    +0.000 C 
ATOM     24  C   UNL     1       1.304   9.155  18.525  0.00  0.00    +0.000 C 
ATOM     25  C   UNL     1       2.280   8.208  17.881  0.00  0.00    +0.000 C 
ATOM     26  O   UNL     1       2.640   8.432  16.724  0.00  0.00    +0.000 OA
BRANCH  19  27
ATOM     27  O   UNL     1       2.929   5.794  20.650  0.00  0.00    +0.000 OA
ATOM     28  H   UNL     1       2.316   5.657  21.403  0.00  0.00    +0.000 HD
ENDBRANCH  19  27
ENDBRANCH   7  18
BRANCH   1  30
ATOM     29  C   UNL     1       8.534   9.409  18.291  0.00  0.00    +0.000 C 
ATOM     30  O   UNL     1       7.444   8.905  17.532  0.00  0.00    +0.000 OA
ENDBRANCH   1  30
TORSDOF 3
ENDMDL
MODEL 6
REMARK VINA RESULT:      -6.3      1.134      2.086
REMARK  Name = 
REMARK  8 active torsions:
REMARK  status: ('A' for Active; 'I' for Inactive)
REMARK    1  A    between atoms: C_1  and  O_2
REMARK    2  A    between atoms: O_2  and  C_3
REMARK    3  A    between atoms: C_9  and  C_10
REMARK    4  A    between atoms: C_11  and  O_12
REMARK    5  A    between atoms: C_14  and  C_15
REMARK    6  A    between atoms: C_14  and  C_16
REMARK    7  A    between atoms: C_23  and  C_24
REMARK    8  A    between atoms: C_23  and  C_25
REMARK                            x       y       z     vdW  Elec       q    Type
REMARK                         _______ _______ _______ _____ _____    ______ ____
ROOT
ATOM      1  C   UNL     1       1.040   9.119  20.312  0.00  0.00    +0.000 A 
ATOM      2  C   UNL     1       0.967   8.648  21.625  0.00  0.00    +0.000 A 
ATOM      3  C   UNL     1       0.267   9.374  22.592  0.00  0.00    +0.000 A 
ATOM      4  C   UNL     1      -0.352  10.582  22.256  0.00  0.00    +0.000 A 
ATOM      5  C   UNL     1      -0.278  11.067  20.949  0.00  0.00    +0.000 A 
ATOM      6  C   UNL     1       0.414  10.320  19.979  0.00  0.00    +0.000 A 
ATOM      7  C   UNL     1      -0.910  12.400  20.596  0.00  0.00    +0.000 C 
ATOM      8  C   UNL     1      -1.671  12.984  21.748  0.00  0.00    +0.000 C 
ATOM      9  C   UNL     1      -1.641  12.450  22.982  0.00  0.00    +0.000 C 
ATOM     10  C   UNL     1      -2.258  13.116  24.180  0.00  0.00    +0.000 C 
ATOM     11  C   UNL     1      -2.440  14.642  24.002  0.00  0.00    +0.000 C 
ATOM     12  C   UNL     1      -1.082  15.375  24.051  0.00  0.00    +0.000 C 
ATOM     13  C   UNL     1      -3.307  15.193  25.148  0.00  0.00    +0.000 C 
ATOM     14  C   UNL     1      -3.144  14.906  22.660  0.00  0.00    +0.000 C 
ATOM     15  C   UNL     1      -2.473  14.211  21.493  0.00  0.00    +0.000 C 
ATOM     16  O   UNL     1      -2.642  14.596  20.334  0.00  0.00    +0.000 OA
ATOM     17  O   UNL     1      -0.986  11.259  23.274  0.00  0.00    +0.000 OA
ENDROOT
BRANCH   7  18
ATOM     18  C   UNL     1       0.125  13.382  20.045  0.00  0.00    +0.000 C 
ATOM     19  C   UNL     1       1.079  13.961  20.794  0.00  0.00    +0.000 C 
ATOM     20  C   UNL     1       2.053  14.996  20.333  0.00  0.00    +0.000 C 
ATOM     21  C   UNL     1       2.099  15.319  18.824  0.00  0.00    +0.000 C 
ATOM     22  C   UNL     1       3.380  14.710  18.212  0.00  0.00    +0.000 C 
ATOM     23  C   UNL     1       2.183  16.853  18.664  0.00  0.00    +0.000 C 
ATOM     24  C   UNL     1       0.881  14.836  18.022  0.00  0.00    +0.000 C 
ATOM     25  C   UNL     1       0.046  13.725  18.599  0.00  0.00    +0.000 C 
ATOM     26  O   UNL     1      -0.736  13.131  17.855  0.00  0.00    +0.000 OA
BRANCH  19  27
ATOM     27  O   UNL     1       1.245  13.634  22.130  0.00  0.00    +0.000 OA
ATOM     28  H   UNL     1       1.177  14.461  22.653  0.00  0.00    +0.000 HD
ENDBRANCH  19  27
ENDBRANCH   7  18
BRANCH   1  30
ATOM     29  C   UNL     1       1.810   9.274  18.078  0.00  0.00    +0.000 C 
ATOM     30  O   UNL     1       1.725   8.530  19.286  0.00  0.00    +0.000 OA
ENDBRANCH   1  30
TORSDOF 3
ENDMDL
MODEL 7
REMARK VINA RESULT:      -6.3      2.645      6.115
REMARK  Name = 
REMARK  8 active torsions:
REMARK  status: ('A' for Active; 'I' for Inactive)
REMARK    1  A    between atoms: C_1  and  O_2
REMARK    2  A    between atoms: O_2  and  C_3
REMARK    3  A    between atoms: C_9  and  C_10
REMARK    4  A    between atoms: C_11  and  O_12
REMARK    5  A    between atoms: C_14  and  C_15
REMARK    6  A    between atoms: C_14  and  C_16
REMARK    7  A    between atoms: C_23  and  C_24
REMARK    8  A    between atoms: C_23  and  C_25
REMARK                            x       y       z     vdW  Elec       q    Type
REMARK                         _______ _______ _______ _____ _____    ______ ____
ROOT
ATOM      1  C   UNL     1      -5.423  12.530  18.353  0.00  0.00    +0.000 A 
ATOM      2  C   UNL     1      -5.281  12.028  17.058  0.00  0.00    +0.000 A 
ATOM      3  C   UNL     1      -4.144  11.293  16.712  0.00  0.00    +0.000 A 
ATOM      4  C   UNL     1      -3.135  11.068  17.654  0.00  0.00    +0.000 A 
ATOM      5  C   UNL     1      -3.263  11.573  18.950  0.00  0.00    +0.000 A 
ATOM      6  C   UNL     1      -4.418  12.296  19.293  0.00  0.00    +0.000 A 
ATOM      7  C   UNL     1      -2.148  11.369  19.958  0.00  0.00    +0.000 C 
ATOM      8  C   UNL     1      -1.053  10.499  19.417  0.00  0.00    +0.000 C 
ATOM      9  C   UNL     1      -1.012  10.099  18.133  0.00  0.00    +0.000 C 
ATOM     10  C   UNL     1       0.161   9.371  17.538  0.00  0.00    +0.000 C 
ATOM     11  C   UNL     1       1.476   9.590  18.322  0.00  0.00    +0.000 C 
ATOM     12  C   UNL     1       2.014  11.023  18.119  0.00  0.00    +0.000 C 
ATOM     13  C   UNL     1       2.549   8.614  17.808  0.00  0.00    +0.000 C 
ATOM     14  C   UNL     1       1.217   9.321  19.815  0.00  0.00    +0.000 C 
ATOM     15  C   UNL     1       0.025  10.085  20.355  0.00  0.00    +0.000 C 
ATOM     16  O   UNL     1      -0.103  10.302  21.562  0.00  0.00    +0.000 OA
ATOM     17  O   UNL     1      -2.027  10.372  17.225  0.00  0.00    +0.000 OA
ENDROOT
BRANCH   7  18
ATOM     18  C   UNL     1      -1.607  12.703  20.473  0.00  0.00    +0.000 C 
ATOM     19  C   UNL     1      -1.712  13.109  21.751  0.00  0.00    +0.000 C 
ATOM     20  C   UNL     1      -1.289  14.437  22.291  0.00  0.00    +0.000 C 
ATOM     21  C   UNL     1      -0.506  15.378  21.351  0.00  0.00    +0.000 C 
ATOM     22  C   UNL     1       0.977  15.409  21.783  0.00  0.00    +0.000 C 
ATOM     23  C   UNL     1      -1.074  16.804  21.517  0.00  0.00    +0.000 C 
ATOM     24  C   UNL     1      -0.586  15.018  19.860  0.00  0.00    +0.000 C 
ATOM     25  C   UNL     1      -0.952  13.606  19.489  0.00  0.00    +0.000 C 
ATOM     26  O   UNL     1      -0.732  13.226  18.337  0.00  0.00    +0.000 OA
BRANCH  19  27
ATOM     27  O   UNL     1      -2.252  12.287  22.727  0.00  0.00    +0.000 OA
ATOM     28  H   UNL     1      -2.867  11.663  22.287  0.00  0.00    +0.000 HD
ENDBRANCH  19  27
ENDBRANCH   7  18
BRANCH   1  30
ATOM     29  C   UNL     1      -7.502  12.608  19.485  0.00  0.00    +0.000 C 
ATOM     30  O   UNL     1      -6.460  13.297  18.807  0.00  0.00    +0.000 OA
ENDBRANCH   1  30
TORSDOF 3
ENDMDL
MODEL 8
REMARK VINA RESULT:      -6.2      2.000      6.361
REMARK  Name = 
REMARK  8 active torsions:
REMARK  status: ('A' for Active; 'I' for Inactive)
REMARK    1  A    between atoms: C_1  and  O_2
REMARK    2  A    between atoms: O_2  and  C_3
REMARK    3  A    between atoms: C_9  and  C_10
REMARK    4  A    between atoms: C_11  and  O_12
REMARK    5  A    between atoms: C_14  and  C_15
REMARK    6  A    between atoms: C_14  and  C_16
REMARK    7  A    between atoms: C_23  and  C_24
REMARK    8  A    between atoms: C_23  and  C_25
REMARK                            x       y       z     vdW  Elec       q    Type
REMARK                         _______ _______ _______ _____ _____    ______ ____
ROOT
ATOM      1  C   UNL     1      -4.517  13.237  23.225  0.00  0.00    +0.000 A 
ATOM      2  C   UNL     1      -4.258  14.348  24.029  0.00  0.00    +0.000 A 
ATOM      3  C   UNL     1      -3.256  15.254  23.672  0.00  0.00    +0.000 A 
ATOM      4  C   UNL     1      -2.498  15.048  22.515  0.00  0.00    +0.000 A 
ATOM      5  C   UNL     1      -2.743  13.936  21.707  0.00  0.00    +0.000 A 
ATOM      6  C   UNL     1      -3.764  13.039  22.067  0.00  0.00    +0.000 A 
ATOM      7  C   UNL     1      -1.889  13.687  20.478  0.00  0.00    +0.000 C 
ATOM      8  C   UNL     1      -0.922  14.805  20.229  0.00  0.00    +0.000 C 
ATOM      9  C   UNL     1      -0.741  15.814  21.100  0.00  0.00    +0.000 C 
ATOM     10  C   UNL     1       0.340  16.847  20.945  0.00  0.00    +0.000 C 
ATOM     11  C   UNL     1       1.514  16.372  20.056  0.00  0.00    +0.000 C 
ATOM     12  C   UNL     1       2.365  15.306  20.780  0.00  0.00    +0.000 C 
ATOM     13  C   UNL     1       2.433  17.565  19.739  0.00  0.00    +0.000 C 
ATOM     14  C   UNL     1       0.946  15.804  18.744  0.00  0.00    +0.000 C 
ATOM     15  C   UNL     1      -0.136  14.768  18.967  0.00  0.00    +0.000 C 
ATOM     16  O   UNL     1      -0.426  13.946  18.094  0.00  0.00    +0.000 OA
ATOM     17  O   UNL     1      -1.502  15.962  22.253  0.00  0.00    +0.000 OA
ENDROOT
BRANCH   7  18
ATOM     18  C   UNL     1      -1.182  12.333  20.552  0.00  0.00    +0.000 C 
ATOM     19  C   UNL     1      -0.193  12.053  21.418  0.00  0.00    +0.000 C 
ATOM     20  C   UNL     1       0.597  10.785  21.472  0.00  0.00    +0.000 C 
ATOM     21  C   UNL     1       0.140   9.614  20.576  0.00  0.00    +0.000 C 
ATOM     22  C   UNL     1      -0.522   8.529  21.455  0.00  0.00    +0.000 C 
ATOM     23  C   UNL     1       1.393   8.992  19.924  0.00  0.00    +0.000 C 
ATOM     24  C   UNL     1      -0.826  10.002  19.447  0.00  0.00    +0.000 C 
ATOM     25  C   UNL     1      -1.606  11.282  19.588  0.00  0.00    +0.000 C 
ATOM     26  O   UNL     1      -2.584  11.457  18.858  0.00  0.00    +0.000 OA
BRANCH  19  27
ATOM     27  O   UNL     1       0.203  12.966  22.382  0.00  0.00    +0.000 OA
ATOM     28  H   UNL     1       1.173  12.883  22.493  0.00  0.00    +0.000 HD
ENDBRANCH  19  27
ENDBRANCH   7  18
BRANCH   1  30
ATOM     29  C   UNL     1      -6.677  12.684  24.023  0.00  0.00    +0.000 C 
ATOM     30  O   UNL     1      -5.435  12.257  23.482  0.00  0.00    +0.000 OA
ENDBRANCH   1  30
TORSDOF 3
ENDMDL
MODEL 9
REMARK VINA RESULT:      -6.2      2.335      6.051
REMARK  Name = 
REMARK  8 active torsions:
REMARK  status: ('A' for Active; 'I' for Inactive)
REMARK    1  A    between atoms: C_1  and  O_2
REMARK    2  A    between atoms: O_2  and  C_3
REMARK    3  A    between atoms: C_9  and  C_10
REMARK    4  A    between atoms: C_11  and  O_12
REMARK    5  A    between atoms: C_14  and  C_15
REMARK    6  A    between atoms: C_14  and  C_16
REMARK    7  A    between atoms: C_23  and  C_24
REMARK    8  A    between atoms: C_23  and  C_25
REMARK                            x       y       z     vdW  Elec       q    Type
REMARK                         _______ _______ _______ _____ _____    ______ ____
ROOT
ATOM      1  C   UNL     1      -5.266  13.181  19.788  0.00  0.00    +0.000 A 
ATOM      2  C   UNL     1      -5.427  12.613  18.522  0.00  0.00    +0.000 A 
ATOM      3  C   UNL     1      -4.430  11.792  17.991  0.00  0.00    +0.000 A 
ATOM      4  C   UNL     1      -3.260  11.543  18.714  0.00  0.00    +0.000 A 
ATOM      5  C   UNL     1      -3.084  12.112  19.977  0.00  0.00    +0.000 A 
ATOM      6  C   UNL     1      -4.101  12.924  20.511  0.00  0.00    +0.000 A 
ATOM      7  C   UNL     1      -1.795  11.881  20.742  0.00  0.00    +0.000 C 
ATOM      8  C   UNL     1      -0.887  10.918  20.036  0.00  0.00    +0.000 C 
ATOM      9  C   UNL     1      -1.140  10.460  18.797  0.00  0.00    +0.000 C 
ATOM     10  C   UNL     1      -0.160   9.631  18.013  0.00  0.00    +0.000 C 
ATOM     11  C   UNL     1       1.301   9.799  18.494  0.00  0.00    +0.000 C 
ATOM     12  C   UNL     1       1.861  11.184  18.103  0.00  0.00    +0.000 C 
ATOM     13  C   UNL     1       2.187   8.733  17.825  0.00  0.00    +0.000 C 
ATOM     14  C   UNL     1       1.347   9.614  20.021  0.00  0.00    +0.000 C 
ATOM     15  C   UNL     1       0.340  10.477  20.752  0.00  0.00    +0.000 C 
ATOM     16  O   UNL     1       0.481  10.755  21.945  0.00  0.00    +0.000 OA
ATOM     17  O   UNL     1      -2.307  10.758  18.105  0.00  0.00    +0.000 OA
ENDROOT
BRANCH   7  18
ATOM     18  C   UNL     1      -1.086  13.199  21.057  0.00  0.00    +0.000 C 
ATOM     19  C   UNL     1      -0.862  13.647  22.304  0.00  0.00    +0.000 C 
ATOM     20  C   UNL     1      -0.262  14.966  22.672  0.00  0.00    +0.000 C 
ATOM     21  C   UNL     1       0.315  15.835  21.533  0.00  0.00    +0.000 C 
ATOM     22  C   UNL     1       1.858  15.798  21.598  0.00  0.00    +0.000 C 
ATOM     23  C   UNL     1      -0.131  17.294  21.770  0.00  0.00    +0.000 C 
ATOM     24  C   UNL     1      -0.137  15.435  20.121  0.00  0.00    +0.000 C 
ATOM     25  C   UNL     1      -0.646  14.035  19.908  0.00  0.00    +0.000 C 
ATOM     26  O   UNL     1      -0.727  13.609  18.754  0.00  0.00    +0.000 OA
BRANCH  19  27
ATOM     27  O   UNL     1      -1.189  12.886  23.415  0.00  0.00    +0.000 OA
ATOM     28  H   UNL     1      -0.475  12.228  23.549  0.00  0.00    +0.000 HD
ENDBRANCH  19  27
ENDBRANCH   7  18
BRANCH   1  30
ATOM     29  C   UNL     1      -7.487  13.988  19.950  0.00  0.00    +0.000 C 
ATOM     30  O   UNL     1      -6.141  14.033  20.403  0.00  0.00    +0.000 OA
ENDBRANCH   1  30
TORSDOF 3
ENDMDL
