MODEL 1
REMARK VINA RESULT:      -7.4      0.000      0.000
REMARK  Name = 
REMARK  4 active torsions:
REMARK  status: ('A' for Active; 'I' for Inactive)
REMARK    1  A    between atoms: C_1  and  N_2
REMARK    2  A    between atoms: N_2  and  C_3
REMARK    3  A    between atoms: N_2  and  C_14
REMARK    4  A    between atoms: C_3  and  C_4
REMARK                            x       y       z     vdW  Elec       q    Type
REMARK                         _______ _______ _______ _____ _____    ______ ____
ROOT
ATOM      1  C   UNL     1       5.944   5.377  17.636  0.00  0.00    +0.000 C 
ATOM      2  O   UNL     1       5.273   6.318  18.062  0.00  0.00    +0.000 OA
ATOM      3  N   UNL     1       5.687   4.048  17.907  0.00  0.00    +0.000 N 
ATOM      4  C   UNL     1       4.618   3.661  18.717  0.00  0.00    +0.000 A 
ATOM      5  C   UNL     1       3.366   4.263  18.598  0.00  0.00    +0.000 A 
ATOM      6  C   UNL     1       2.362   3.922  19.500  0.00  0.00    +0.000 A 
ATOM      7  C   UNL     1       2.651   3.007  20.500  0.00  0.00    +0.000 A 
ATOM      8 BR   UNL     1       1.370   2.592  21.817  0.00  0.00    +0.000 Br
ATOM      9  C   UNL     1       3.908   2.420  20.516  0.00  0.00    +0.000 A 
ATOM     10  N   UNL     1       4.885   2.697  19.617  0.00  0.00    +0.000 NA
ATOM     11  H   UNL     1       6.467   3.398  17.890  0.00  0.00    +0.000 HD
ENDROOT
BRANCH   1  12
ATOM     12  C   UNL     1       7.125   5.620  16.700  0.00  0.00    +0.000 C 
BRANCH  12  14
ATOM     13  C   UNL     1       5.244   5.936  15.211  0.00  0.00    +0.000 C 
ATOM     14  N   UNL     1       6.705   5.775  15.283  0.00  0.00    +0.000 NA
BRANCH  14  15
ATOM     15  C   UNL     1       7.187   4.699  14.382  0.00  0.00    +0.000 C 
ATOM     16  C   UNL     1       6.026   3.923  13.778  0.00  0.00    +0.000 C 
ATOM     17  C   UNL     1       6.485   3.586  12.386  0.00  0.00    +0.000 C 
ATOM     18  O   UNL     1       7.393   4.614  12.010  0.00  0.00    +0.000 OA
ATOM     19  C   UNL     1       7.902   5.211  13.130  0.00  0.00    +0.000 C 
ATOM     20  O   UNL     1       8.847   5.981  13.100  0.00  0.00    +0.000 OA
ENDBRANCH  14  15
ENDBRANCH  12  14
ENDBRANCH   1  12
TORSDOF 3
ENDMDL
MODEL 2
REMARK VINA RESULT:      -7.1      3.864      4.512
REMARK  Name = 
REMARK  4 active torsions:
REMARK  status: ('A' for Active; 'I' for Inactive)
REMARK    1  A    between atoms: C_1  and  N_2
REMARK    2  A    between atoms: N_2  and  C_3
REMARK    3  A    between atoms: N_2  and  C_14
REMARK    4  A    between atoms: C_3  and  C_4
REMARK                            x       y       z     vdW  Elec       q    Type
REMARK                         _______ _______ _______ _____ _____    ______ ____
ROOT
ATOM      1  C   UNL     1       4.380   6.314  18.068  0.00  0.00    +0.000 C 
ATOM      2  O   UNL     1       4.776   7.283  17.420  0.00  0.00    +0.000 OA
ATOM      3  N   UNL     1       3.224   6.297  18.823  0.00  0.00    +0.000 N 
ATOM      4  C   UNL     1       2.396   7.416  18.916  0.00  0.00    +0.000 A 
ATOM      5  C   UNL     1       2.095   8.188  17.794  0.00  0.00    +0.000 A 
ATOM      6  C   UNL     1       1.356   9.356  17.954  0.00  0.00    +0.000 A 
ATOM      7  C   UNL     1       0.961   9.722  19.232  0.00  0.00    +0.000 A 
ATOM      8 BR   UNL     1       0.059  11.350  19.525  0.00  0.00    +0.000 Br
ATOM      9  C   UNL     1       1.262   8.872  20.285  0.00  0.00    +0.000 A 
ATOM     10  N   UNL     1       1.936   7.702  20.147  0.00  0.00    +0.000 NA
ATOM     11  H   UNL     1       3.183   5.668  19.620  0.00  0.00    +0.000 HD
ENDROOT
BRANCH   1  12
ATOM     12  C   UNL     1       5.145   4.992  18.044  0.00  0.00    +0.000 C 
BRANCH  12  14
ATOM     13  C   UNL     1       4.125   2.887  17.422  0.00  0.00    +0.000 C 
ATOM     14  N   UNL     1       4.739   4.122  16.909  0.00  0.00    +0.000 NA
BRANCH  14  15
ATOM     15  C   UNL     1       5.827   3.836  15.941  0.00  0.00    +0.000 C 
ATOM     16  C   UNL     1       5.514   4.419  14.570  0.00  0.00    +0.000 C 
ATOM     17  C   UNL     1       6.849   4.865  14.040  0.00  0.00    +0.000 C 
ATOM     18  O   UNL     1       7.641   5.181  15.178  0.00  0.00    +0.000 OA
ATOM     19  C   UNL     1       7.152   4.526  16.274  0.00  0.00    +0.000 C 
ATOM     20  O   UNL     1       7.757   4.460  17.331  0.00  0.00    +0.000 OA
ENDBRANCH  14  15
ENDBRANCH  12  14
ENDBRANCH   1  12
TORSDOF 3
ENDMDL
MODEL 3
REMARK VINA RESULT:      -7.0      3.791      5.179
REMARK  Name = 
REMARK  4 active torsions:
REMARK  status: ('A' for Active; 'I' for Inactive)
REMARK    1  A    between atoms: C_1  and  N_2
REMARK    2  A    between atoms: N_2  and  C_3
REMARK    3  A    between atoms: N_2  and  C_14
REMARK    4  A    between atoms: C_3  and  C_4
REMARK                            x       y       z     vdW  Elec       q    Type
REMARK                         _______ _______ _______ _____ _____    ______ ____
ROOT
ATOM      1  C   UNL     1       2.426   4.939  18.225  0.00  0.00    +0.000 C 
ATOM      2  O   UNL     1       1.562   4.602  19.035  0.00  0.00    +0.000 OA
ATOM      3  N   UNL     1       2.847   6.238  18.026  0.00  0.00    +0.000 N 
ATOM      4  C   UNL     1       2.301   7.301  18.746  0.00  0.00    +0.000 A 
ATOM      5  C   UNL     1       2.056   7.197  20.115  0.00  0.00    +0.000 A 
ATOM      6  C   UNL     1       1.409   8.242  20.769  0.00  0.00    +0.000 A 
ATOM      7  C   UNL     1       1.013   9.345  20.028  0.00  0.00    +0.000 A 
ATOM      8 BR   UNL     1       0.034  10.738  20.833  0.00  0.00    +0.000 Br
ATOM      9  C   UNL     1       1.339   9.388  18.680  0.00  0.00    +0.000 A 
ATOM     10  N   UNL     1       2.014   8.406  18.032  0.00  0.00    +0.000 NA
ATOM     11  H   UNL     1       3.216   6.486  17.112  0.00  0.00    +0.000 HD
ENDROOT
BRANCH   1  12
ATOM     12  C   UNL     1       3.157   3.895  17.384  0.00  0.00    +0.000 C 
BRANCH  12  14
ATOM     13  C   UNL     1       4.485   3.256  19.303  0.00  0.00    +0.000 C 
ATOM     14  N   UNL     1       4.532   3.628  17.880  0.00  0.00    +0.000 NA
BRANCH  14  15
ATOM     15  C   UNL     1       5.496   4.729  17.629  0.00  0.00    +0.000 C 
ATOM     16  C   UNL     1       6.267   5.086  18.892  0.00  0.00    +0.000 C 
ATOM     17  C   UNL     1       7.645   5.438  18.401  0.00  0.00    +0.000 C 
ATOM     18  O   UNL     1       7.841   4.693  17.206  0.00  0.00    +0.000 OA
ATOM     19  C   UNL     1       6.629   4.355  16.671  0.00  0.00    +0.000 C 
ATOM     20  O   UNL     1       6.505   3.893  15.548  0.00  0.00    +0.000 OA
ENDBRANCH  14  15
ENDBRANCH  12  14
ENDBRANCH   1  12
TORSDOF 3
ENDMDL
MODEL 4
REMARK VINA RESULT:      -6.9      4.163      5.195
REMARK  Name = 
REMARK  4 active torsions:
REMARK  status: ('A' for Active; 'I' for Inactive)
REMARK    1  A    between atoms: C_1  and  N_2
REMARK    2  A    between atoms: N_2  and  C_3
REMARK    3  A    between atoms: N_2  and  C_14
REMARK    4  A    between atoms: C_3  and  C_4
REMARK                            x       y       z     vdW  Elec       q    Type
REMARK                         _______ _______ _______ _____ _____    ______ ____
ROOT
ATOM      1  C   UNL     1       2.849   5.736  19.393  0.00  0.00    +0.000 C 
ATOM      2  O   UNL     1       1.897   5.437  20.114  0.00  0.00    +0.000 OA
ATOM      3  N   UNL     1       3.047   6.984  18.837  0.00  0.00    +0.000 N 
ATOM      4  C   UNL     1       2.150   8.031  19.052  0.00  0.00    +0.000 A 
ATOM      5  C   UNL     1       1.606   8.269  20.314  0.00  0.00    +0.000 A 
ATOM      6  C   UNL     1       0.632   9.254  20.457  0.00  0.00    +0.000 A 
ATOM      7  C   UNL     1       0.222   9.950  19.330  0.00  0.00    +0.000 A 
ATOM      8 BR   UNL     1      -1.172  11.212  19.440  0.00  0.00    +0.000 Br
ATOM      9  C   UNL     1       0.849   9.682  18.122  0.00  0.00    +0.000 A 
ATOM     10  N   UNL     1       1.837   8.765  17.968  0.00  0.00    +0.000 NA
ATOM     11  H   UNL     1       3.571   7.042  17.968  0.00  0.00    +0.000 HD
ENDROOT
BRANCH   1  12
ATOM     12  C   UNL     1       3.949   4.721  19.090  0.00  0.00    +0.000 C 
BRANCH  12  14
ATOM     13  C   UNL     1       3.555   3.094  17.344  0.00  0.00    +0.000 C 
ATOM     14  N   UNL     1       4.077   4.438  17.637  0.00  0.00    +0.000 NA
BRANCH  14  15
ATOM     15  C   UNL     1       5.446   4.629  17.097  0.00  0.00    +0.000 C 
ATOM     16  C   UNL     1       5.674   3.777  15.857  0.00  0.00    +0.000 C 
ATOM     17  C   UNL     1       6.551   4.624  14.977  0.00  0.00    +0.000 C 
ATOM     18  O   UNL     1       6.250   5.975  15.303  0.00  0.00    +0.000 OA
ATOM     19  C   UNL     1       5.710   6.036  16.557  0.00  0.00    +0.000 C 
ATOM     20  O   UNL     1       5.550   7.085  17.160  0.00  0.00    +0.000 OA
ENDBRANCH  14  15
ENDBRANCH  12  14
ENDBRANCH   1  12
TORSDOF 3
ENDMDL
MODEL 5
REMARK VINA RESULT:      -6.9      4.370      5.576
REMARK  Name = 
REMARK  4 active torsions:
REMARK  status: ('A' for Active; 'I' for Inactive)
REMARK    1  A    between atoms: C_1  and  N_2
REMARK    2  A    between atoms: N_2  and  C_3
REMARK    3  A    between atoms: N_2  and  C_14
REMARK    4  A    between atoms: C_3  and  C_4
REMARK                            x       y       z     vdW  Elec       q    Type
REMARK                         _______ _______ _______ _____ _____    ______ ____
ROOT
ATOM      1  C   UNL     1       2.286   5.688  19.913  0.00  0.00    +0.000 C 
ATOM      2  O   UNL     1       1.345   5.361  20.636  0.00  0.00    +0.000 OA
ATOM      3  N   UNL     1       2.596   6.990  19.574  0.00  0.00    +0.000 N 
ATOM      4  C   UNL     1       1.837   8.066  20.034  0.00  0.00    +0.000 A 
ATOM      5  C   UNL     1       1.391   8.123  21.354  0.00  0.00    +0.000 A 
ATOM      6  C   UNL     1       0.544   9.159  21.739  0.00  0.00    +0.000 A 
ATOM      7  C   UNL     1       0.158  10.089  20.786  0.00  0.00    +0.000 A 
ATOM      8 BR   UNL     1      -1.075  11.447  21.218  0.00  0.00    +0.000 Br
ATOM      9  C   UNL     1       0.687   9.984  19.508  0.00  0.00    +0.000 A 
ATOM     10  N   UNL     1       1.554   9.015  19.123  0.00  0.00    +0.000 NA
ATOM     11  H   UNL     1       3.077   7.152  18.694  0.00  0.00    +0.000 HD
ENDROOT
BRANCH   1  12
ATOM     12  C   UNL     1       3.245   4.638  19.357  0.00  0.00    +0.000 C 
BRANCH  12  14
ATOM     13  C   UNL     1       2.802   3.386  17.335  0.00  0.00    +0.000 C 
ATOM     14  N   UNL     1       3.311   4.657  17.873  0.00  0.00    +0.000 NA
BRANCH  14  15
ATOM     15  C   UNL     1       4.650   4.992  17.326  0.00  0.00    +0.000 C 
ATOM     16  C   UNL     1       4.963   4.165  16.087  0.00  0.00    +0.000 C 
ATOM     17  C   UNL     1       5.740   5.098  15.201  0.00  0.00    +0.000 C 
ATOM     18  O   UNL     1       5.297   6.410  15.524  0.00  0.00    +0.000 OA
ATOM     19  C   UNL     1       4.759   6.417  16.781  0.00  0.00    +0.000 C 
ATOM     20  O   UNL     1       4.488   7.445  17.381  0.00  0.00    +0.000 OA
ENDBRANCH  14  15
ENDBRANCH  12  14
ENDBRANCH   1  12
TORSDOF 3
ENDMDL
MODEL 6
REMARK VINA RESULT:      -6.9      4.189      5.640
REMARK  Name = 
REMARK  4 active torsions:
REMARK  status: ('A' for Active; 'I' for Inactive)
REMARK    1  A    between atoms: C_1  and  N_2
REMARK    2  A    between atoms: N_2  and  C_3
REMARK    3  A    between atoms: N_2  and  C_14
REMARK    4  A    between atoms: C_3  and  C_4
REMARK                            x       y       z     vdW  Elec       q    Type
REMARK                         _______ _______ _______ _____ _____    ______ ____
ROOT
ATOM      1  C   UNL     1       2.340   5.387  20.003  0.00  0.00    +0.000 C 
ATOM      2  O   UNL     1       1.310   5.116  20.622  0.00  0.00    +0.000 OA
ATOM      3  N   UNL     1       2.727   6.664  19.651  0.00  0.00    +0.000 N 
ATOM      4  C   UNL     1       1.952   7.778  19.973  0.00  0.00    +0.000 A 
ATOM      5  C   UNL     1       1.356   7.905  21.228  0.00  0.00    +0.000 A 
ATOM      6  C   UNL     1       0.503   8.979  21.467  0.00  0.00    +0.000 A 
ATOM      7  C   UNL     1       0.260   9.876  20.437  0.00  0.00    +0.000 A 
ATOM      8 BR   UNL     1      -0.972  11.282  20.664  0.00  0.00    +0.000 Br
ATOM      9  C   UNL     1       0.932   9.701  19.237  0.00  0.00    +0.000 A 
ATOM     10  N   UNL     1       1.808   8.693  18.998  0.00  0.00    +0.000 NA
ATOM     11  H   UNL     1       3.313   6.775  18.828  0.00  0.00    +0.000 HD
ENDROOT
BRANCH   1  12
ATOM     12  C   UNL     1       3.325   4.289  19.608  0.00  0.00    +0.000 C 
BRANCH  12  14
ATOM     13  C   UNL     1       2.757   3.635  17.349  0.00  0.00    +0.000 C 
ATOM     14  N   UNL     1       3.724   4.371  18.179  0.00  0.00    +0.000 NA
BRANCH  14  15
ATOM     15  C   UNL     1       5.119   3.943  17.910  0.00  0.00    +0.000 C 
ATOM     16  C   UNL     1       5.451   4.039  16.428  0.00  0.00    +0.000 C 
ATOM     17  C   UNL     1       6.892   4.467  16.395  0.00  0.00    +0.000 C 
ATOM     18  O   UNL     1       7.112   5.209  17.588  0.00  0.00    +0.000 OA
ATOM     19  C   UNL     1       6.179   4.861  18.524  0.00  0.00    +0.000 C 
ATOM     20  O   UNL     1       6.258   5.193  19.695  0.00  0.00    +0.000 OA
ENDBRANCH  14  15
ENDBRANCH  12  14
ENDBRANCH   1  12
TORSDOF 3
ENDMDL
MODEL 7
REMARK VINA RESULT:      -6.8      3.892      5.555
REMARK  Name = 
REMARK  4 active torsions:
REMARK  status: ('A' for Active; 'I' for Inactive)
REMARK    1  A    between atoms: C_1  and  N_2
REMARK    2  A    between atoms: N_2  and  C_3
REMARK    3  A    between atoms: N_2  and  C_14
REMARK    4  A    between atoms: C_3  and  C_4
REMARK                            x       y       z     vdW  Elec       q    Type
REMARK                         _______ _______ _______ _____ _____    ______ ____
ROOT
ATOM      1  C   UNL     1       3.038   5.420  17.897  0.00  0.00    +0.000 C 
ATOM      2  O   UNL     1       2.100   4.984  18.565  0.00  0.00    +0.000 OA
ATOM      3  N   UNL     1       3.332   6.760  17.743  0.00  0.00    +0.000 N 
ATOM      4  C   UNL     1       2.557   7.752  18.346  0.00  0.00    +0.000 A 
ATOM      5  C   UNL     1       2.108   7.620  19.659  0.00  0.00    +0.000 A 
ATOM      6  C   UNL     1       1.247   8.582  20.181  0.00  0.00    +0.000 A 
ATOM      7  C   UNL     1       0.850   9.630  19.365  0.00  0.00    +0.000 A 
ATOM      8 BR   UNL     1      -0.401  10.898  19.976  0.00  0.00    +0.000 Br
ATOM      9  C   UNL     1       1.383   9.710  18.086  0.00  0.00    +0.000 A 
ATOM     10  N   UNL     1       2.264   8.815  17.574  0.00  0.00    +0.000 NA
ATOM     11  H   UNL     1       3.812   7.050  16.896  0.00  0.00    +0.000 HD
ENDROOT
BRANCH   1  12
ATOM     12  C   UNL     1       4.012   4.470  17.205  0.00  0.00    +0.000 C 
BRANCH  12  14
ATOM     13  C   UNL     1       5.430   4.859  15.283  0.00  0.00    +0.000 C 
ATOM     14  N   UNL     1       5.228   5.166  16.708  0.00  0.00    +0.000 NA
BRANCH  14  15
ATOM     15  C   UNL     1       6.451   4.903  17.508  0.00  0.00    +0.000 C 
ATOM     16  C   UNL     1       7.309   6.153  17.632  0.00  0.00    +0.000 C 
ATOM     17  C   UNL     1       7.889   6.073  19.017  0.00  0.00    +0.000 C 
ATOM     18  O   UNL     1       6.951   5.341  19.796  0.00  0.00    +0.000 OA
ATOM     19  C   UNL     1       6.173   4.572  18.976  0.00  0.00    +0.000 C 
ATOM     20  O   UNL     1       5.429   3.700  19.393  0.00  0.00    +0.000 OA
ENDBRANCH  14  15
ENDBRANCH  12  14
ENDBRANCH   1  12
TORSDOF 3
ENDMDL
MODEL 8
REMARK VINA RESULT:      -6.8      5.018      6.740
REMARK  Name = 
REMARK  4 active torsions:
REMARK  status: ('A' for Active; 'I' for Inactive)
REMARK    1  A    between atoms: C_1  and  N_2
REMARK    2  A    between atoms: N_2  and  C_3
REMARK    3  A    between atoms: N_2  and  C_14
REMARK    4  A    between atoms: C_3  and  C_4
REMARK                            x       y       z     vdW  Elec       q    Type
REMARK                         _______ _______ _______ _____ _____    ______ ____
ROOT
ATOM      1  C   UNL     1       2.094   6.714  19.846  0.00  0.00    +0.000 C 
ATOM      2  O   UNL     1       1.586   6.127  20.802  0.00  0.00    +0.000 OA
ATOM      3  N   UNL     1       1.977   8.069  19.609  0.00  0.00    +0.000 N 
ATOM      4  C   UNL     1       1.244   8.899  20.458  0.00  0.00    +0.000 A 
ATOM      5  C   UNL     1       1.330   8.772  21.844  0.00  0.00    +0.000 A 
ATOM      6  C   UNL     1       0.499   9.546  22.648  0.00  0.00    +0.000 A 
ATOM      7  C   UNL     1      -0.403  10.405  22.038  0.00  0.00    +0.000 A 
ATOM      8 BR   UNL     1      -1.631  11.393  23.069  0.00  0.00    +0.000 Br
ATOM      9  C   UNL     1      -0.388  10.505  20.654  0.00  0.00    +0.000 A 
ATOM     10  N   UNL     1       0.448   9.800  19.852  0.00  0.00    +0.000 NA
ATOM     11  H   UNL     1       2.044   8.393  18.648  0.00  0.00    +0.000 HD
ENDROOT
BRANCH   1  12
ATOM     12  C   UNL     1       2.965   5.964  18.841  0.00  0.00    +0.000 C 
BRANCH  12  14
ATOM     13  C   UNL     1       5.236   5.290  19.335  0.00  0.00    +0.000 C 
ATOM     14  N   UNL     1       3.817   4.932  19.488  0.00  0.00    +0.000 NA
BRANCH  14  15
ATOM     15  C   UNL     1       3.546   3.545  19.032  0.00  0.00    +0.000 C 
ATOM     16  C   UNL     1       2.237   3.021  19.606  0.00  0.00    +0.000 C 
ATOM     17  C   UNL     1       1.664   2.168  18.508  0.00  0.00    +0.000 C 
ATOM     18  O   UNL     1       2.152   2.712  17.289  0.00  0.00    +0.000 OA
ATOM     19  C   UNL     1       3.295   3.424  17.528  0.00  0.00    +0.000 C 
ATOM     20  O   UNL     1       4.026   3.823  16.637  0.00  0.00    +0.000 OA
ENDBRANCH  14  15
ENDBRANCH  12  14
ENDBRANCH   1  12
TORSDOF 3
ENDMDL
MODEL 9
REMARK VINA RESULT:      -6.7      4.352      7.256
REMARK  Name = 
REMARK  4 active torsions:
REMARK  status: ('A' for Active; 'I' for Inactive)
REMARK    1  A    between atoms: C_1  and  N_2
REMARK    2  A    between atoms: N_2  and  C_3
REMARK    3  A    between atoms: N_2  and  C_14
REMARK    4  A    between atoms: C_3  and  C_4
REMARK                            x       y       z     vdW  Elec       q    Type
REMARK                         _______ _______ _______ _____ _____    ______ ____
ROOT
ATOM      1  C   UNL     1       5.431   4.415  18.356  0.00  0.00    +0.000 C 
ATOM      2  O   UNL     1       5.701   4.565  19.548  0.00  0.00    +0.000 OA
ATOM      3  N   UNL     1       5.898   5.225  17.340  0.00  0.00    +0.000 N 
ATOM      4  C   UNL     1       6.733   6.312  17.598  0.00  0.00    +0.000 A 
ATOM      5  C   UNL     1       7.785   6.216  18.509  0.00  0.00    +0.000 A 
ATOM      6  C   UNL     1       8.522   7.357  18.816  0.00  0.00    +0.000 A 
ATOM      7  C   UNL     1       8.168   8.556  18.217  0.00  0.00    +0.000 A 
ATOM      8 BR   UNL     1       9.053  10.154  18.679  0.00  0.00    +0.000 Br
ATOM      9  C   UNL     1       7.139   8.553  17.287  0.00  0.00    +0.000 A 
ATOM     10  N   UNL     1       6.442   7.445  16.932  0.00  0.00    +0.000 NA
ATOM     11  H   UNL     1       5.334   5.309  16.499  0.00  0.00    +0.000 HD
ENDROOT
BRANCH   1  12
ATOM     12  C   UNL     1       4.563   3.247  17.893  0.00  0.00    +0.000 C 
BRANCH  12  14
ATOM     13  C   UNL     1       3.078   1.440  18.513  0.00  0.00    +0.000 C 
ATOM     14  N   UNL     1       3.860   2.580  19.019  0.00  0.00    +0.000 NA
BRANCH  14  15
ATOM     15  C   UNL     1       3.032   3.492  19.848  0.00  0.00    +0.000 C 
ATOM     16  C   UNL     1       1.768   3.913  19.112  0.00  0.00    +0.000 C 
ATOM     17  C   UNL     1       0.721   4.001  20.188  0.00  0.00    +0.000 C 
ATOM     18  O   UNL     1       1.112   3.077  21.196  0.00  0.00    +0.000 OA
ATOM     19  C   UNL     1       2.455   2.838  21.104  0.00  0.00    +0.000 C 
ATOM     20  O   UNL     1       3.084   2.245  21.966  0.00  0.00    +0.000 OA
ENDBRANCH  14  15
ENDBRANCH  12  14
ENDBRANCH   1  12
TORSDOF 3
ENDMDL
