MODEL 1
REMARK VINA RESULT:      -8.0      0.000      0.000
REMARK  Name = 
REMARK  4 active torsions:
REMARK  status: ('A' for Active; 'I' for Inactive)
REMARK    1  A    between atoms: C_2  and  C_3
REMARK    2  A    between atoms: C_6  and  C_7
REMARK    3  A    between atoms: N_12  and  C_13
REMARK    4  A    between atoms: C_25  and  N_26
REMARK                            x       y       z     vdW  Elec       q    Type
REMARK                         _______ _______ _______ _____ _____    ______ ____
ROOT
ATOM      1  C   UNL     1       1.597   7.939  20.344  0.00  0.00    +0.000 A 
ATOM      2  C   UNL     1       1.397   8.704  19.185  0.00  0.00    +0.000 A 
ATOM      3  C   UNL     1       0.781   9.948  19.267  0.00  0.00    +0.000 A 
ATOM      4  C   UNL     1       0.443  10.461  20.521  0.00  0.00    +0.000 A 
ATOM      5  C   UNL     1       0.671   9.701  21.679  0.00  0.00    +0.000 A 
ATOM      6  C   UNL     1       1.292   8.459  21.597  0.00  0.00    +0.000 A 
ENDROOT
BRANCH   1   8
ATOM      7  O   UNL     1       1.658   5.745  21.125  0.00  0.00    +0.000 OA
ATOM      8  C   UNL     1       2.046   6.538  20.258  0.00  0.00    +0.000 C 
ATOM      9  N   UNL     1       2.877   6.178  19.203  0.00  0.00    +0.000 N 
ATOM     10  C   UNL     1       3.442   4.836  19.157  0.00  0.00    +0.000 C 
ATOM     11  C   UNL     1       4.937   4.908  18.839  0.00  0.00    +0.000 C 
ATOM     12  C   UNL     1       5.279   5.742  17.568  0.00  0.00    +0.000 C 
ATOM     13  C   UNL     1       4.561   7.108  17.718  0.00  0.00    +0.000 C 
ATOM     14  C   UNL     1       3.070   6.936  17.970  0.00  0.00    +0.000 C 
BRANCH  12  15
ATOM     15  N   UNL     1       4.941   5.051  16.298  0.00  0.00    +0.000 NA
ATOM     16  C   UNL     1       5.549   3.709  16.177  0.00  0.00    +0.000 C 
ATOM     17  C   UNL     1       6.893   3.932  15.513  0.00  0.00    +0.000 C 
ATOM     18  C   UNL     1       6.590   5.009  14.500  0.00  0.00    +0.000 C 
ATOM     19  C   UNL     1       5.408   5.769  15.089  0.00  0.00    +0.000 C 
ENDBRANCH  12  15
ENDBRANCH   1   8
BRANCH   4  20
ATOM     20  C   UNL     1      -0.212  11.786  20.572  0.00  0.00    +0.000 C 
ATOM     21  O   UNL     1      -1.319  11.856  21.104  0.00  0.00    +0.000 OA
ATOM     22  N   UNL     1       0.447  12.885  20.053  0.00  0.00    +0.000 N 
ATOM     23  C   UNL     1      -0.082  14.213  20.352  0.00  0.00    +0.000 C 
ATOM     24  C   UNL     1       1.057  15.196  20.695  0.00  0.00    +0.000 C 
ATOM     25  N   UNL     1       2.187  15.217  19.726  0.00  0.00    +0.000 NA
ATOM     26  C   UNL     1       2.661  13.829  19.534  0.00  0.00    +0.000 C 
ATOM     27  C   UNL     1       1.545  12.875  19.075  0.00  0.00    +0.000 C 
BRANCH  25  28
ATOM     28  C   UNL     1       1.823  15.880  18.462  0.00  0.00    +0.000 C 
ATOM     29  C   UNL     1       1.250  17.279  18.696  0.00  0.00    +0.000 C 
ATOM     30  C   UNL     1       1.376  17.956  17.345  0.00  0.00    +0.000 C 
ATOM     31  C   UNL     1       2.684  17.438  16.765  0.00  0.00    +0.000 C 
ATOM     32  C   UNL     1       3.005  16.143  17.512  0.00  0.00    +0.000 C 
ENDBRANCH  25  28
ENDBRANCH   4  20
TORSDOF 4
ENDMDL
MODEL 2
REMARK VINA RESULT:      -7.9      6.237      7.600
REMARK  Name = 
REMARK  4 active torsions:
REMARK  status: ('A' for Active; 'I' for Inactive)
REMARK    1  A    between atoms: C_2  and  C_3
REMARK    2  A    between atoms: C_6  and  C_7
REMARK    3  A    between atoms: N_12  and  C_13
REMARK    4  A    between atoms: C_25  and  N_26
REMARK                            x       y       z     vdW  Elec       q    Type
REMARK                         _______ _______ _______ _____ _____    ______ ____
ROOT
ATOM      1  C   UNL     1       7.625   7.276  17.562  0.00  0.00    +0.000 A 
ATOM      2  C   UNL     1       7.441   8.609  17.168  0.00  0.00    +0.000 A 
ATOM      3  C   UNL     1       7.920   9.644  17.962  0.00  0.00    +0.000 A 
ATOM      4  C   UNL     1       8.659   9.341  19.107  0.00  0.00    +0.000 A 
ATOM      5  C   UNL     1       8.863   8.003  19.482  0.00  0.00    +0.000 A 
ATOM      6  C   UNL     1       8.388   6.968  18.684  0.00  0.00    +0.000 A 
ENDROOT
BRANCH   1   8
ATOM      7  O   UNL     1       7.308   5.905  15.706  0.00  0.00    +0.000 OA
ATOM      8  C   UNL     1       6.944   6.176  16.856  0.00  0.00    +0.000 C 
ATOM      9  N   UNL     1       5.931   5.495  17.523  0.00  0.00    +0.000 N 
ATOM     10  C   UNL     1       5.152   4.489  16.814  0.00  0.00    +0.000 C 
ATOM     11  C   UNL     1       3.661   4.694  17.087  0.00  0.00    +0.000 C 
ATOM     12  C   UNL     1       3.294   4.774  18.599  0.00  0.00    +0.000 C 
ATOM     13  C   UNL     1       4.241   5.822  19.238  0.00  0.00    +0.000 C 
ATOM     14  C   UNL     1       5.703   5.502  18.965  0.00  0.00    +0.000 C 
BRANCH  12  15
ATOM     15  N   UNL     1       3.341   3.461  19.290  0.00  0.00    +0.000 NA
ATOM     16  C   UNL     1       2.605   2.394  18.579  0.00  0.00    +0.000 C 
ATOM     17  C   UNL     1       1.191   2.448  19.118  0.00  0.00    +0.000 C 
ATOM     18  C   UNL     1       1.403   2.736  20.584  0.00  0.00    +0.000 C 
ATOM     19  C   UNL     1       2.733   3.478  20.641  0.00  0.00    +0.000 C 
ENDBRANCH  12  15
ENDBRANCH   1   8
BRANCH   4  20
ATOM     20  C   UNL     1       9.152  10.466  19.930  0.00  0.00    +0.000 C 
ATOM     21  O   UNL     1       9.083  10.354  21.153  0.00  0.00    +0.000 OA
ATOM     22  N   UNL     1       9.691  11.576  19.304  0.00  0.00    +0.000 N 
ATOM     23  C   UNL     1      10.415  12.547  20.119  0.00  0.00    +0.000 C 
ATOM     24  C   UNL     1      11.704  13.010  19.409  0.00  0.00    +0.000 C 
ATOM     25  N   UNL     1      11.527  13.444  17.996  0.00  0.00    +0.000 NA
ATOM     26  C   UNL     1      10.820  12.370  17.265  0.00  0.00    +0.000 C 
ATOM     27  C   UNL     1       9.476  11.993  17.910  0.00  0.00    +0.000 C 
BRANCH  25  28
ATOM     28  C   UNL     1      10.851  14.749  17.896  0.00  0.00    +0.000 C 
ATOM     29  C   UNL     1      11.189  15.660  19.077  0.00  0.00    +0.000 C 
ATOM     30  C   UNL     1      10.815  17.045  18.589  0.00  0.00    +0.000 C 
ATOM     31  C   UNL     1      11.182  17.056  17.113  0.00  0.00    +0.000 C 
ATOM     32  C   UNL     1      11.262  15.593  16.676  0.00  0.00    +0.000 C 
ENDBRANCH  25  28
ENDBRANCH   4  20
TORSDOF 4
ENDMDL
MODEL 3
REMARK VINA RESULT:      -7.9      1.047      1.193
REMARK  Name = 
REMARK  4 active torsions:
REMARK  status: ('A' for Active; 'I' for Inactive)
REMARK    1  A    between atoms: C_2  and  C_3
REMARK    2  A    between atoms: C_6  and  C_7
REMARK    3  A    between atoms: N_12  and  C_13
REMARK    4  A    between atoms: C_25  and  N_26
REMARK                            x       y       z     vdW  Elec       q    Type
REMARK                         _______ _______ _______ _____ _____    ______ ____
ROOT
ATOM      1  C   UNL     1       1.965   7.483  19.748  0.00  0.00    +0.000 A 
ATOM      2  C   UNL     1       1.873   7.980  18.440  0.00  0.00    +0.000 A 
ATOM      3  C   UNL     1       1.090   9.096  18.171  0.00  0.00    +0.000 A 
ATOM      4  C   UNL     1       0.468   9.765  19.227  0.00  0.00    +0.000 A 
ATOM      5  C   UNL     1       0.586   9.277  20.539  0.00  0.00    +0.000 A 
ATOM      6  C   UNL     1       1.375   8.163  20.808  0.00  0.00    +0.000 A 
ENDROOT
BRANCH   1   8
ATOM      7  O   UNL     1       2.277   5.572  21.044  0.00  0.00    +0.000 OA
ATOM      8  C   UNL     1       2.608   6.185  20.022  0.00  0.00    +0.000 C 
ATOM      9  N   UNL     1       3.549   5.713  19.113  0.00  0.00    +0.000 N 
ATOM     10  C   UNL     1       4.296   4.500  19.414  0.00  0.00    +0.000 C 
ATOM     11  C   UNL     1       5.784   4.717  19.134  0.00  0.00    +0.000 C 
ATOM     12  C   UNL     1       6.091   5.267  17.708  0.00  0.00    +0.000 C 
ATOM     13  C   UNL     1       5.183   6.505  17.498  0.00  0.00    +0.000 C 
ATOM     14  C   UNL     1       3.717   6.177  17.739  0.00  0.00    +0.000 C 
BRANCH  12  15
ATOM     15  N   UNL     1       5.936   4.251  16.636  0.00  0.00    +0.000 NA
ATOM     16  C   UNL     1       7.171   4.024  15.856  0.00  0.00    +0.000 C 
ATOM     17  C   UNL     1       7.113   5.012  14.709  0.00  0.00    +0.000 C 
ATOM     18  C   UNL     1       5.651   4.999  14.331  0.00  0.00    +0.000 C 
ATOM     19  C   UNL     1       4.927   4.615  15.615  0.00  0.00    +0.000 C 
ENDBRANCH  12  15
ENDBRANCH   1   8
BRANCH   4  20
ATOM     20  C   UNL     1      -0.360  10.947  18.906  0.00  0.00    +0.000 C 
ATOM     21  O   UNL     1      -1.562  10.770  18.718  0.00  0.00    +0.000 OA
ATOM     22  N   UNL     1       0.236  12.195  18.857  0.00  0.00    +0.000 N 
ATOM     23  C   UNL     1      -0.627  13.372  18.811  0.00  0.00    +0.000 C 
ATOM     24  C   UNL     1      -0.097  14.480  19.745  0.00  0.00    +0.000 C 
ATOM     25  N   UNL     1       1.348  14.804  19.586  0.00  0.00    +0.000 NA
ATOM     26  C   UNL     1       2.119  13.546  19.688  0.00  0.00    +0.000 C 
ATOM     27  C   UNL     1       1.666  12.483  18.673  0.00  0.00    +0.000 C 
BRANCH  25  28
ATOM     28  C   UNL     1       1.618  15.544  18.342  0.00  0.00    +0.000 C 
ATOM     29  C   UNL     1       1.013  16.949  18.370  0.00  0.00    +0.000 C 
ATOM     30  C   UNL     1       1.758  17.690  17.277  0.00  0.00    +0.000 C 
ATOM     31  C   UNL     1       3.181  17.155  17.338  0.00  0.00    +0.000 C 
ATOM     32  C   UNL     1       3.108  15.813  18.066  0.00  0.00    +0.000 C 
ENDBRANCH  25  28
ENDBRANCH   4  20
TORSDOF 4
ENDMDL
MODEL 4
REMARK VINA RESULT:      -7.7      6.237     10.791
REMARK  Name = 
REMARK  4 active torsions:
REMARK  status: ('A' for Active; 'I' for Inactive)
REMARK    1  A    between atoms: C_2  and  C_3
REMARK    2  A    between atoms: C_6  and  C_7
REMARK    3  A    between atoms: N_12  and  C_13
REMARK    4  A    between atoms: C_25  and  N_26
REMARK                            x       y       z     vdW  Elec       q    Type
REMARK                         _______ _______ _______ _____ _____    ______ ____
ROOT
ATOM      1  C   UNL     1       8.690   9.375  18.981  0.00  0.00    +0.000 A 
ATOM      2  C   UNL     1       8.880   8.017  19.275  0.00  0.00    +0.000 A 
ATOM      3  C   UNL     1       8.186   7.044  18.565  0.00  0.00    +0.000 A 
ATOM      4  C   UNL     1       7.367   7.429  17.502  0.00  0.00    +0.000 A 
ATOM      5  C   UNL     1       7.202   8.789  17.195  0.00  0.00    +0.000 A 
ATOM      6  C   UNL     1       7.901   9.762  17.902  0.00  0.00    +0.000 A 
ENDROOT
BRANCH   1   8
ATOM      7  O   UNL     1       9.160  10.270  21.079  0.00  0.00    +0.000 OA
ATOM      8  C   UNL     1       9.242  10.425  19.855  0.00  0.00    +0.000 C 
ATOM      9  N   UNL     1       9.834  11.533  19.258  0.00  0.00    +0.000 N 
ATOM     10  C   UNL     1      10.276  12.646  20.085  0.00  0.00    +0.000 C 
ATOM     11  C   UNL     1       9.809  13.970  19.476  0.00  0.00    +0.000 C 
ATOM     12  C   UNL     1      10.192  14.152  17.977  0.00  0.00    +0.000 C 
ATOM     13  C   UNL     1       9.729  12.874  17.234  0.00  0.00    +0.000 C 
ATOM     14  C   UNL     1      10.294  11.614  17.874  0.00  0.00    +0.000 C 
BRANCH  12  15
ATOM     15  N   UNL     1      11.631  14.451  17.767  0.00  0.00    +0.000 NA
ATOM     16  C   UNL     1      12.321  14.921  18.987  0.00  0.00    +0.000 C 
ATOM     17  C   UNL     1      12.171  16.429  18.982  0.00  0.00    +0.000 C 
ATOM     18  C   UNL     1      12.333  16.775  17.521  0.00  0.00    +0.000 C 
ATOM     19  C   UNL     1      11.876  15.527  16.778  0.00  0.00    +0.000 C 
ENDBRANCH  12  15
ENDBRANCH   1   8
BRANCH   4  20
ATOM     20  C   UNL     1       6.642   6.370  16.768  0.00  0.00    +0.000 C 
ATOM     21  O   UNL     1       6.946   6.177  15.592  0.00  0.00    +0.000 OA
ATOM     22  N   UNL     1       5.682   5.626  17.431  0.00  0.00    +0.000 N 
ATOM     23  C   UNL     1       5.174   4.419  16.785  0.00  0.00    +0.000 C 
ATOM     24  C   UNL     1       5.048   3.263  17.799  0.00  0.00    +0.000 C 
ATOM     25  N   UNL     1       4.329   3.602  19.058  0.00  0.00    +0.000 NA
ATOM     26  C   UNL     1       4.953   4.812  19.637  0.00  0.00    +0.000 C 
ATOM     27  C   UNL     1       4.969   6.001  18.661  0.00  0.00    +0.000 C 
BRANCH  25  28
ATOM     28  C   UNL     1       2.879   3.748  18.848  0.00  0.00    +0.000 C 
ATOM     29  C   UNL     1       2.234   2.440  18.386  0.00  0.00    +0.000 C 
ATOM     30  C   UNL     1       0.758   2.639  18.671  0.00  0.00    +0.000 C 
ATOM     31  C   UNL     1       0.711   3.435  19.966  0.00  0.00    +0.000 C 
ATOM     32  C   UNL     1       2.079   4.101  20.115  0.00  0.00    +0.000 C 
ENDBRANCH  25  28
ENDBRANCH   4  20
TORSDOF 4
ENDMDL
MODEL 5
REMARK VINA RESULT:      -7.5      1.458      1.624
REMARK  Name = 
REMARK  4 active torsions:
REMARK  status: ('A' for Active; 'I' for Inactive)
REMARK    1  A    between atoms: C_2  and  C_3
REMARK    2  A    between atoms: C_6  and  C_7
REMARK    3  A    between atoms: N_12  and  C_13
REMARK    4  A    between atoms: C_25  and  N_26
REMARK                            x       y       z     vdW  Elec       q    Type
REMARK                         _______ _______ _______ _____ _____    ______ ____
ROOT
ATOM      1  C   UNL     1       1.915   7.692  19.662  0.00  0.00    +0.000 A 
ATOM      2  C   UNL     1       2.013   8.256  18.382  0.00  0.00    +0.000 A 
ATOM      3  C   UNL     1       1.298   9.406  18.068  0.00  0.00    +0.000 A 
ATOM      4  C   UNL     1       0.552  10.039  19.064  0.00  0.00    +0.000 A 
ATOM      5  C   UNL     1       0.480   9.484  20.353  0.00  0.00    +0.000 A 
ATOM      6  C   UNL     1       1.201   8.337  20.667  0.00  0.00    +0.000 A 
ENDROOT
BRANCH   1   8
ATOM      7  O   UNL     1       2.086   5.761  20.954  0.00  0.00    +0.000 OA
ATOM      8  C   UNL     1       2.487   6.365  19.952  0.00  0.00    +0.000 C 
ATOM      9  N   UNL     1       3.444   5.857  19.079  0.00  0.00    +0.000 N 
ATOM     10  C   UNL     1       4.121   4.609  19.401  0.00  0.00    +0.000 C 
ATOM     11  C   UNL     1       5.628   4.760  19.185  0.00  0.00    +0.000 C 
ATOM     12  C   UNL     1       6.020   5.306  17.779  0.00  0.00    +0.000 C 
ATOM     13  C   UNL     1       5.178   6.585  17.541  0.00  0.00    +0.000 C 
ATOM     14  C   UNL     1       3.690   6.322  17.717  0.00  0.00    +0.000 C 
BRANCH  12  15
ATOM     15  N   UNL     1       5.865   4.305  16.693  0.00  0.00    +0.000 NA
ATOM     16  C   UNL     1       7.125   4.014  15.975  0.00  0.00    +0.000 C 
ATOM     17  C   UNL     1       7.180   5.009  14.834  0.00  0.00    +0.000 C 
ATOM     18  C   UNL     1       5.742   5.079  14.382  0.00  0.00    +0.000 C 
ATOM     19  C   UNL     1       4.932   4.729  15.623  0.00  0.00    +0.000 C 
ENDBRANCH  12  15
ENDBRANCH   1   8
BRANCH   4  20
ATOM     20  C   UNL     1      -0.198  11.259  18.697  0.00  0.00    +0.000 C 
ATOM     21  O   UNL     1      -1.186  11.127  17.975  0.00  0.00    +0.000 OA
ATOM     22  N   UNL     1       0.215  12.481  19.195  0.00  0.00    +0.000 N 
ATOM     23  C   UNL     1      -0.681  13.626  19.052  0.00  0.00    +0.000 C 
ATOM     24  C   UNL     1      -0.718  14.462  20.347  0.00  0.00    +0.000 C 
ATOM     25  N   UNL     1       0.615  14.825  20.904  0.00  0.00    +0.000 NA
ATOM     26  C   UNL     1       1.414  13.588  21.039  0.00  0.00    +0.000 C 
ATOM     27  C   UNL     1       1.549  12.816  19.715  0.00  0.00    +0.000 C 
BRANCH  25  28
ATOM     28  C   UNL     1       1.289  15.860  20.102  0.00  0.00    +0.000 C 
ATOM     29  C   UNL     1       0.490  17.164  20.064  0.00  0.00    +0.000 C 
ATOM     30  C   UNL     1       1.504  18.202  19.626  0.00  0.00    +0.000 C 
ATOM     31  C   UNL     1       2.807  17.785  20.292  0.00  0.00    +0.000 C 
ATOM     32  C   UNL     1       2.657  16.307  20.650  0.00  0.00    +0.000 C 
ENDBRANCH  25  28
ENDBRANCH   4  20
TORSDOF 4
ENDMDL
MODEL 6
REMARK VINA RESULT:      -7.5      5.718      8.366
REMARK  Name = 
REMARK  4 active torsions:
REMARK  status: ('A' for Active; 'I' for Inactive)
REMARK    1  A    between atoms: C_2  and  C_3
REMARK    2  A    between atoms: C_6  and  C_7
REMARK    3  A    between atoms: N_12  and  C_13
REMARK    4  A    between atoms: C_25  and  N_26
REMARK                            x       y       z     vdW  Elec       q    Type
REMARK                         _______ _______ _______ _____ _____    ______ ____
ROOT
ATOM      1  C   UNL     1       4.877  15.621  19.144  0.00  0.00    +0.000 A 
ATOM      2  C   UNL     1       4.212  15.137  18.008  0.00  0.00    +0.000 A 
ATOM      3  C   UNL     1       3.200  14.194  18.139  0.00  0.00    +0.000 A 
ATOM      4  C   UNL     1       2.797  13.798  19.416  0.00  0.00    +0.000 A 
ATOM      5  C   UNL     1       3.449  14.307  20.551  0.00  0.00    +0.000 A 
ATOM      6  C   UNL     1       4.457  15.256  20.419  0.00  0.00    +0.000 A 
ENDROOT
BRANCH   1   8
ATOM      7  O   UNL     1       5.947  17.671  18.871  0.00  0.00    +0.000 OA
ATOM      8  C   UNL     1       6.088  16.452  19.018  0.00  0.00    +0.000 C 
ATOM      9  N   UNL     1       7.326  15.821  19.078  0.00  0.00    +0.000 N 
ATOM     10  C   UNL     1       8.538  16.590  18.830  0.00  0.00    +0.000 C 
ATOM     11  C   UNL     1       9.452  15.831  17.867  0.00  0.00    +0.000 C 
ATOM     12  C   UNL     1       9.754  14.364  18.297  0.00  0.00    +0.000 C 
ATOM     13  C   UNL     1       8.390  13.691  18.595  0.00  0.00    +0.000 C 
ATOM     14  C   UNL     1       7.579  14.485  19.608  0.00  0.00    +0.000 C 
BRANCH  12  15
ATOM     15  N   UNL     1      10.705  14.264  19.433  0.00  0.00    +0.000 NA
ATOM     16  C   UNL     1      12.112  14.101  19.011  0.00  0.00    +0.000 C 
ATOM     17  C   UNL     1      12.332  12.606  18.904  0.00  0.00    +0.000 C 
ATOM     18  C   UNL     1      11.550  12.068  20.078  0.00  0.00    +0.000 C 
ATOM     19  C   UNL     1      10.456  13.101  20.315  0.00  0.00    +0.000 C 
ENDBRANCH  12  15
ENDBRANCH   1   8
BRANCH   4  20
ATOM     20  C   UNL     1       1.720  12.791  19.520  0.00  0.00    +0.000 C 
ATOM     21  O   UNL     1       1.835  11.759  18.861  0.00  0.00    +0.000 OA
ATOM     22  N   UNL     1       0.651  13.030  20.365  0.00  0.00    +0.000 N 
ATOM     23  C   UNL     1      -0.255  11.925  20.665  0.00  0.00    +0.000 C 
ATOM     24  C   UNL     1      -0.622  11.904  22.163  0.00  0.00    +0.000 C 
ATOM     25  N   UNL     1      -1.079  13.207  22.721  0.00  0.00    +0.000 NA
ATOM     26  C   UNL     1      -0.068  14.234  22.389  0.00  0.00    +0.000 C 
ATOM     27  C   UNL     1       0.208  14.335  20.879  0.00  0.00    +0.000 C 
BRANCH  25  28
ATOM     28  C   UNL     1      -2.433  13.563  22.263  0.00  0.00    +0.000 C 
ATOM     29  C   UNL     1      -3.475  12.534  22.705  0.00  0.00    +0.000 C 
ATOM     30  C   UNL     1      -4.794  13.269  22.570  0.00  0.00    +0.000 C 
ATOM     31  C   UNL     1      -4.491  14.703  22.979  0.00  0.00    +0.000 C 
ATOM     32  C   UNL     1      -2.979  14.882  22.840  0.00  0.00    +0.000 C 
ENDBRANCH  25  28
ENDBRANCH   4  20
TORSDOF 4
ENDMDL
MODEL 7
REMARK VINA RESULT:      -7.4      3.524     10.751
REMARK  Name = 
REMARK  4 active torsions:
REMARK  status: ('A' for Active; 'I' for Inactive)
REMARK    1  A    between atoms: C_2  and  C_3
REMARK    2  A    between atoms: C_6  and  C_7
REMARK    3  A    between atoms: N_12  and  C_13
REMARK    4  A    between atoms: C_25  and  N_26
REMARK                            x       y       z     vdW  Elec       q    Type
REMARK                         _______ _______ _______ _____ _____    ______ ____
ROOT
ATOM      1  C   UNL     1      -0.482  12.114  20.069  0.00  0.00    +0.000 A 
ATOM      2  C   UNL     1       0.394  11.912  21.146  0.00  0.00    +0.000 A 
ATOM      3  C   UNL     1       0.933  10.653  21.381  0.00  0.00    +0.000 A 
ATOM      4  C   UNL     1       0.662   9.616  20.486  0.00  0.00    +0.000 A 
ATOM      5  C   UNL     1      -0.194   9.832  19.394  0.00  0.00    +0.000 A 
ATOM      6  C   UNL     1      -0.729  11.094  19.156  0.00  0.00    +0.000 A 
ENDROOT
BRANCH   1   8
ATOM      7  O   UNL     1      -0.782  14.238  19.163  0.00  0.00    +0.000 OA
ATOM      8  C   UNL     1      -1.230  13.376  19.928  0.00  0.00    +0.000 C 
ATOM      9  N   UNL     1      -2.405  13.528  20.656  0.00  0.00    +0.000 N 
ATOM     10  C   UNL     1      -3.102  14.806  20.639  0.00  0.00    +0.000 C 
ATOM     11  C   UNL     1      -3.488  15.212  22.063  0.00  0.00    +0.000 C 
ATOM     12  C   UNL     1      -4.271  14.116  22.847  0.00  0.00    +0.000 C 
ATOM     13  C   UNL     1      -3.458  12.803  22.723  0.00  0.00    +0.000 C 
ATOM     14  C   UNL     1      -3.175  12.450  21.270  0.00  0.00    +0.000 C 
BRANCH  12  15
ATOM     15  N   UNL     1      -5.680  13.964  22.403  0.00  0.00    +0.000 NA
ATOM     16  C   UNL     1      -6.469  15.210  22.504  0.00  0.00    +0.000 C 
ATOM     17  C   UNL     1      -7.072  15.196  23.894  0.00  0.00    +0.000 C 
ATOM     18  C   UNL     1      -7.433  13.742  24.086  0.00  0.00    +0.000 C 
ATOM     19  C   UNL     1      -6.452  12.983  23.202  0.00  0.00    +0.000 C 
ENDBRANCH  12  15
ENDBRANCH   1   8
BRANCH   4  20
ATOM     20  C   UNL     1       1.249   8.288  20.767  0.00  0.00    +0.000 C 
ATOM     21  O   UNL     1       0.986   7.763  21.848  0.00  0.00    +0.000 OA
ATOM     22  N   UNL     1       2.038   7.682  19.806  0.00  0.00    +0.000 N 
ATOM     23  C   UNL     1       2.383   6.274  19.980  0.00  0.00    +0.000 C 
ATOM     24  C   UNL     1       2.265   5.509  18.646  0.00  0.00    +0.000 C 
ATOM     25  N   UNL     1       2.955   6.144  17.490  0.00  0.00    +0.000 NA
ATOM     26  C   UNL     1       2.500   7.548  17.392  0.00  0.00    +0.000 C 
ATOM     27  C   UNL     1       2.730   8.342  18.688  0.00  0.00    +0.000 C 
BRANCH  25  28
ATOM     28  C   UNL     1       4.420   6.019  17.580  0.00  0.00    +0.000 C 
ATOM     29  C   UNL     1       4.864   4.558  17.669  0.00  0.00    +0.000 C 
ATOM     30  C   UNL     1       6.332   4.598  17.290  0.00  0.00    +0.000 C 
ATOM     31  C   UNL     1       6.429   5.664  16.208  0.00  0.00    +0.000 C 
ATOM     32  C   UNL     1       5.185   6.540  16.350  0.00  0.00    +0.000 C 
ENDBRANCH  25  28
ENDBRANCH   4  20
TORSDOF 4
ENDMDL
MODEL 8
REMARK VINA RESULT:      -7.3      3.539     10.602
REMARK  Name = 
REMARK  4 active torsions:
REMARK  status: ('A' for Active; 'I' for Inactive)
REMARK    1  A    between atoms: C_2  and  C_3
REMARK    2  A    between atoms: C_6  and  C_7
REMARK    3  A    between atoms: N_12  and  C_13
REMARK    4  A    between atoms: C_25  and  N_26
REMARK                            x       y       z     vdW  Elec       q    Type
REMARK                         _______ _______ _______ _____ _____    ______ ____
ROOT
ATOM      1  C   UNL     1       0.186   9.873  21.393  0.00  0.00    +0.000 A 
ATOM      2  C   UNL     1       0.152  10.486  20.132  0.00  0.00    +0.000 A 
ATOM      3  C   UNL     1       0.894   9.960  19.080  0.00  0.00    +0.000 A 
ATOM      4  C   UNL     1       1.602   8.772  19.270  0.00  0.00    +0.000 A 
ATOM      5  C   UNL     1       1.609   8.149  20.529  0.00  0.00    +0.000 A 
ATOM      6  C   UNL     1       0.862   8.672  21.579  0.00  0.00    +0.000 A 
ENDROOT
BRANCH   1   8
ATOM      7  O   UNL     1      -0.133  10.086  23.690  0.00  0.00    +0.000 OA
ATOM      8  C   UNL     1      -0.413  10.528  22.570  0.00  0.00    +0.000 C 
ATOM      9  N   UNL     1      -1.257  11.613  22.359  0.00  0.00    +0.000 N 
ATOM     10  C   UNL     1      -1.966  12.203  23.486  0.00  0.00    +0.000 C 
ATOM     11  C   UNL     1      -3.436  12.421  23.125  0.00  0.00    +0.000 C 
ATOM     12  C   UNL     1      -3.657  13.212  21.801  0.00  0.00    +0.000 C 
ATOM     13  C   UNL     1      -2.796  12.522  20.713  0.00  0.00    +0.000 C 
ATOM     14  C   UNL     1      -1.339  12.406  21.137  0.00  0.00    +0.000 C 
BRANCH  12  15
ATOM     15  N   UNL     1      -3.371  14.664  21.925  0.00  0.00    +0.000 NA
ATOM     16  C   UNL     1      -3.899  15.265  23.169  0.00  0.00    +0.000 C 
ATOM     17  C   UNL     1      -5.300  15.732  22.830  0.00  0.00    +0.000 C 
ATOM     18  C   UNL     1      -5.144  16.265  21.427  0.00  0.00    +0.000 C 
ATOM     19  C   UNL     1      -3.973  15.483  20.847  0.00  0.00    +0.000 C 
ENDBRANCH  12  15
ENDBRANCH   1   8
BRANCH   4  20
ATOM     20  C   UNL     1       2.382   8.242  18.132  0.00  0.00    +0.000 C 
ATOM     21  O   UNL     1       2.469   8.940  17.123  0.00  0.00    +0.000 OA
ATOM     22  N   UNL     1       2.999   7.010  18.252  0.00  0.00    +0.000 N 
ATOM     23  C   UNL     1       3.979   6.625  17.240  0.00  0.00    +0.000 C 
ATOM     24  C   UNL     1       5.213   5.965  17.890  0.00  0.00    +0.000 C 
ATOM     25  N   UNL     1       4.910   4.876  18.859  0.00  0.00    +0.000 NA
ATOM     26  C   UNL     1       3.943   5.393  19.851  0.00  0.00    +0.000 C 
ATOM     27  C   UNL     1       2.660   5.942  19.205  0.00  0.00    +0.000 C 
BRANCH  25  28
ATOM     28  C   UNL     1       4.447   3.649  18.189  0.00  0.00    +0.000 C 
ATOM     29  C   UNL     1       4.167   2.525  19.188  0.00  0.00    +0.000 C 
ATOM     30  C   UNL     1       3.292   1.558  18.413  0.00  0.00    +0.000 C 
ATOM     31  C   UNL     1       2.407   2.439  17.543  0.00  0.00    +0.000 C 
ATOM     32  C   UNL     1       3.109   3.792  17.442  0.00  0.00    +0.000 C 
ENDBRANCH  25  28
ENDBRANCH   4  20
TORSDOF 4
ENDMDL
MODEL 9
REMARK VINA RESULT:      -7.3      2.966      3.737
REMARK  Name = 
REMARK  4 active torsions:
REMARK  status: ('A' for Active; 'I' for Inactive)
REMARK    1  A    between atoms: C_2  and  C_3
REMARK    2  A    between atoms: C_6  and  C_7
REMARK    3  A    between atoms: N_12  and  C_13
REMARK    4  A    between atoms: C_25  and  N_26
REMARK                            x       y       z     vdW  Elec       q    Type
REMARK                         _______ _______ _______ _____ _____    ______ ____
ROOT
ATOM      1  C   UNL     1       1.366   8.146  20.125  0.00  0.00    +0.000 A 
ATOM      2  C   UNL     1       1.477   8.927  18.965  0.00  0.00    +0.000 A 
ATOM      3  C   UNL     1       0.684  10.057  18.806  0.00  0.00    +0.000 A 
ATOM      4  C   UNL     1      -0.159  10.452  19.846  0.00  0.00    +0.000 A 
ATOM      5  C   UNL     1      -0.246   9.680  21.016  0.00  0.00    +0.000 A 
ATOM      6  C   UNL     1       0.553   8.553  21.178  0.00  0.00    +0.000 A 
ENDROOT
BRANCH   1   8
ATOM      7  O   UNL     1       1.837   6.154  21.236  0.00  0.00    +0.000 OA
ATOM      8  C   UNL     1       2.033   6.835  20.223  0.00  0.00    +0.000 C 
ATOM      9  N   UNL     1       2.842   6.429  19.166  0.00  0.00    +0.000 N 
ATOM     10  C   UNL     1       3.615   5.201  19.283  0.00  0.00    +0.000 C 
ATOM     11  C   UNL     1       5.054   5.441  18.822  0.00  0.00    +0.000 C 
ATOM     12  C   UNL     1       5.171   6.088  17.409  0.00  0.00    +0.000 C 
ATOM     13  C   UNL     1       4.250   7.334  17.405  0.00  0.00    +0.000 C 
ATOM     14  C   UNL     1       2.827   6.985  17.817  0.00  0.00    +0.000 C 
BRANCH  12  15
ATOM     15  N   UNL     1       4.870   5.146  16.301  0.00  0.00    +0.000 NA
ATOM     16  C   UNL     1       5.550   3.841  16.435  0.00  0.00    +0.000 C 
ATOM     17  C   UNL     1       6.879   4.002  15.724  0.00  0.00    +0.000 C 
ATOM     18  C   UNL     1       6.515   4.845  14.525  0.00  0.00    +0.000 C 
ATOM     19  C   UNL     1       5.294   5.640  14.970  0.00  0.00    +0.000 C 
ENDBRANCH  12  15
ENDBRANCH   1   8
BRANCH   4  20
ATOM     20  C   UNL     1      -0.991  11.658  19.643  0.00  0.00    +0.000 C 
ATOM     21  O   UNL     1      -1.363  11.909  18.497  0.00  0.00    +0.000 OA
ATOM     22  N   UNL     1      -1.338  12.430  20.736  0.00  0.00    +0.000 N 
ATOM     23  C   UNL     1      -2.371  13.448  20.564  0.00  0.00    +0.000 C 
ATOM     24  C   UNL     1      -3.343  13.454  21.763  0.00  0.00    +0.000 C 
ATOM     25  N   UNL     1      -2.694  13.496  23.102  0.00  0.00    +0.000 NA
ATOM     26  C   UNL     1      -1.701  12.402  23.171  0.00  0.00    +0.000 C 
ATOM     27  C   UNL     1      -0.660  12.468  22.040  0.00  0.00    +0.000 C 
BRANCH  25  28
ATOM     28  C   UNL     1      -2.116  14.817  23.399  0.00  0.00    +0.000 C 
ATOM     29  C   UNL     1      -3.188  15.905  23.480  0.00  0.00    +0.000 C 
ATOM     30  C   UNL     1      -2.506  17.036  24.225  0.00  0.00    +0.000 C 
ATOM     31  C   UNL     1      -1.622  16.351  25.256  0.00  0.00    +0.000 C 
ATOM     32  C   UNL     1      -1.414  14.919  24.766  0.00  0.00    +0.000 C 
ENDBRANCH  25  28
ENDBRANCH   4  20
TORSDOF 4
ENDMDL
