MODEL 1
REMARK VINA RESULT:      -7.7      0.000      0.000
REMARK  Name = 
REMARK  8 active torsions:
REMARK  status: ('A' for Active; 'I' for Inactive)
REMARK    1  A    between atoms: C_1  and  O_2
REMARK    2  A    between atoms: O_2  and  C_3
REMARK    3  A    between atoms: C_7  and  C_8
REMARK    4  A    between atoms: C_10  and  S_11
REMARK    5  A    between atoms: S_11  and  C_12
REMARK    6  A    between atoms: C_12  and  C_13
REMARK    7  A    between atoms: C_21  and  O_22
REMARK    8  A    between atoms: C_23  and  C_24
REMARK                            x       y       z     vdW  Elec       q    Type
REMARK                         _______ _______ _______ _____ _____    ______ ____
ROOT
ATOM      1  C   UNL     1       4.191   6.167  17.892  0.00  0.00    +0.000 A 
ATOM      2  N   UNL     1       3.608   7.362  17.595  0.00  0.00    +0.000 NA
ATOM      3  C   UNL     1       2.663   7.857  18.417  0.00  0.00    +0.000 A 
ATOM      4  N   UNL     1       2.254   7.255  19.539  0.00  0.00    +0.000 NA
ATOM      5  C   UNL     1       2.843   6.073  19.790  0.00  0.00    +0.000 A 
ATOM      6  C   UNL     1       3.805   5.456  19.016  0.00  0.00    +0.000 A 
ENDROOT
BRANCH   1  11
ATOM      7  C   UNL     1       5.651   4.548  14.757  0.00  0.00    +0.000 A 
ATOM      8  C   UNL     1       7.018   4.667  14.992  0.00  0.00    +0.000 A 
ATOM      9  C   UNL     1       7.480   5.329  16.124  0.00  0.00    +0.000 A 
ATOM     10  C   UNL     1       6.571   5.859  17.042  0.00  0.00    +0.000 A 
ATOM     11  C   UNL     1       5.182   5.707  16.877  0.00  0.00    +0.000 A 
ATOM     12  C   UNL     1       4.745   5.072  15.689  0.00  0.00    +0.000 A 
BRANCH   7  14
ATOM     13  C   UNL     1       6.385   3.651  12.675  0.00  0.00    +0.000 C 
ATOM     14  O   UNL     1       5.336   3.883  13.605  0.00  0.00    +0.000 OA
ENDBRANCH   7  14
ENDBRANCH   1  11
BRANCH   5  15
ATOM     15  O   UNL     1       2.379   5.473  20.923  0.00  0.00    +0.000 OA
ATOM     16  H   UNL     1       1.470   5.816  20.985  0.00  0.00    +0.000 HD
ENDBRANCH   5  15
BRANCH   6  17
ATOM     17  C   UNL     1       4.290   4.158  19.368  0.00  0.00    +0.000 C 
ATOM     18  N   UNL     1       4.664   3.099  19.668  0.00  0.00    +0.000 NA
ENDBRANCH   6  17
BRANCH   3  19
ATOM     19  S   UNL     1       1.827   9.314  17.836  0.00  0.00    +0.000 S 
BRANCH  19  20
ATOM     20  C   UNL     1       0.720   9.704  19.232  0.00  0.00    +0.000 C 
BRANCH  20  21
ATOM     21  C   UNL     1      -0.600  10.267  18.731  0.00  0.00    +0.000 A 
ATOM     22  C   UNL     1      -1.284  11.257  19.459  0.00  0.00    +0.000 A 
ATOM     23  C   UNL     1      -2.519  11.743  19.017  0.00  0.00    +0.000 A 
ATOM     24  C   UNL     1      -3.084  11.247  17.846  0.00  0.00    +0.000 A 
ATOM     25 CL   UNL     1      -4.611  11.834  17.311  0.00  0.00    +0.000 Cl
ATOM     26  C   UNL     1      -2.420  10.268  17.109  0.00  0.00    +0.000 A 
ATOM     27  C   UNL     1      -1.183   9.781  17.548  0.00  0.00    +0.000 A 
ENDBRANCH  20  21
ENDBRANCH  19  20
ENDBRANCH   3  19
TORSDOF 7
ENDMDL
MODEL 2
REMARK VINA RESULT:      -7.6      0.367      1.015
REMARK  Name = 
REMARK  8 active torsions:
REMARK  status: ('A' for Active; 'I' for Inactive)
REMARK    1  A    between atoms: C_1  and  O_2
REMARK    2  A    between atoms: O_2  and  C_3
REMARK    3  A    between atoms: C_7  and  C_8
REMARK    4  A    between atoms: C_10  and  S_11
REMARK    5  A    between atoms: S_11  and  C_12
REMARK    6  A    between atoms: C_12  and  C_13
REMARK    7  A    between atoms: C_21  and  O_22
REMARK    8  A    between atoms: C_23  and  C_24
REMARK                            x       y       z     vdW  Elec       q    Type
REMARK                         _______ _______ _______ _____ _____    ______ ____
ROOT
ATOM      1  C   UNL     1       4.049   5.996  18.137  0.00  0.00    +0.000 A 
ATOM      2  N   UNL     1       3.573   7.223  17.788  0.00  0.00    +0.000 NA
ATOM      3  C   UNL     1       2.603   7.790  18.532  0.00  0.00    +0.000 A 
ATOM      4  N   UNL     1       2.069   7.229  19.623  0.00  0.00    +0.000 NA
ATOM      5  C   UNL     1       2.557   6.014  19.927  0.00  0.00    +0.000 A 
ATOM      6  C   UNL     1       3.532   5.325  19.234  0.00  0.00    +0.000 A 
ENDROOT
BRANCH   1  11
ATOM      7  C   UNL     1       5.644   4.431  15.041  0.00  0.00    +0.000 A 
ATOM      8  C   UNL     1       6.966   4.281  15.453  0.00  0.00    +0.000 A 
ATOM      9  C   UNL     1       7.368   4.743  16.701  0.00  0.00    +0.000 A 
ATOM     10  C   UNL     1       6.440   5.343  17.556  0.00  0.00    +0.000 A 
ATOM     11  C   UNL     1       5.083   5.458  17.206  0.00  0.00    +0.000 A 
ATOM     12  C   UNL     1       4.717   5.023  15.909  0.00  0.00    +0.000 A 
BRANCH   7  14
ATOM     13  C   UNL     1       6.477   3.866  12.881  0.00  0.00    +0.000 C 
ATOM     14  O   UNL     1       5.388   3.941  13.791  0.00  0.00    +0.000 OA
ENDBRANCH   7  14
ENDBRANCH   1  11
BRANCH   5  15
ATOM     15  O   UNL     1       1.968   5.459  21.024  0.00  0.00    +0.000 OA
ATOM     16  H   UNL     1       1.024   5.640  20.870  0.00  0.00    +0.000 HD
ENDBRANCH   5  15
BRANCH   6  17
ATOM     17  C   UNL     1       3.901   4.002  19.631  0.00  0.00    +0.000 C 
ATOM     18  N   UNL     1       4.184   2.917  19.936  0.00  0.00    +0.000 NA
ENDBRANCH   6  17
BRANCH   3  19
ATOM     19  S   UNL     1       1.913   9.292  17.878  0.00  0.00    +0.000 S 
BRANCH  19  20
ATOM     20  C   UNL     1       0.861   9.861  19.253  0.00  0.00    +0.000 C 
BRANCH  20  21
ATOM     21  C   UNL     1      -0.500  10.304  18.742  0.00  0.00    +0.000 A 
ATOM     22  C   UNL     1      -1.045   9.751  17.569  0.00  0.00    +0.000 A 
ATOM     23  C   UNL     1      -2.279  10.192  17.079  0.00  0.00    +0.000 A 
ATOM     24  C   UNL     1      -2.982  11.187  17.753  0.00  0.00    +0.000 A 
ATOM     25 CL   UNL     1      -4.493  11.739  17.141  0.00  0.00    +0.000 Cl
ATOM     26  C   UNL     1      -2.460  11.744  18.919  0.00  0.00    +0.000 A 
ATOM     27  C   UNL     1      -1.225  11.304  19.412  0.00  0.00    +0.000 A 
ENDBRANCH  20  21
ENDBRANCH  19  20
ENDBRANCH   3  19
TORSDOF 7
ENDMDL
MODEL 3
REMARK VINA RESULT:      -7.6      3.915      7.532
REMARK  Name = 
REMARK  8 active torsions:
REMARK  status: ('A' for Active; 'I' for Inactive)
REMARK    1  A    between atoms: C_1  and  O_2
REMARK    2  A    between atoms: O_2  and  C_3
REMARK    3  A    between atoms: C_7  and  C_8
REMARK    4  A    between atoms: C_10  and  S_11
REMARK    5  A    between atoms: S_11  and  C_12
REMARK    6  A    between atoms: C_12  and  C_13
REMARK    7  A    between atoms: C_21  and  O_22
REMARK    8  A    between atoms: C_23  and  C_24
REMARK                            x       y       z     vdW  Elec       q    Type
REMARK                         _______ _______ _______ _____ _____    ______ ____
ROOT
ATOM      1  C   UNL     1       3.421   5.596  19.519  0.00  0.00    +0.000 A 
ATOM      2  N   UNL     1       4.739   5.930  19.430  0.00  0.00    +0.000 NA
ATOM      3  C   UNL     1       5.661   4.953  19.329  0.00  0.00    +0.000 A 
ATOM      4  N   UNL     1       5.371   3.648  19.294  0.00  0.00    +0.000 NA
ATOM      5  C   UNL     1       4.062   3.359  19.397  0.00  0.00    +0.000 A 
ATOM      6  C   UNL     1       3.030   4.267  19.525  0.00  0.00    +0.000 A 
ENDROOT
BRANCH   1  11
ATOM      7  C   UNL     1       1.597   8.869  18.785  0.00  0.00    +0.000 A 
ATOM      8  C   UNL     1       0.919   9.085  19.982  0.00  0.00    +0.000 A 
ATOM      9  C   UNL     1       0.988   8.148  21.006  0.00  0.00    +0.000 A 
ATOM     10  C   UNL     1       1.757   6.994  20.846  0.00  0.00    +0.000 A 
ATOM     11  C   UNL     1       2.508   6.764  19.678  0.00  0.00    +0.000 A 
ATOM     12  C   UNL     1       2.376   7.714  18.636  0.00  0.00    +0.000 A 
BRANCH   7  14
ATOM     13  C   UNL     1       2.006  11.131  18.158  0.00  0.00    +0.000 C 
ATOM     14  O   UNL     1       1.436   9.864  17.861  0.00  0.00    +0.000 OA
ENDBRANCH   7  14
ENDBRANCH   1  11
BRANCH   5  15
ATOM     15  O   UNL     1       3.807   2.020  19.391  0.00  0.00    +0.000 OA
ATOM     16  H   UNL     1       2.879   1.981  19.685  0.00  0.00    +0.000 HD
ENDBRANCH   5  15
BRANCH   6  17
ATOM     17  C   UNL     1       1.687   3.811  19.701  0.00  0.00    +0.000 C 
ATOM     18  N   UNL     1       0.589   3.449  19.821  0.00  0.00    +0.000 NA
ENDBRANCH   6  17
BRANCH   3  19
ATOM     19  S   UNL     1       7.355   5.484  19.422  0.00  0.00    +0.000 S 
BRANCH  19  20
ATOM     20  C   UNL     1       7.499   6.565  17.962  0.00  0.00    +0.000 C 
BRANCH  20  21
ATOM     21  C   UNL     1       6.893   5.899  16.737  0.00  0.00    +0.000 A 
ATOM     22  C   UNL     1       5.772   6.455  16.095  0.00  0.00    +0.000 A 
ATOM     23  C   UNL     1       5.191   5.817  14.994  0.00  0.00    +0.000 A 
ATOM     24  C   UNL     1       5.722   4.619  14.522  0.00  0.00    +0.000 A 
ATOM     25 CL   UNL     1       4.998   3.827  13.177  0.00  0.00    +0.000 Cl
ATOM     26  C   UNL     1       6.835   4.055  15.143  0.00  0.00    +0.000 A 
ATOM     27  C   UNL     1       7.419   4.693  16.245  0.00  0.00    +0.000 A 
ENDBRANCH  20  21
ENDBRANCH  19  20
ENDBRANCH   3  19
TORSDOF 7
ENDMDL
MODEL 4
REMARK VINA RESULT:      -7.5      2.280      2.708
REMARK  Name = 
REMARK  8 active torsions:
REMARK  status: ('A' for Active; 'I' for Inactive)
REMARK    1  A    between atoms: C_1  and  O_2
REMARK    2  A    between atoms: O_2  and  C_3
REMARK    3  A    between atoms: C_7  and  C_8
REMARK    4  A    between atoms: C_10  and  S_11
REMARK    5  A    between atoms: S_11  and  C_12
REMARK    6  A    between atoms: C_12  and  C_13
REMARK    7  A    between atoms: C_21  and  O_22
REMARK    8  A    between atoms: C_23  and  C_24
REMARK                            x       y       z     vdW  Elec       q    Type
REMARK                         _______ _______ _______ _____ _____    ______ ____
ROOT
ATOM      1  C   UNL     1       3.794   4.836  18.807  0.00  0.00    +0.000 A 
ATOM      2  N   UNL     1       3.420   6.116  19.084  0.00  0.00    +0.000 NA
ATOM      3  C   UNL     1       2.340   6.334  19.859  0.00  0.00    +0.000 A 
ATOM      4  N   UNL     1       1.598   5.363  20.402  0.00  0.00    +0.000 NA
ATOM      5  C   UNL     1       1.992   4.115  20.096  0.00  0.00    +0.000 A 
ATOM      6  C   UNL     1       3.065   3.766  19.300  0.00  0.00    +0.000 A 
ENDROOT
BRANCH   1  11
ATOM      7  C   UNL     1       5.878   4.237  15.663  0.00  0.00    +0.000 A 
ATOM      8  C   UNL     1       7.173   4.360  16.159  0.00  0.00    +0.000 A 
ATOM      9  C   UNL     1       7.385   4.703  17.490  0.00  0.00    +0.000 A 
ATOM     10  C   UNL     1       6.296   4.906  18.340  0.00  0.00    +0.000 A 
ATOM     11  C   UNL     1       4.972   4.731  17.898  0.00  0.00    +0.000 A 
ATOM     12  C   UNL     1       4.791   4.430  16.526  0.00  0.00    +0.000 A 
BRANCH   7  14
ATOM     13  C   UNL     1       6.828   4.415  13.485  0.00  0.00    +0.000 C 
ATOM     14  O   UNL     1       5.814   3.903  14.339  0.00  0.00    +0.000 OA
ENDBRANCH   7  14
ENDBRANCH   1  11
BRANCH   5  15
ATOM     15  O   UNL     1       1.195   3.153  20.639  0.00  0.00    +0.000 OA
ATOM     16  H   UNL     1       0.634   2.894  19.887  0.00  0.00    +0.000 HD
ENDBRANCH   5  15
BRANCH   6  17
ATOM     17  C   UNL     1       3.322   2.393  18.997  0.00  0.00    +0.000 C 
ATOM     18  N   UNL     1       3.536   1.284  18.727  0.00  0.00    +0.000 NA
ENDBRANCH   6  17
BRANCH   3  19
ATOM     19  S   UNL     1       1.820   8.029  19.992  0.00  0.00    +0.000 S 
BRANCH  19  20
ATOM     20  C   UNL     1       0.845   8.012  21.531  0.00  0.00    +0.000 C 
BRANCH  20  21
ATOM     21  C   UNL     1       0.085   9.317  21.702  0.00  0.00    +0.000 A 
ATOM     22  C   UNL     1      -0.412   9.703  22.960  0.00  0.00    +0.000 A 
ATOM     23  C   UNL     1      -1.147  10.884  23.105  0.00  0.00    +0.000 A 
ATOM     24  C   UNL     1      -1.394  11.692  21.998  0.00  0.00    +0.000 A 
ATOM     25 CL   UNL     1      -2.312  13.137  22.175  0.00  0.00    +0.000 Cl
ATOM     26  C   UNL     1      -0.907  11.328  20.744  0.00  0.00    +0.000 A 
ATOM     27  C   UNL     1      -0.169  10.147  20.597  0.00  0.00    +0.000 A 
ENDBRANCH  20  21
ENDBRANCH  19  20
ENDBRANCH   3  19
TORSDOF 7
ENDMDL
MODEL 5
REMARK VINA RESULT:      -7.5      2.196      2.756
REMARK  Name = 
REMARK  8 active torsions:
REMARK  status: ('A' for Active; 'I' for Inactive)
REMARK    1  A    between atoms: C_1  and  O_2
REMARK    2  A    between atoms: O_2  and  C_3
REMARK    3  A    between atoms: C_7  and  C_8
REMARK    4  A    between atoms: C_10  and  S_11
REMARK    5  A    between atoms: S_11  and  C_12
REMARK    6  A    between atoms: C_12  and  C_13
REMARK    7  A    between atoms: C_21  and  O_22
REMARK    8  A    between atoms: C_23  and  C_24
REMARK                            x       y       z     vdW  Elec       q    Type
REMARK                         _______ _______ _______ _____ _____    ______ ____
ROOT
ATOM      1  C   UNL     1       3.898   5.236  19.106  0.00  0.00    +0.000 A 
ATOM      2  N   UNL     1       3.384   6.491  19.235  0.00  0.00    +0.000 NA
ATOM      3  C   UNL     1       2.291   6.680  20.000  0.00  0.00    +0.000 A 
ATOM      4  N   UNL     1       1.667   5.706  20.671  0.00  0.00    +0.000 NA
ATOM      5  C   UNL     1       2.197   4.481  20.508  0.00  0.00    +0.000 A 
ATOM      6  C   UNL     1       3.297   4.159  19.738  0.00  0.00    +0.000 A 
ENDROOT
BRANCH   1  11
ATOM      7  C   UNL     1       5.966   5.074  15.901  0.00  0.00    +0.000 A 
ATOM      8  C   UNL     1       7.244   4.841  16.404  0.00  0.00    +0.000 A 
ATOM      9  C   UNL     1       7.461   4.803  17.777  0.00  0.00    +0.000 A 
ATOM     10  C   UNL     1       6.391   4.978  18.657  0.00  0.00    +0.000 A 
ATOM     11  C   UNL     1       5.074   5.153  18.193  0.00  0.00    +0.000 A 
ATOM     12  C   UNL     1       4.897   5.236  16.790  0.00  0.00    +0.000 A 
BRANCH   7  14
ATOM     13  C   UNL     1       6.087   3.863  13.851  0.00  0.00    +0.000 C 
ATOM     14  O   UNL     1       5.897   5.094  14.535  0.00  0.00    +0.000 OA
ENDBRANCH   7  14
ENDBRANCH   1  11
BRANCH   5  15
ATOM     15  O   UNL     1       1.516   3.509  21.179  0.00  0.00    +0.000 OA
ATOM     16  H   UNL     1       0.846   3.235  20.528  0.00  0.00    +0.000 HD
ENDBRANCH   5  15
BRANCH   6  17
ATOM     17  C   UNL     1       3.704   2.797  19.597  0.00  0.00    +0.000 C 
ATOM     18  N   UNL     1       4.013   1.682  19.491  0.00  0.00    +0.000 NA
ENDBRANCH   6  17
BRANCH   3  19
ATOM     19  S   UNL     1       1.585   8.310  19.940  0.00  0.00    +0.000 S 
BRANCH  19  20
ATOM     20  C   UNL     1       1.142   8.601  21.684  0.00  0.00    +0.000 C 
BRANCH  20  21
ATOM     21  C   UNL     1       0.144   9.741  21.802  0.00  0.00    +0.000 A 
ATOM     22  C   UNL     1      -0.134  10.574  20.704  0.00  0.00    +0.000 A 
ATOM     23  C   UNL     1      -1.022  11.648  20.829  0.00  0.00    +0.000 A 
ATOM     24  C   UNL     1      -1.640  11.903  22.050  0.00  0.00    +0.000 A 
ATOM     25 CL   UNL     1      -2.720  13.234  22.207  0.00  0.00    +0.000 Cl
ATOM     26  C   UNL     1      -1.380  11.087  23.149  0.00  0.00    +0.000 A 
ATOM     27  C   UNL     1      -0.493  10.010  23.026  0.00  0.00    +0.000 A 
ENDBRANCH  20  21
ENDBRANCH  19  20
ENDBRANCH   3  19
TORSDOF 7
ENDMDL
MODEL 6
REMARK VINA RESULT:      -7.5      2.461      3.269
REMARK  Name = 
REMARK  8 active torsions:
REMARK  status: ('A' for Active; 'I' for Inactive)
REMARK    1  A    between atoms: C_1  and  O_2
REMARK    2  A    between atoms: O_2  and  C_3
REMARK    3  A    between atoms: C_7  and  C_8
REMARK    4  A    between atoms: C_10  and  S_11
REMARK    5  A    between atoms: S_11  and  C_12
REMARK    6  A    between atoms: C_12  and  C_13
REMARK    7  A    between atoms: C_21  and  O_22
REMARK    8  A    between atoms: C_23  and  C_24
REMARK                            x       y       z     vdW  Elec       q    Type
REMARK                         _______ _______ _______ _____ _____    ______ ____
ROOT
ATOM      1  C   UNL     1       3.692   5.324  18.969  0.00  0.00    +0.000 A 
ATOM      2  N   UNL     1       3.119   6.555  19.075  0.00  0.00    +0.000 NA
ATOM      3  C   UNL     1       2.157   6.757  19.996  0.00  0.00    +0.000 A 
ATOM      4  N   UNL     1       1.722   5.819  20.845  0.00  0.00    +0.000 NA
ATOM      5  C   UNL     1       2.303   4.616  20.700  0.00  0.00    +0.000 A 
ATOM      6  C   UNL     1       3.281   4.282  19.785  0.00  0.00    +0.000 A 
ENDROOT
BRANCH   1  11
ATOM      7  C   UNL     1       6.722   6.098  16.778  0.00  0.00    +0.000 A 
ATOM      8  C   UNL     1       6.569   5.170  15.751  0.00  0.00    +0.000 A 
ATOM      9  C   UNL     1       5.531   4.246  15.790  0.00  0.00    +0.000 A 
ATOM     10  C   UNL     1       4.625   4.258  16.853  0.00  0.00    +0.000 A 
ATOM     11  C   UNL     1       4.705   5.217  17.879  0.00  0.00    +0.000 A 
ATOM     12  C   UNL     1       5.802   6.112  17.835  0.00  0.00    +0.000 A 
BRANCH   7  14
ATOM     13  C   UNL     1       7.898   8.035  17.517  0.00  0.00    +0.000 C 
ATOM     14  O   UNL     1       7.787   6.940  16.618  0.00  0.00    +0.000 OA
ENDBRANCH   7  14
ENDBRANCH   1  11
BRANCH   5  15
ATOM     15  O   UNL     1       1.812   3.678  21.559  0.00  0.00    +0.000 OA
ATOM     16  H   UNL     1       1.574   2.948  20.960  0.00  0.00    +0.000 HD
ENDBRANCH   5  15
BRANCH   6  17
ATOM     17  C   UNL     1       3.755   2.937  19.694  0.00  0.00    +0.000 C 
ATOM     18  N   UNL     1       4.119   1.835  19.633  0.00  0.00    +0.000 NA
ENDBRANCH   6  17
BRANCH   3  19
ATOM     19  S   UNL     1       1.338   8.332  19.916  0.00  0.00    +0.000 S 
BRANCH  19  20
ATOM     20  C   UNL     1       1.072   8.716  21.678  0.00  0.00    +0.000 C 
BRANCH  20  21
ATOM     21  C   UNL     1       0.066   9.845  21.837  0.00  0.00    +0.000 A 
ATOM     22  C   UNL     1      -0.198  10.731  20.777  0.00  0.00    +0.000 A 
ATOM     23  C   UNL     1      -1.093  11.794  20.942  0.00  0.00    +0.000 A 
ATOM     24  C   UNL     1      -1.732  11.984  22.163  0.00  0.00    +0.000 A 
ATOM     25 CL   UNL     1      -2.821  13.301  22.369  0.00  0.00    +0.000 Cl
ATOM     26  C   UNL     1      -1.486  11.115  23.224  0.00  0.00    +0.000 A 
ATOM     27  C   UNL     1      -0.592  10.049  23.062  0.00  0.00    +0.000 A 
ENDBRANCH  20  21
ENDBRANCH  19  20
ENDBRANCH   3  19
TORSDOF 7
ENDMDL
MODEL 7
REMARK VINA RESULT:      -7.5      2.439      3.185
REMARK  Name = 
REMARK  8 active torsions:
REMARK  status: ('A' for Active; 'I' for Inactive)
REMARK    1  A    between atoms: C_1  and  O_2
REMARK    2  A    between atoms: O_2  and  C_3
REMARK    3  A    between atoms: C_7  and  C_8
REMARK    4  A    between atoms: C_10  and  S_11
REMARK    5  A    between atoms: S_11  and  C_12
REMARK    6  A    between atoms: C_12  and  C_13
REMARK    7  A    between atoms: C_21  and  O_22
REMARK    8  A    between atoms: C_23  and  C_24
REMARK                            x       y       z     vdW  Elec       q    Type
REMARK                         _______ _______ _______ _____ _____    ______ ____
ROOT
ATOM      1  C   UNL     1       3.516   5.254  18.763  0.00  0.00    +0.000 A 
ATOM      2  N   UNL     1       3.119   6.531  19.022  0.00  0.00    +0.000 NA
ATOM      3  C   UNL     1       2.141   6.747  19.923  0.00  0.00    +0.000 A 
ATOM      4  N   UNL     1       1.527   5.778  20.610  0.00  0.00    +0.000 NA
ATOM      5  C   UNL     1       1.939   4.532  20.318  0.00  0.00    +0.000 A 
ATOM      6  C   UNL     1       2.912   4.184  19.403  0.00  0.00    +0.000 A 
ENDROOT
BRANCH   1  11
ATOM      7  C   UNL     1       6.666   5.979  16.730  0.00  0.00    +0.000 A 
ATOM      8  C   UNL     1       6.514   5.104  15.657  0.00  0.00    +0.000 A 
ATOM      9  C   UNL     1       5.435   4.228  15.614  0.00  0.00    +0.000 A 
ATOM     10  C   UNL     1       4.487   4.237  16.640  0.00  0.00    +0.000 A 
ATOM     11  C   UNL     1       4.568   5.147  17.710  0.00  0.00    +0.000 A 
ATOM     12  C   UNL     1       5.705   5.990  17.749  0.00  0.00    +0.000 A 
BRANCH   7  14
ATOM     13  C   UNL     1       7.811   7.931  17.477  0.00  0.00    +0.000 C 
ATOM     14  O   UNL     1       7.774   6.776  16.649  0.00  0.00    +0.000 OA
ENDBRANCH   7  14
ENDBRANCH   1  11
BRANCH   5  15
ATOM     15  O   UNL     1       1.268   3.569  21.012  0.00  0.00    +0.000 OA
ATOM     16  H   UNL     1       1.915   3.312  21.693  0.00  0.00    +0.000 HD
ENDBRANCH   5  15
BRANCH   6  17
ATOM     17  C   UNL     1       3.195   2.808  19.140  0.00  0.00    +0.000 C 
ATOM     18  N   UNL     1       3.406   1.689  18.908  0.00  0.00    +0.000 NA
ENDBRANCH   6  17
BRANCH   3  19
ATOM     19  S   UNL     1       1.560   8.422  20.038  0.00  0.00    +0.000 S 
BRANCH  19  20
ATOM     20  C   UNL     1       0.709   8.424  21.649  0.00  0.00    +0.000 C 
BRANCH  20  21
ATOM     21  C   UNL     1      -0.115   9.690  21.822  0.00  0.00    +0.000 A 
ATOM     22  C   UNL     1      -0.680  10.018  23.067  0.00  0.00    +0.000 A 
ATOM     23  C   UNL     1      -1.473  11.162  23.212  0.00  0.00    +0.000 A 
ATOM     24  C   UNL     1      -1.709  11.989  22.118  0.00  0.00    +0.000 A 
ATOM     25 CL   UNL     1      -2.697  13.387  22.293  0.00  0.00    +0.000 Cl
ATOM     26  C   UNL     1      -1.155  11.683  20.876  0.00  0.00    +0.000 A 
ATOM     27  C   UNL     1      -0.360  10.539  20.729  0.00  0.00    +0.000 A 
ENDBRANCH  20  21
ENDBRANCH  19  20
ENDBRANCH   3  19
TORSDOF 7
ENDMDL
MODEL 8
REMARK VINA RESULT:      -7.4      3.845      7.824
REMARK  Name = 
REMARK  8 active torsions:
REMARK  status: ('A' for Active; 'I' for Inactive)
REMARK    1  A    between atoms: C_1  and  O_2
REMARK    2  A    between atoms: O_2  and  C_3
REMARK    3  A    between atoms: C_7  and  C_8
REMARK    4  A    between atoms: C_10  and  S_11
REMARK    5  A    between atoms: S_11  and  C_12
REMARK    6  A    between atoms: C_12  and  C_13
REMARK    7  A    between atoms: C_21  and  O_22
REMARK    8  A    between atoms: C_23  and  C_24
REMARK                            x       y       z     vdW  Elec       q    Type
REMARK                         _______ _______ _______ _____ _____    ______ ____
ROOT
ATOM      1  C   UNL     1       3.458   5.806  19.407  0.00  0.00    +0.000 A 
ATOM      2  N   UNL     1       4.790   6.069  19.292  0.00  0.00    +0.000 NA
ATOM      3  C   UNL     1       5.669   5.049  19.332  0.00  0.00    +0.000 A 
ATOM      4  N   UNL     1       5.322   3.764  19.466  0.00  0.00    +0.000 NA
ATOM      5  C   UNL     1       4.001   3.548  19.590  0.00  0.00    +0.000 A 
ATOM      6  C   UNL     1       3.009   4.507  19.584  0.00  0.00    +0.000 A 
ENDROOT
BRANCH   1  11
ATOM      7  C   UNL     1       1.023   8.504  20.577  0.00  0.00    +0.000 A 
ATOM      8  C   UNL     1       0.821   9.226  19.403  0.00  0.00    +0.000 A 
ATOM      9  C   UNL     1       1.518   8.894  18.247  0.00  0.00    +0.000 A 
ATOM     10  C   UNL     1       2.409   7.819  18.254  0.00  0.00    +0.000 A 
ATOM     11  C   UNL     1       2.596   7.023  19.399  0.00  0.00    +0.000 A 
ATOM     12  C   UNL     1       1.909   7.420  20.572  0.00  0.00    +0.000 A 
BRANCH   7  14
ATOM     13  C   UNL     1       0.238  10.343  21.873  0.00  0.00    +0.000 C 
ATOM     14  O   UNL     1       0.282   8.943  21.639  0.00  0.00    +0.000 OA
ENDBRANCH   7  14
ENDBRANCH   1  11
BRANCH   5  15
ATOM     15  O   UNL     1       3.688   2.232  19.757  0.00  0.00    +0.000 OA
ATOM     16  H   UNL     1       3.720   1.890  18.847  0.00  0.00    +0.000 HD
ENDBRANCH   5  15
BRANCH   6  17
ATOM     17  C   UNL     1       1.646   4.137  19.802  0.00  0.00    +0.000 C 
ATOM     18  N   UNL     1       0.546   3.814  19.992  0.00  0.00    +0.000 NA
ENDBRANCH   6  17
BRANCH   3  19
ATOM     19  S   UNL     1       7.383   5.515  19.375  0.00  0.00    +0.000 S 
BRANCH  19  20
ATOM     20  C   UNL     1       7.551   6.506  17.855  0.00  0.00    +0.000 C 
BRANCH  20  21
ATOM     21  C   UNL     1       6.891   5.804  16.679  0.00  0.00    +0.000 A 
ATOM     22  C   UNL     1       7.380   4.572  16.209  0.00  0.00    +0.000 A 
ATOM     23  C   UNL     1       6.796   3.950  15.100  0.00  0.00    +0.000 A 
ATOM     24  C   UNL     1       5.721   4.550  14.449  0.00  0.00    +0.000 A 
ATOM     25 CL   UNL     1       5.015   3.791  13.075  0.00  0.00    +0.000 Cl
ATOM     26  C   UNL     1       5.222   5.769  14.902  0.00  0.00    +0.000 A 
ATOM     27  C   UNL     1       5.803   6.393  16.013  0.00  0.00    +0.000 A 
ENDBRANCH  20  21
ENDBRANCH  19  20
ENDBRANCH   3  19
TORSDOF 7
ENDMDL
MODEL 9
REMARK VINA RESULT:      -7.4      1.563      1.878
REMARK  Name = 
REMARK  8 active torsions:
REMARK  status: ('A' for Active; 'I' for Inactive)
REMARK    1  A    between atoms: C_1  and  O_2
REMARK    2  A    between atoms: O_2  and  C_3
REMARK    3  A    between atoms: C_7  and  C_8
REMARK    4  A    between atoms: C_10  and  S_11
REMARK    5  A    between atoms: S_11  and  C_12
REMARK    6  A    between atoms: C_12  and  C_13
REMARK    7  A    between atoms: C_21  and  O_22
REMARK    8  A    between atoms: C_23  and  C_24
REMARK                            x       y       z     vdW  Elec       q    Type
REMARK                         _______ _______ _______ _____ _____    ______ ____
ROOT
ATOM      1  C   UNL     1       3.469   5.330  19.218  0.00  0.00    +0.000 A 
ATOM      2  N   UNL     1       3.066   6.536  19.706  0.00  0.00    +0.000 NA
ATOM      3  C   UNL     1       1.899   6.621  20.373  0.00  0.00    +0.000 A 
ATOM      4  N   UNL     1       1.093   5.580  20.611  0.00  0.00    +0.000 NA
ATOM      5  C   UNL     1       1.519   4.411  20.103  0.00  0.00    +0.000 A 
ATOM      6  C   UNL     1       2.681   4.203  19.388  0.00  0.00    +0.000 A 
ENDROOT
BRANCH   1  11
ATOM      7  C   UNL     1       5.916   5.531  16.294  0.00  0.00    +0.000 A 
ATOM      8  C   UNL     1       7.135   5.323  16.935  0.00  0.00    +0.000 A 
ATOM      9  C   UNL     1       7.185   5.186  18.317  0.00  0.00    +0.000 A 
ATOM     10  C   UNL     1       6.008   5.235  19.067  0.00  0.00    +0.000 A 
ATOM     11  C   UNL     1       4.750   5.380  18.456  0.00  0.00    +0.000 A 
ATOM     12  C   UNL     1       4.738   5.567  17.052  0.00  0.00    +0.000 A 
BRANCH   7  14
ATOM     13  C   UNL     1       6.552   4.562  14.212  0.00  0.00    +0.000 C 
ATOM     14  O   UNL     1       6.011   5.658  14.936  0.00  0.00    +0.000 OA
ENDBRANCH   7  14
ENDBRANCH   1  11
BRANCH   5  15
ATOM     15  O   UNL     1       0.658   3.380  20.337  0.00  0.00    +0.000 OA
ATOM     16  H   UNL     1      -0.134   3.839  20.668  0.00  0.00    +0.000 HD
ENDBRANCH   5  15
BRANCH   6  17
ATOM     17  C   UNL     1       2.970   2.914  18.842  0.00  0.00    +0.000 C 
ATOM     18  N   UNL     1       3.183   1.866  18.385  0.00  0.00    +0.000 NA
ENDBRANCH   6  17
BRANCH   3  19
ATOM     19  S   UNL     1       1.371   8.266  20.789  0.00  0.00    +0.000 S 
BRANCH  19  20
ATOM     20  C   UNL     1       1.449   9.114  19.177  0.00  0.00    +0.000 C 
BRANCH  20  21
ATOM     21  C   UNL     1       0.141   9.829  18.881  0.00  0.00    +0.000 A 
ATOM     22  C   UNL     1      -0.415  10.730  19.807  0.00  0.00    +0.000 A 
ATOM     23  C   UNL     1      -1.640  11.354  19.548  0.00  0.00    +0.000 A 
ATOM     24  C   UNL     1      -2.324  11.085  18.365  0.00  0.00    +0.000 A 
ATOM     25 CL   UNL     1      -3.839  11.840  18.056  0.00  0.00    +0.000 Cl
ATOM     26  C   UNL     1      -1.788  10.197  17.434  0.00  0.00    +0.000 A 
ATOM     27  C   UNL     1      -0.561   9.573  17.690  0.00  0.00    +0.000 A 
ENDBRANCH  20  21
ENDBRANCH  19  20
ENDBRANCH   3  19
TORSDOF 7
ENDMDL
