MODEL 1
REMARK VINA RESULT:      -8.2      0.000      0.000
REMARK  Name = 
REMARK  6 active torsions:
REMARK  status: ('A' for Active; 'I' for Inactive)
REMARK    1  A    between atoms: C_1  and  N_2
REMARK    2  A    between atoms: C_3  and  C_5
REMARK    3  A    between atoms: C_6  and  C_7
REMARK    4  A    between atoms: N_17  and  C_18
REMARK    5  A    between atoms: C_18  and  C_19
REMARK    6  A    between atoms: C_21  and  C_22
REMARK                            x       y       z     vdW  Elec       q    Type
REMARK                         _______ _______ _______ _____ _____    ______ ____
ROOT
ATOM      1  C   UNL     1       3.635   5.817  17.844  0.00  0.00    +0.000 C 
ATOM      2  C   UNL     1       3.417   5.504  19.335  0.00  0.00    +0.000 C 
ATOM      3  C   UNL     1       4.788   5.127  19.916  0.00  0.00    +0.000 C 
ATOM      4  N   UNL     1       5.760   5.197  18.837  0.00  0.00    +0.000 NA
ATOM      5  C   UNL     1       7.038   5.823  19.175  0.00  0.00    +0.000 C 
ATOM      6  C   UNL     1       7.825   6.521  18.033  0.00  0.00    +0.000 C 
ATOM      7  N   UNL     1       7.360   6.288  16.651  0.00  0.00    +0.000 NA
ATOM      8  C   UNL     1       5.898   6.533  16.651  0.00  0.00    +0.000 C 
ATOM      9  C   UNL     1       5.120   5.566  17.575  0.00  0.00    +0.000 C 
ENDROOT
BRANCH   2  10
ATOM     10  C   UNL     1       2.363   4.434  19.548  0.00  0.00    +0.000 A 
ATOM     11  C   UNL     1       2.013   4.004  20.838  0.00  0.00    +0.000 A 
ATOM     12  C   UNL     1       1.069   2.995  21.022  0.00  0.00    +0.000 A 
ATOM     13  C   UNL     1       0.453   2.410  19.917  0.00  0.00    +0.000 A 
ATOM     14  C   UNL     1       0.776   2.837  18.634  0.00  0.00    +0.000 A 
ATOM     15  C   UNL     1       1.725   3.844  18.445  0.00  0.00    +0.000 A 
ENDBRANCH   2  10
BRANCH   1  18
ATOM     16  C   UNL     1       1.754   9.039  18.444  0.00  0.00    +0.000 C 
ATOM     17  N   UNL     1       2.351   7.736  18.572  0.00  0.00    +0.000 N 
ATOM     18  C   UNL     1       3.101   7.204  17.542  0.00  0.00    +0.000 C 
ATOM     19  O   UNL     1       3.360   7.834  16.527  0.00  0.00    +0.000 OA
ATOM     20  H   UNL     1       2.150   7.183  19.396  0.00  0.00    +0.000 HD
ENDBRANCH   1  18
BRANCH   7  21
ATOM     21  C   UNL     1       7.666   4.933  16.164  0.00  0.00    +0.000 C 
BRANCH  21  22
ATOM     22  C   UNL     1       7.127   4.652  14.813  0.00  0.00    +0.000 A 
ATOM     23  C   UNL     1       6.130   3.846  14.330  0.00  0.00    +0.000 A 
ATOM     24  C   UNL     1       6.248   3.959  12.927  0.00  0.00    +0.000 A 
ATOM     25  C   UNL     1       5.502   3.216  11.893  0.00  0.00    +0.000 C 
ATOM     26  N   UNL     1       7.197   4.837  12.584  0.00  0.00    +0.000 NA
ATOM     27  O   UNL     1       7.749   5.273  13.774  0.00  0.00    +0.000 OA
ENDBRANCH  21  22
ENDBRANCH   7  21
TORSDOF 4
ENDMDL
MODEL 2
REMARK VINA RESULT:      -7.3      1.578      2.089
REMARK  Name = 
REMARK  6 active torsions:
REMARK  status: ('A' for Active; 'I' for Inactive)
REMARK    1  A    between atoms: C_1  and  N_2
REMARK    2  A    between atoms: C_3  and  C_5
REMARK    3  A    between atoms: C_6  and  C_7
REMARK    4  A    between atoms: N_17  and  C_18
REMARK    5  A    between atoms: C_18  and  C_19
REMARK    6  A    between atoms: C_21  and  C_22
REMARK                            x       y       z     vdW  Elec       q    Type
REMARK                         _______ _______ _______ _____ _____    ______ ____
ROOT
ATOM      1  C   UNL     1       3.819   5.407  17.651  0.00  0.00    +0.000 C 
ATOM      2  C   UNL     1       4.264   5.149  19.102  0.00  0.00    +0.000 C 
ATOM      3  C   UNL     1       5.628   4.447  19.032  0.00  0.00    +0.000 C 
ATOM      4  N   UNL     1       5.969   4.283  17.628  0.00  0.00    +0.000 NA
ATOM      5  C   UNL     1       7.357   4.578  17.274  0.00  0.00    +0.000 C 
ATOM      6  C   UNL     1       7.647   5.068  15.830  0.00  0.00    +0.000 C 
ATOM      7  N   UNL     1       6.551   4.962  14.847  0.00  0.00    +0.000 NA
ATOM      8  C   UNL     1       5.352   5.556  15.487  0.00  0.00    +0.000 C 
ATOM      9  C   UNL     1       4.909   4.803  16.764  0.00  0.00    +0.000 C 
ENDROOT
BRANCH   2  10
ATOM     10  C   UNL     1       3.229   4.368  19.888  0.00  0.00    +0.000 A 
ATOM     11  C   UNL     1       1.904   4.818  19.997  0.00  0.00    +0.000 A 
ATOM     12  C   UNL     1       0.969   4.111  20.751  0.00  0.00    +0.000 A 
ATOM     13  C   UNL     1       1.346   2.935  21.400  0.00  0.00    +0.000 A 
ATOM     14  C   UNL     1       2.650   2.467  21.288  0.00  0.00    +0.000 A 
ATOM     15  C   UNL     1       3.591   3.175  20.536  0.00  0.00    +0.000 A 
ENDBRANCH   2  10
BRANCH   1  18
ATOM     16  C   UNL     1       1.799   8.599  17.766  0.00  0.00    +0.000 C 
ATOM     17  N   UNL     1       2.251   7.237  17.881  0.00  0.00    +0.000 N 
ATOM     18  C   UNL     1       3.522   6.884  17.476  0.00  0.00    +0.000 C 
ATOM     19  O   UNL     1       4.339   7.707  17.087  0.00  0.00    +0.000 OA
ATOM     20  H   UNL     1       1.598   6.528  18.191  0.00  0.00    +0.000 HD
ENDBRANCH   1  18
BRANCH   7  21
ATOM     21  C   UNL     1       6.290   3.576  14.427  0.00  0.00    +0.000 C 
BRANCH  21  22
ATOM     22  C   UNL     1       5.621   3.471  13.109  0.00  0.00    +0.000 A 
ATOM     23  C   UNL     1       4.599   4.149  12.499  0.00  0.00    +0.000 A 
ATOM     24  C   UNL     1       4.383   3.436  11.300  0.00  0.00    +0.000 A 
ATOM     25  C   UNL     1       3.320   3.650  10.298  0.00  0.00    +0.000 C 
ATOM     26  N   UNL     1       5.267   2.444  11.153  0.00  0.00    +0.000 NA
ATOM     27  O   UNL     1       6.047   2.468  12.294  0.00  0.00    +0.000 OA
ENDBRANCH  21  22
ENDBRANCH   7  21
TORSDOF 4
ENDMDL
MODEL 3
REMARK VINA RESULT:      -7.3      1.385      1.729
REMARK  Name = 
REMARK  6 active torsions:
REMARK  status: ('A' for Active; 'I' for Inactive)
REMARK    1  A    between atoms: C_1  and  N_2
REMARK    2  A    between atoms: C_3  and  C_5
REMARK    3  A    between atoms: C_6  and  C_7
REMARK    4  A    between atoms: N_17  and  C_18
REMARK    5  A    between atoms: C_18  and  C_19
REMARK    6  A    between atoms: C_21  and  C_22
REMARK                            x       y       z     vdW  Elec       q    Type
REMARK                         _______ _______ _______ _____ _____    ______ ____
ROOT
ATOM      1  C   UNL     1       3.781   5.518  17.808  0.00  0.00    +0.000 C 
ATOM      2  C   UNL     1       4.165   5.253  19.275  0.00  0.00    +0.000 C 
ATOM      3  C   UNL     1       5.546   4.582  19.259  0.00  0.00    +0.000 C 
ATOM      4  N   UNL     1       5.955   4.443  17.871  0.00  0.00    +0.000 NA
ATOM      5  C   UNL     1       7.351   4.772  17.584  0.00  0.00    +0.000 C 
ATOM      6  C   UNL     1       7.695   5.286  16.160  0.00  0.00    +0.000 C 
ATOM      7  N   UNL     1       6.647   5.167  15.127  0.00  0.00    +0.000 NA
ATOM      8  C   UNL     1       5.407   5.727  15.718  0.00  0.00    +0.000 C 
ATOM      9  C   UNL     1       4.924   4.949  16.966  0.00  0.00    +0.000 C 
ENDROOT
BRANCH   2  10
ATOM     10  C   UNL     1       3.114   4.439  20.005  0.00  0.00    +0.000 A 
ATOM     11  C   UNL     1       3.467   3.327  20.785  0.00  0.00    +0.000 A 
ATOM     12  C   UNL     1       2.491   2.564  21.424  0.00  0.00    +0.000 A 
ATOM     13  C   UNL     1       1.146   2.911  21.299  0.00  0.00    +0.000 A 
ATOM     14  C   UNL     1       0.782   4.019  20.543  0.00  0.00    +0.000 A 
ATOM     15  C   UNL     1       1.757   4.784  19.898  0.00  0.00    +0.000 A 
ENDBRANCH   2  10
BRANCH   1  18
ATOM     16  C   UNL     1       1.654   8.641  17.740  0.00  0.00    +0.000 C 
ATOM     17  N   UNL     1       2.134   7.291  17.877  0.00  0.00    +0.000 N 
ATOM     18  C   UNL     1       3.459   6.990  17.635  0.00  0.00    +0.000 C 
ATOM     19  O   UNL     1       4.291   7.850  17.382  0.00  0.00    +0.000 OA
ATOM     20  H   UNL     1       1.471   6.552  18.077  0.00  0.00    +0.000 HD
ENDBRANCH   1  18
BRANCH   7  21
ATOM     21  C   UNL     1       6.436   3.781  14.681  0.00  0.00    +0.000 C 
BRANCH  21  22
ATOM     22  C   UNL     1       5.787   3.676  13.353  0.00  0.00    +0.000 A 
ATOM     23  C   UNL     1       4.496   3.791  12.909  0.00  0.00    +0.000 A 
ATOM     24  C   UNL     1       4.570   3.437  11.544  0.00  0.00    +0.000 A 
ATOM     25  C   UNL     1       3.457   3.272  10.589  0.00  0.00    +0.000 C 
ATOM     26  N   UNL     1       5.832   3.203  11.167  0.00  0.00    +0.000 NA
ATOM     27  O   UNL     1       6.597   3.356  12.308  0.00  0.00    +0.000 OA
ENDBRANCH  21  22
ENDBRANCH   7  21
TORSDOF 4
ENDMDL
MODEL 4
REMARK VINA RESULT:      -7.1      6.542     11.512
REMARK  Name = 
REMARK  6 active torsions:
REMARK  status: ('A' for Active; 'I' for Inactive)
REMARK    1  A    between atoms: C_1  and  N_2
REMARK    2  A    between atoms: C_3  and  C_5
REMARK    3  A    between atoms: C_6  and  C_7
REMARK    4  A    between atoms: N_17  and  C_18
REMARK    5  A    between atoms: C_18  and  C_19
REMARK    6  A    between atoms: C_21  and  C_22
REMARK                            x       y       z     vdW  Elec       q    Type
REMARK                         _______ _______ _______ _____ _____    ______ ____
ROOT
ATOM      1  C   UNL     1       0.933  11.602  20.417  0.00  0.00    +0.000 C 
ATOM      2  C   UNL     1       0.686  10.897  19.071  0.00  0.00    +0.000 C 
ATOM      3  C   UNL     1      -0.836  10.835  18.873  0.00  0.00    +0.000 C 
ATOM      4  N   UNL     1      -1.458  11.452  20.033  0.00  0.00    +0.000 NA
ATOM      5  C   UNL     1      -2.582  12.344  19.750  0.00  0.00    +0.000 C 
ATOM      6  C   UNL     1      -2.860  13.498  20.751  0.00  0.00    +0.000 C 
ATOM      7  N   UNL     1      -2.137  13.464  22.039  0.00  0.00    +0.000 NA
ATOM      8  C   UNL     1      -0.708  13.239  21.714  0.00  0.00    +0.000 C 
ATOM      9  C   UNL     1      -0.452  11.891  20.999  0.00  0.00    +0.000 C 
ENDROOT
BRANCH   2  10
ATOM     10  C   UNL     1       1.352   9.536  19.007  0.00  0.00    +0.000 A 
ATOM     11  C   UNL     1       1.350   8.671  20.113  0.00  0.00    +0.000 A 
ATOM     12  C   UNL     1       1.995   7.437  20.055  0.00  0.00    +0.000 A 
ATOM     13  C   UNL     1       2.643   7.045  18.885  0.00  0.00    +0.000 A 
ATOM     14  C   UNL     1       2.640   7.883  17.775  0.00  0.00    +0.000 A 
ATOM     15  C   UNL     1       1.998   9.123  17.830  0.00  0.00    +0.000 A 
ENDBRANCH   2  10
BRANCH   1  18
ATOM     16  C   UNL     1       2.558  14.461  18.555  0.00  0.00    +0.000 C 
ATOM     17  N   UNL     1       1.742  13.338  18.937  0.00  0.00    +0.000 N 
ATOM     18  C   UNL     1       1.854  12.787  20.197  0.00  0.00    +0.000 C 
ATOM     19  O   UNL     1       2.574  13.267  21.061  0.00  0.00    +0.000 OA
ATOM     20  H   UNL     1       1.140  12.910  18.244  0.00  0.00    +0.000 HD
ENDBRANCH   1  18
BRANCH   7  21
ATOM     21  C   UNL     1      -2.639  12.423  22.950  0.00  0.00    +0.000 C 
BRANCH  21  22
ATOM     22  C   UNL     1      -4.052  12.618  23.353  0.00  0.00    +0.000 A 
ATOM     23  C   UNL     1      -5.033  13.505  22.998  0.00  0.00    +0.000 A 
ATOM     24  C   UNL     1      -6.099  13.206  23.874  0.00  0.00    +0.000 A 
ATOM     25  C   UNL     1      -7.379  13.926  24.022  0.00  0.00    +0.000 C 
ATOM     26  N   UNL     1      -5.814  12.155  24.651  0.00  0.00    +0.000 NA
ATOM     27  O   UNL     1      -4.524  11.786  24.321  0.00  0.00    +0.000 OA
ENDBRANCH  21  22
ENDBRANCH   7  21
TORSDOF 4
ENDMDL
MODEL 5
REMARK VINA RESULT:      -7.1      6.108      9.998
REMARK  Name = 
REMARK  6 active torsions:
REMARK  status: ('A' for Active; 'I' for Inactive)
REMARK    1  A    between atoms: C_1  and  N_2
REMARK    2  A    between atoms: C_3  and  C_5
REMARK    3  A    between atoms: C_6  and  C_7
REMARK    4  A    between atoms: N_17  and  C_18
REMARK    5  A    between atoms: C_18  and  C_19
REMARK    6  A    between atoms: C_21  and  C_22
REMARK                            x       y       z     vdW  Elec       q    Type
REMARK                         _______ _______ _______ _____ _____    ______ ____
ROOT
ATOM      1  C   UNL     1      -0.189  11.170  18.901  0.00  0.00    +0.000 C 
ATOM      2  C   UNL     1       0.015  10.055  19.942  0.00  0.00    +0.000 C 
ATOM      3  C   UNL     1       0.388  10.742  21.265  0.00  0.00    +0.000 C 
ATOM      4  N   UNL     1       0.417  12.176  21.025  0.00  0.00    +0.000 NA
ATOM      5  C   UNL     1      -0.198  13.005  22.061  0.00  0.00    +0.000 C 
ATOM      6  C   UNL     1      -0.794  14.373  21.633  0.00  0.00    +0.000 C 
ATOM      7  N   UNL     1      -0.480  14.852  20.272  0.00  0.00    +0.000 NA
ATOM      8  C   UNL     1      -0.763  13.724  19.352  0.00  0.00    +0.000 C 
ATOM      9  C   UNL     1       0.118  12.482  19.625  0.00  0.00    +0.000 C 
ENDROOT
BRANCH   2  10
ATOM     10  C   UNL     1       1.040   9.031  19.493  0.00  0.00    +0.000 A 
ATOM     11  C   UNL     1       1.667   9.131  18.240  0.00  0.00    +0.000 A 
ATOM     12  C   UNL     1       2.582   8.166  17.821  0.00  0.00    +0.000 A 
ATOM     13  C   UNL     1       2.890   7.092  18.656  0.00  0.00    +0.000 A 
ATOM     14  C   UNL     1       2.291   6.989  19.905  0.00  0.00    +0.000 A 
ATOM     15  C   UNL     1       1.371   7.952  20.328  0.00  0.00    +0.000 A 
ENDBRANCH   2  10
BRANCH   1  18
ATOM     16  C   UNL     1      -2.772  10.936  16.154  0.00  0.00    +0.000 C 
ATOM     17  N   UNL     1      -1.548  11.043  16.902  0.00  0.00    +0.000 N 
ATOM     18  C   UNL     1      -1.566  11.027  18.282  0.00  0.00    +0.000 C 
ATOM     19  O   UNL     1      -2.591  10.839  18.922  0.00  0.00    +0.000 OA
ATOM     20  H   UNL     1      -0.681  11.207  16.405  0.00  0.00    +0.000 HD
ENDBRANCH   1  18
BRANCH   7  21
ATOM     21  C   UNL     1       0.913  15.307  20.133  0.00  0.00    +0.000 C 
BRANCH  21  22
ATOM     22  C   UNL     1       1.104  16.315  19.063  0.00  0.00    +0.000 A 
ATOM     23  C   UNL     1       0.260  17.135  18.361  0.00  0.00    +0.000 A 
ATOM     24  C   UNL     1       1.094  17.738  17.395  0.00  0.00    +0.000 A 
ATOM     25  C   UNL     1       0.699  18.631  16.288  0.00  0.00    +0.000 C 
ATOM     26  N   UNL     1       2.371  17.372  17.552  0.00  0.00    +0.000 NA
ATOM     27  O   UNL     1       2.375  16.476  18.605  0.00  0.00    +0.000 OA
ENDBRANCH  21  22
ENDBRANCH   7  21
TORSDOF 4
ENDMDL
MODEL 6
REMARK VINA RESULT:      -6.9      5.844      9.829
REMARK  Name = 
REMARK  6 active torsions:
REMARK  status: ('A' for Active; 'I' for Inactive)
REMARK    1  A    between atoms: C_1  and  N_2
REMARK    2  A    between atoms: C_3  and  C_5
REMARK    3  A    between atoms: C_6  and  C_7
REMARK    4  A    between atoms: N_17  and  C_18
REMARK    5  A    between atoms: C_18  and  C_19
REMARK    6  A    between atoms: C_21  and  C_22
REMARK                            x       y       z     vdW  Elec       q    Type
REMARK                         _______ _______ _______ _____ _____    ______ ____
ROOT
ATOM      1  C   UNL     1      -0.092  10.854  18.693  0.00  0.00    +0.000 C 
ATOM      2  C   UNL     1       0.210   9.757  19.730  0.00  0.00    +0.000 C 
ATOM      3  C   UNL     1       0.606  10.471  21.031  0.00  0.00    +0.000 C 
ATOM      4  N   UNL     1       0.558  11.903  20.783  0.00  0.00    +0.000 NA
ATOM      5  C   UNL     1      -0.049  12.709  21.841  0.00  0.00    +0.000 C 
ATOM      6  C   UNL     1      -0.727  14.045  21.433  0.00  0.00    +0.000 C 
ATOM      7  N   UNL     1      -0.495  14.529  20.057  0.00  0.00    +0.000 NA
ATOM      8  C   UNL     1      -0.764  13.382  19.156  0.00  0.00    +0.000 C 
ATOM      9  C   UNL     1       0.185  12.184  19.397  0.00  0.00    +0.000 C 
ENDROOT
BRANCH   2  10
ATOM     10  C   UNL     1       1.261   8.780  19.241  0.00  0.00    +0.000 A 
ATOM     11  C   UNL     1       1.687   7.708  20.042  0.00  0.00    +0.000 A 
ATOM     12  C   UNL     1       2.679   6.836  19.598  0.00  0.00    +0.000 A 
ATOM     13  C   UNL     1       3.252   7.017  18.339  0.00  0.00    +0.000 A 
ATOM     14  C   UNL     1       2.828   8.063  17.528  0.00  0.00    +0.000 A 
ATOM     15  C   UNL     1       1.837   8.942  17.970  0.00  0.00    +0.000 A 
ENDBRANCH   2  10
BRANCH   1  18
ATOM     16  C   UNL     1      -2.821  10.704  16.084  0.00  0.00    +0.000 C 
ATOM     17  N   UNL     1      -1.565  10.846  16.773  0.00  0.00    +0.000 N 
ATOM     18  C   UNL     1      -1.486  10.643  18.135  0.00  0.00    +0.000 C 
ATOM     19  O   UNL     1      -2.440  10.258  18.797  0.00  0.00    +0.000 OA
ATOM     20  H   UNL     1      -0.757  11.172  16.257  0.00  0.00    +0.000 HD
ENDBRANCH   1  18
BRANCH   7  21
ATOM     21  C   UNL     1       0.867  15.047  19.855  0.00  0.00    +0.000 C 
BRANCH  21  22
ATOM     22  C   UNL     1       0.941  16.155  18.873  0.00  0.00    +0.000 A 
ATOM     23  C   UNL     1       0.009  16.928  18.232  0.00  0.00    +0.000 A 
ATOM     24  C   UNL     1       0.767  17.701  17.328  0.00  0.00    +0.000 A 
ATOM     25  C   UNL     1       0.273  18.631  16.293  0.00  0.00    +0.000 C 
ATOM     26  N   UNL     1       2.078  17.473  17.468  0.00  0.00    +0.000 NA
ATOM     27  O   UNL     1       2.185  16.500  18.443  0.00  0.00    +0.000 OA
ENDBRANCH  21  22
ENDBRANCH   7  21
TORSDOF 4
ENDMDL
MODEL 7
REMARK VINA RESULT:      -6.9      6.593     11.616
REMARK  Name = 
REMARK  6 active torsions:
REMARK  status: ('A' for Active; 'I' for Inactive)
REMARK    1  A    between atoms: C_1  and  N_2
REMARK    2  A    between atoms: C_3  and  C_5
REMARK    3  A    between atoms: C_6  and  C_7
REMARK    4  A    between atoms: N_17  and  C_18
REMARK    5  A    between atoms: C_18  and  C_19
REMARK    6  A    between atoms: C_21  and  C_22
REMARK                            x       y       z     vdW  Elec       q    Type
REMARK                         _______ _______ _______ _____ _____    ______ ____
ROOT
ATOM      1  C   UNL     1       0.793  11.902  20.173  0.00  0.00    +0.000 C 
ATOM      2  C   UNL     1       0.434  11.006  18.975  0.00  0.00    +0.000 C 
ATOM      3  C   UNL     1      -1.093  10.838  18.986  0.00  0.00    +0.000 C 
ATOM      4  N   UNL     1      -1.611  11.576  20.127  0.00  0.00    +0.000 NA
ATOM      5  C   UNL     1      -2.820  12.360  19.878  0.00  0.00    +0.000 C 
ATOM      6  C   UNL     1      -3.053  13.625  20.748  0.00  0.00    +0.000 C 
ATOM      7  N   UNL     1      -2.178  13.808  21.924  0.00  0.00    +0.000 NA
ATOM      8  C   UNL     1      -0.787  13.616  21.448  0.00  0.00    +0.000 C 
ATOM      9  C   UNL     1      -0.527  12.197  20.888  0.00  0.00    +0.000 C 
ENDROOT
BRANCH   2  10
ATOM     10  C   UNL     1       1.180   9.686  19.003  0.00  0.00    +0.000 A 
ATOM     11  C   UNL     1       1.861   9.210  17.871  0.00  0.00    +0.000 A 
ATOM     12  C   UNL     1       2.515   7.980  17.896  0.00  0.00    +0.000 A 
ATOM     13  C   UNL     1       2.504   7.210  19.059  0.00  0.00    +0.000 A 
ATOM     14  C   UNL     1       1.848   7.675  20.193  0.00  0.00    +0.000 A 
ATOM     15  C   UNL     1       1.189   8.906  20.171  0.00  0.00    +0.000 A 
ENDBRANCH   2  10
BRANCH   1  18
ATOM     16  C   UNL     1       3.545  14.492  20.164  0.00  0.00    +0.000 C 
ATOM     17  N   UNL     1       2.685  13.381  20.477  0.00  0.00    +0.000 N 
ATOM     18  C   UNL     1       1.595  13.092  19.682  0.00  0.00    +0.000 C 
ATOM     19  O   UNL     1       1.359  13.700  18.647  0.00  0.00    +0.000 OA
ATOM     20  H   UNL     1       2.846  12.862  21.331  0.00  0.00    +0.000 HD
ENDBRANCH   1  18
BRANCH   7  21
ATOM     21  C   UNL     1      -2.492  12.878  23.020  0.00  0.00    +0.000 C 
BRANCH  21  22
ATOM     22  C   UNL     1      -3.925  12.866  23.397  0.00  0.00    +0.000 A 
ATOM     23  C   UNL     1      -4.986  13.696  23.146  0.00  0.00    +0.000 A 
ATOM     24  C   UNL     1      -6.033  13.159  23.926  0.00  0.00    +0.000 A 
ATOM     25  C   UNL     1      -7.384  13.715  24.135  0.00  0.00    +0.000 C 
ATOM     26  N   UNL     1      -5.657  12.033  24.543  0.00  0.00    +0.000 NA
ATOM     27  O   UNL     1      -4.329  11.850  24.208  0.00  0.00    +0.000 OA
ENDBRANCH  21  22
ENDBRANCH   7  21
TORSDOF 4
ENDMDL
MODEL 8
REMARK VINA RESULT:      -6.8      5.495      9.018
REMARK  Name = 
REMARK  6 active torsions:
REMARK  status: ('A' for Active; 'I' for Inactive)
REMARK    1  A    between atoms: C_1  and  N_2
REMARK    2  A    between atoms: C_3  and  C_5
REMARK    3  A    between atoms: C_6  and  C_7
REMARK    4  A    between atoms: N_17  and  C_18
REMARK    5  A    between atoms: C_18  and  C_19
REMARK    6  A    between atoms: C_21  and  C_22
REMARK                            x       y       z     vdW  Elec       q    Type
REMARK                         _______ _______ _______ _____ _____    ______ ____
ROOT
ATOM      1  C   UNL     1      -2.748  10.766  18.173  0.00  0.00    +0.000 C 
ATOM      2  C   UNL     1      -3.453  12.007  18.750  0.00  0.00    +0.000 C 
ATOM      3  C   UNL     1      -2.542  12.565  19.854  0.00  0.00    +0.000 C 
ATOM      4  N   UNL     1      -1.373  11.704  19.940  0.00  0.00    +0.000 NA
ATOM      5  C   UNL     1      -0.090  12.390  20.085  0.00  0.00    +0.000 C 
ATOM      6  C   UNL     1       1.176  11.677  19.539  0.00  0.00    +0.000 C 
ATOM      7  N   UNL     1       1.038  10.261  19.143  0.00  0.00    +0.000 NA
ATOM      8  C   UNL     1      -0.158  10.183  18.269  0.00  0.00    +0.000 C 
ATOM      9  C   UNL     1      -1.464  10.597  18.988  0.00  0.00    +0.000 C 
ENDROOT
BRANCH   2  10
ATOM     10  C   UNL     1      -4.856  11.695  19.235  0.00  0.00    +0.000 A 
ATOM     11  C   UNL     1      -5.370  12.282  20.402  0.00  0.00    +0.000 A 
ATOM     12  C   UNL     1      -6.648  11.962  20.858  0.00  0.00    +0.000 A 
ATOM     13  C   UNL     1      -7.434  11.057  20.146  0.00  0.00    +0.000 A 
ATOM     14  C   UNL     1      -6.946  10.481  18.979  0.00  0.00    +0.000 A 
ATOM     15  C   UNL     1      -5.664  10.795  18.520  0.00  0.00    +0.000 A 
ENDBRANCH   2  10
BRANCH   1  18
ATOM     16  C   UNL     1      -3.005   9.840  14.519  0.00  0.00    +0.000 C 
ATOM     17  N   UNL     1      -3.084   9.855  15.956  0.00  0.00    +0.000 N 
ATOM     18  C   UNL     1      -2.599  10.930  16.673  0.00  0.00    +0.000 C 
ATOM     19  O   UNL     1      -2.166  11.938  16.132  0.00  0.00    +0.000 OA
ATOM     20  H   UNL     1      -3.430   9.034  16.438  0.00  0.00    +0.000 HD
ENDBRANCH   1  18
BRANCH   7  21
ATOM     21  C   UNL     1       0.907   9.355  20.295  0.00  0.00    +0.000 C 
BRANCH  21  22
ATOM     22  C   UNL     1       1.498   8.015  20.066  0.00  0.00    +0.000 A 
ATOM     23  C   UNL     1       1.441   6.819  20.732  0.00  0.00    +0.000 A 
ATOM     24  C   UNL     1       2.353   5.996  20.037  0.00  0.00    +0.000 A 
ATOM     25  C   UNL     1       2.786   4.628  20.384  0.00  0.00    +0.000 C 
ATOM     26  N   UNL     1       2.867   6.624  18.973  0.00  0.00    +0.000 NA
ATOM     27  O   UNL     1       2.326   7.895  18.993  0.00  0.00    +0.000 OA
ENDBRANCH  21  22
ENDBRANCH   7  21
TORSDOF 4
ENDMDL
MODEL 9
REMARK VINA RESULT:      -6.7      5.120      8.406
REMARK  Name = 
REMARK  6 active torsions:
REMARK  status: ('A' for Active; 'I' for Inactive)
REMARK    1  A    between atoms: C_1  and  N_2
REMARK    2  A    between atoms: C_3  and  C_5
REMARK    3  A    between atoms: C_6  and  C_7
REMARK    4  A    between atoms: N_17  and  C_18
REMARK    5  A    between atoms: C_18  and  C_19
REMARK    6  A    between atoms: C_21  and  C_22
REMARK                            x       y       z     vdW  Elec       q    Type
REMARK                         _______ _______ _______ _____ _____    ______ ____
ROOT
ATOM      1  C   UNL     1      -1.982  11.270  19.319  0.00  0.00    +0.000 C 
ATOM      2  C   UNL     1      -1.843  12.633  20.020  0.00  0.00    +0.000 C 
ATOM      3  C   UNL     1      -0.349  12.828  20.322  0.00  0.00    +0.000 C 
ATOM      4  N   UNL     1       0.356  11.650  19.845  0.00  0.00    +0.000 NA
ATOM      5  C   UNL     1       1.612  11.905  19.139  0.00  0.00    +0.000 C 
ATOM      6  C   UNL     1       2.065  10.872  18.072  0.00  0.00    +0.000 C 
ATOM      7  N   UNL     1       1.337   9.588  18.022  0.00  0.00    +0.000 NA
ATOM      8  C   UNL     1      -0.108   9.923  18.004  0.00  0.00    +0.000 C 
ATOM      9  C   UNL     1      -0.573  10.676  19.274  0.00  0.00    +0.000 C 
ENDROOT
BRANCH   2  10
ATOM     10  C   UNL     1      -2.720  12.736  21.253  0.00  0.00    +0.000 A 
ATOM     11  C   UNL     1      -2.305  12.211  22.488  0.00  0.00    +0.000 A 
ATOM     12  C   UNL     1      -3.133  12.280  23.606  0.00  0.00    +0.000 A 
ATOM     13  C   UNL     1      -4.385  12.886  23.509  0.00  0.00    +0.000 A 
ATOM     14  C   UNL     1      -4.803  13.425  22.298  0.00  0.00    +0.000 A 
ATOM     15  C   UNL     1      -3.978  13.355  21.173  0.00  0.00    +0.000 A 
ENDBRANCH   2  10
BRANCH   1  18
ATOM     16  C   UNL     1      -4.890  11.398  16.910  0.00  0.00    +0.000 C 
ATOM     17  N   UNL     1      -4.061  11.273  18.080  0.00  0.00    +0.000 N 
ATOM     18  C   UNL     1      -2.697  11.461  17.995  0.00  0.00    +0.000 C 
ATOM     19  O   UNL     1      -2.147  11.819  16.963  0.00  0.00    +0.000 OA
ATOM     20  H   UNL     1      -4.482  10.969  18.950  0.00  0.00    +0.000 HD
ENDBRANCH   1  18
BRANCH   7  21
ATOM     21  C   UNL     1       1.657   8.704  19.154  0.00  0.00    +0.000 C 
BRANCH  21  22
ATOM     22  C   UNL     1       2.494   7.540  18.780  0.00  0.00    +0.000 A 
ATOM     23  C   UNL     1       3.334   7.265  17.733  0.00  0.00    +0.000 A 
ATOM     24  C   UNL     1       3.698   5.915  17.932  0.00  0.00    +0.000 A 
ATOM     25  C   UNL     1       4.499   5.052  17.042  0.00  0.00    +0.000 C 
ATOM     26  N   UNL     1       3.180   5.430  19.066  0.00  0.00    +0.000 NA
ATOM     27  O   UNL     1       2.423   6.456  19.599  0.00  0.00    +0.000 OA
ENDBRANCH  21  22
ENDBRANCH   7  21
TORSDOF 4
ENDMDL
