MODEL 1
REMARK VINA RESULT:      -6.0      0.000      0.000
REMARK  Name = 
REMARK  3 active torsions:
REMARK  status: ('A' for Active; 'I' for Inactive)
REMARK    1  A    between atoms: C_1  and  N_2
REMARK    2  A    between atoms: N_5  and  N_6
REMARK    3  A    between atoms: N_7  and  C_8
REMARK                            x       y       z     vdW  Elec       q    Type
REMARK                         _______ _______ _______ _____ _____    ______ ____
ROOT
ATOM      1  N   UNL     1       4.526   4.699  18.404  0.00  0.00    +0.000 NA
ATOM      2  N   UNL     1       3.633   3.856  18.194  0.00  0.00    +0.000 NA
ENDROOT
BRANCH   1   7
ATOM      3  C   UNL     1       7.571   5.096  13.730  0.00  0.00    +0.000 C 
ATOM      4  N   UNL     1       7.053   5.439  15.054  0.00  0.00    +0.000 NA
ATOM      5  C   UNL     1       7.309   4.338  16.012  0.00  0.00    +0.000 C 
ATOM      6  C   UNL     1       6.706   4.610  17.404  0.00  0.00    +0.000 C 
ATOM      7  N   UNL     1       5.288   4.928  17.294  0.00  0.00    +0.000 N 
ATOM      8  C   UNL     1       4.977   6.007  16.355  0.00  0.00    +0.000 C 
ATOM      9  C   UNL     1       5.599   5.713  14.978  0.00  0.00    +0.000 C 
ENDBRANCH   1   7
BRANCH   2  10
ATOM     10  C   UNL     1       2.908   3.527  19.355  0.00  0.00    +0.000 A 
ATOM     11  C   UNL     1       1.544   3.849  19.388  0.00  0.00    +0.000 A 
ATOM     12  C   UNL     1       0.750   3.498  20.482  0.00  0.00    +0.000 A 
ATOM     13  C   UNL     1       1.312   2.813  21.557  0.00  0.00    +0.000 A 
ATOM     14  C   UNL     1       2.664   2.476  21.537  0.00  0.00    +0.000 A 
ATOM     15  C   UNL     1       3.454   2.825  20.440  0.00  0.00    +0.000 A 
ENDBRANCH   2  10
TORSDOF 2
ENDMDL
MODEL 2
REMARK VINA RESULT:      -5.9      0.154      1.252
REMARK  Name = 
REMARK  3 active torsions:
REMARK  status: ('A' for Active; 'I' for Inactive)
REMARK    1  A    between atoms: C_1  and  N_2
REMARK    2  A    between atoms: N_5  and  N_6
REMARK    3  A    between atoms: N_7  and  C_8
REMARK                            x       y       z     vdW  Elec       q    Type
REMARK                         _______ _______ _______ _____ _____    ______ ____
ROOT
ATOM      1  N   UNL     1       4.308   4.693  18.288  0.00  0.00    +0.000 NA
ATOM      2  N   UNL     1       3.569   3.710  18.094  0.00  0.00    +0.000 NA
ENDROOT
BRANCH   1   7
ATOM      3  C   UNL     1       7.609   5.131  13.795  0.00  0.00    +0.000 C 
ATOM      4  N   UNL     1       7.042   5.442  15.107  0.00  0.00    +0.000 NA
ATOM      5  C   UNL     1       7.189   4.287  16.023  0.00  0.00    +0.000 C 
ATOM      6  C   UNL     1       6.528   4.529  17.394  0.00  0.00    +0.000 C 
ATOM      7  N   UNL     1       5.138   4.930  17.229  0.00  0.00    +0.000 N 
ATOM      8  C   UNL     1       4.934   6.065  16.330  0.00  0.00    +0.000 C 
ATOM      9  C   UNL     1       5.610   5.799  14.973  0.00  0.00    +0.000 C 
ENDBRANCH   1   7
BRANCH   2  10
ATOM     10  C   UNL     1       2.783   3.385  19.217  0.00  0.00    +0.000 A 
ATOM     11  C   UNL     1       3.428   2.822  20.326  0.00  0.00    +0.000 A 
ATOM     12  C   UNL     1       2.723   2.530  21.496  0.00  0.00    +0.000 A 
ATOM     13  C   UNL     1       1.360   2.805  21.571  0.00  0.00    +0.000 A 
ATOM     14  C   UNL     1       0.703   3.374  20.482  0.00  0.00    +0.000 A 
ATOM     15  C   UNL     1       1.413   3.668  19.315  0.00  0.00    +0.000 A 
ENDBRANCH   2  10
TORSDOF 2
ENDMDL
MODEL 3
REMARK VINA RESULT:      -5.8      1.824      6.840
REMARK  Name = 
REMARK  3 active torsions:
REMARK  status: ('A' for Active; 'I' for Inactive)
REMARK    1  A    between atoms: C_1  and  N_2
REMARK    2  A    between atoms: N_5  and  N_6
REMARK    3  A    between atoms: N_7  and  C_8
REMARK                            x       y       z     vdW  Elec       q    Type
REMARK                         _______ _______ _______ _____ _____    ______ ____
ROOT
ATOM      1  N   UNL     1       5.133   5.267  16.166  0.00  0.00    +0.000 NA
ATOM      2  N   UNL     1       5.465   4.151  15.724  0.00  0.00    +0.000 NA
ENDROOT
BRANCH   1   7
ATOM      3  C   UNL     1       2.096   4.795  20.838  0.00  0.00    +0.000 C 
ATOM      4  N   UNL     1       3.210   5.168  19.967  0.00  0.00    +0.000 NA
ATOM      5  C   UNL     1       2.736   6.033  18.861  0.00  0.00    +0.000 C 
ATOM      6  C   UNL     1       3.856   6.385  17.862  0.00  0.00    +0.000 C 
ATOM      7  N   UNL     1       4.507   5.176  17.377  0.00  0.00    +0.000 N 
ATOM      8  C   UNL     1       4.991   4.281  18.428  0.00  0.00    +0.000 C 
ATOM      9  C   UNL     1       3.856   3.954  19.415  0.00  0.00    +0.000 C 
ENDBRANCH   1   7
BRANCH   2  10
ATOM     10  C   UNL     1       6.013   4.216  14.429  0.00  0.00    +0.000 A 
ATOM     11  C   UNL     1       7.133   5.034  14.232  0.00  0.00    +0.000 A 
ATOM     12  C   UNL     1       7.765   5.100  12.988  0.00  0.00    +0.000 A 
ATOM     13  C   UNL     1       7.285   4.340  11.925  0.00  0.00    +0.000 A 
ATOM     14  C   UNL     1       6.178   3.513  12.104  0.00  0.00    +0.000 A 
ATOM     15  C   UNL     1       5.551   3.447  13.350  0.00  0.00    +0.000 A 
ENDBRANCH   2  10
TORSDOF 2
ENDMDL
MODEL 4
REMARK VINA RESULT:      -5.8      1.872      6.777
REMARK  Name = 
REMARK  3 active torsions:
REMARK  status: ('A' for Active; 'I' for Inactive)
REMARK    1  A    between atoms: C_1  and  N_2
REMARK    2  A    between atoms: N_5  and  N_6
REMARK    3  A    between atoms: N_7  and  C_8
REMARK                            x       y       z     vdW  Elec       q    Type
REMARK                         _______ _______ _______ _____ _____    ______ ____
ROOT
ATOM      1  N   UNL     1       4.964   5.060  16.119  0.00  0.00    +0.000 NA
ATOM      2  N   UNL     1       5.447   3.993  15.695  0.00  0.00    +0.000 NA
ENDROOT
BRANCH   1   7
ATOM      3  C   UNL     1       1.737   4.835  20.681  0.00  0.00    +0.000 C 
ATOM      4  N   UNL     1       2.768   4.447  19.719  0.00  0.00    +0.000 NA
ATOM      5  C   UNL     1       3.779   5.522  19.580  0.00  0.00    +0.000 C 
ATOM      6  C   UNL     1       4.842   5.202  18.511  0.00  0.00    +0.000 C 
ATOM      7  N   UNL     1       4.209   4.872  17.242  0.00  0.00    +0.000 N 
ATOM      8  C   UNL     1       3.197   3.818  17.322  0.00  0.00    +0.000 C 
ATOM      9  C   UNL     1       2.154   4.160  18.401  0.00  0.00    +0.000 C 
ENDBRANCH   1   7
BRANCH   2  10
ATOM     10  C   UNL     1       6.138   4.151  14.478  0.00  0.00    +0.000 A 
ATOM     11  C   UNL     1       5.675   3.438  13.365  0.00  0.00    +0.000 A 
ATOM     12  C   UNL     1       6.275   3.591  12.113  0.00  0.00    +0.000 A 
ATOM     13  C   UNL     1       7.346   4.469  11.960  0.00  0.00    +0.000 A 
ATOM     14  C   UNL     1       7.814   5.194  13.053  0.00  0.00    +0.000 A 
ATOM     15  C   UNL     1       7.209   5.040  14.303  0.00  0.00    +0.000 A 
ENDBRANCH   2  10
TORSDOF 2
ENDMDL
MODEL 5
REMARK VINA RESULT:      -5.8      5.212      7.819
REMARK  Name = 
REMARK  3 active torsions:
REMARK  status: ('A' for Active; 'I' for Inactive)
REMARK    1  A    between atoms: C_1  and  N_2
REMARK    2  A    between atoms: N_5  and  N_6
REMARK    3  A    between atoms: N_7  and  C_8
REMARK                            x       y       z     vdW  Elec       q    Type
REMARK                         _______ _______ _______ _____ _____    ______ ____
ROOT
ATOM      1  N   UNL     1       8.416   8.134  18.490  0.00  0.00    +0.000 NA
ATOM      2  N   UNL     1       8.137   9.177  17.869  0.00  0.00    +0.000 NA
ENDROOT
BRANCH   1   7
ATOM      3  C   UNL     1       5.864   3.804  16.037  0.00  0.00    +0.000 C 
ATOM      4  N   UNL     1       6.122   4.860  17.016  0.00  0.00    +0.000 NA
ATOM      5  C   UNL     1       6.120   6.188  16.359  0.00  0.00    +0.000 C 
ATOM      6  C   UNL     1       6.474   7.331  17.331  0.00  0.00    +0.000 C 
ATOM      7  N   UNL     1       7.732   7.053  18.011  0.00  0.00    +0.000 N 
ATOM      8  C   UNL     1       7.791   5.750  18.674  0.00  0.00    +0.000 C 
ATOM      9  C   UNL     1       7.425   4.630  17.683  0.00  0.00    +0.000 C 
ENDBRANCH   1   7
BRANCH   2  10
ATOM     10  C   UNL     1       8.749  10.321  18.417  0.00  0.00    +0.000 A 
ATOM     11  C   UNL     1       9.392  10.189  19.655  0.00  0.00    +0.000 A 
ATOM     12  C   UNL     1      10.071  11.266  20.230  0.00  0.00    +0.000 A 
ATOM     13  C   UNL     1      10.120  12.490  19.566  0.00  0.00    +0.000 A 
ATOM     14  C   UNL     1       9.495  12.636  18.329  0.00  0.00    +0.000 A 
ATOM     15  C   UNL     1       8.820  11.556  17.756  0.00  0.00    +0.000 A 
ENDBRANCH   2  10
TORSDOF 2
ENDMDL
MODEL 6
REMARK VINA RESULT:      -5.7      0.852      1.785
REMARK  Name = 
REMARK  3 active torsions:
REMARK  status: ('A' for Active; 'I' for Inactive)
REMARK    1  A    between atoms: C_1  and  N_2
REMARK    2  A    between atoms: N_5  and  N_6
REMARK    3  A    between atoms: N_7  and  C_8
REMARK                            x       y       z     vdW  Elec       q    Type
REMARK                         _______ _______ _______ _____ _____    ______ ____
ROOT
ATOM      1  N   UNL     1       4.532   4.361  18.049  0.00  0.00    +0.000 NA
ATOM      2  N   UNL     1       3.669   3.475  17.908  0.00  0.00    +0.000 NA
ENDROOT
BRANCH   1   7
ATOM      3  C   UNL     1       7.601   5.141  13.439  0.00  0.00    +0.000 C 
ATOM      4  N   UNL     1       7.053   4.466  14.615  0.00  0.00    +0.000 NA
ATOM      5  C   UNL     1       5.578   4.363  14.513  0.00  0.00    +0.000 C 
ATOM      6  C   UNL     1       4.939   3.737  15.768  0.00  0.00    +0.000 C 
ATOM      7  N   UNL     1       5.361   4.449  16.967  0.00  0.00    +0.000 N 
ATOM      8  C   UNL     1       6.810   4.585  17.116  0.00  0.00    +0.000 C 
ATOM      9  C   UNL     1       7.422   5.204  15.846  0.00  0.00    +0.000 C 
ENDBRANCH   1   7
BRANCH   2  10
ATOM     10  C   UNL     1       2.874   3.297  19.056  0.00  0.00    +0.000 A 
ATOM     11  C   UNL     1       3.455   2.663  20.163  0.00  0.00    +0.000 A 
ATOM     12  C   UNL     1       2.745   2.506  21.356  0.00  0.00    +0.000 A 
ATOM     13  C   UNL     1       1.443   2.990  21.457  0.00  0.00    +0.000 A 
ATOM     14  C   UNL     1       0.852   3.631  20.371  0.00  0.00    +0.000 A 
ATOM     15  C   UNL     1       1.566   3.790  19.180  0.00  0.00    +0.000 A 
ENDBRANCH   2  10
TORSDOF 2
ENDMDL
MODEL 7
REMARK VINA RESULT:      -5.7      0.872      1.137
REMARK  Name = 
REMARK  3 active torsions:
REMARK  status: ('A' for Active; 'I' for Inactive)
REMARK    1  A    between atoms: C_1  and  N_2
REMARK    2  A    between atoms: N_5  and  N_6
REMARK    3  A    between atoms: N_7  and  C_8
REMARK                            x       y       z     vdW  Elec       q    Type
REMARK                         _______ _______ _______ _____ _____    ______ ____
ROOT
ATOM      1  N   UNL     1       4.768   4.361  18.419  0.00  0.00    +0.000 NA
ATOM      2  N   UNL     1       3.723   3.733  18.167  0.00  0.00    +0.000 NA
ENDROOT
BRANCH   1   7
ATOM      3  C   UNL     1       7.589   5.265  13.675  0.00  0.00    +0.000 C 
ATOM      4  N   UNL     1       7.214   4.635  14.941  0.00  0.00    +0.000 NA
ATOM      5  C   UNL     1       5.811   4.160  14.888  0.00  0.00    +0.000 C 
ATOM      6  C   UNL     1       5.335   3.565  16.228  0.00  0.00    +0.000 C 
ATOM      7  N   UNL     1       5.559   4.508  17.315  0.00  0.00    +0.000 N 
ATOM      8  C   UNL     1       6.929   5.014  17.411  0.00  0.00    +0.000 C 
ATOM      9  C   UNL     1       7.380   5.594  16.058  0.00  0.00    +0.000 C 
ENDBRANCH   1   7
BRANCH   2  10
ATOM     10  C   UNL     1       2.947   3.477  19.314  0.00  0.00    +0.000 A 
ATOM     11  C   UNL     1       1.607   3.885  19.302  0.00  0.00    +0.000 A 
ATOM     12  C   UNL     1       0.763   3.611  20.381  0.00  0.00    +0.000 A 
ATOM     13  C   UNL     1       1.252   2.917  21.485  0.00  0.00    +0.000 A 
ATOM     14  C   UNL     1       2.579   2.494  21.510  0.00  0.00    +0.000 A 
ATOM     15  C   UNL     1       3.419   2.767  20.428  0.00  0.00    +0.000 A 
ENDBRANCH   2  10
TORSDOF 2
ENDMDL
MODEL 8
REMARK VINA RESULT:      -5.7      1.782      6.790
REMARK  Name = 
REMARK  3 active torsions:
REMARK  status: ('A' for Active; 'I' for Inactive)
REMARK    1  A    between atoms: C_1  and  N_2
REMARK    2  A    between atoms: N_5  and  N_6
REMARK    3  A    between atoms: N_7  and  C_8
REMARK                            x       y       z     vdW  Elec       q    Type
REMARK                         _______ _______ _______ _____ _____    ______ ____
ROOT
ATOM      1  N   UNL     1       4.938   5.119  16.238  0.00  0.00    +0.000 NA
ATOM      2  N   UNL     1       5.160   4.027  15.682  0.00  0.00    +0.000 NA
ENDROOT
BRANCH   1   7
ATOM      3  C   UNL     1       2.210   4.156  21.024  0.00  0.00    +0.000 C 
ATOM      4  N   UNL     1       2.438   4.599  19.649  0.00  0.00    +0.000 NA
ATOM      5  C   UNL     1       2.870   3.462  18.803  0.00  0.00    +0.000 C 
ATOM      6  C   UNL     1       3.209   3.891  17.362  0.00  0.00    +0.000 C 
ATOM      7  N   UNL     1       4.181   4.977  17.366  0.00  0.00    +0.000 N 
ATOM      8  C   UNL     1       3.806   6.125  18.192  0.00  0.00    +0.000 C 
ATOM      9  C   UNL     1       3.465   5.667  19.621  0.00  0.00    +0.000 C 
ENDBRANCH   1   7
BRANCH   2  10
ATOM     10  C   UNL     1       5.847   4.164  14.461  0.00  0.00    +0.000 A 
ATOM     11  C   UNL     1       6.982   4.984  14.437  0.00  0.00    +0.000 A 
ATOM     12  C   UNL     1       7.747   5.119  13.275  0.00  0.00    +0.000 A 
ATOM     13  C   UNL     1       7.385   4.426  12.123  0.00  0.00    +0.000 A 
ATOM     14  C   UNL     1       6.265   3.597  12.130  0.00  0.00    +0.000 A 
ATOM     15  C   UNL     1       5.506   3.462  13.295  0.00  0.00    +0.000 A 
ENDBRANCH   2  10
TORSDOF 2
ENDMDL
MODEL 9
REMARK VINA RESULT:      -5.7      5.578      8.118
REMARK  Name = 
REMARK  3 active torsions:
REMARK  status: ('A' for Active; 'I' for Inactive)
REMARK    1  A    between atoms: C_1  and  N_2
REMARK    2  A    between atoms: N_5  and  N_6
REMARK    3  A    between atoms: N_7  and  C_8
REMARK                            x       y       z     vdW  Elec       q    Type
REMARK                         _______ _______ _______ _____ _____    ______ ____
ROOT
ATOM      1  N   UNL     1       8.702   8.276  18.749  0.00  0.00    +0.000 NA
ATOM      2  N   UNL     1       8.445   9.384  18.241  0.00  0.00    +0.000 NA
ENDROOT
BRANCH   1   7
ATOM      3  C   UNL     1       4.721   4.524  17.587  0.00  0.00    +0.000 C 
ATOM      4  N   UNL     1       6.044   5.145  17.611  0.00  0.00    +0.000 NA
ATOM      5  C   UNL     1       6.509   5.323  19.007  0.00  0.00    +0.000 C 
ATOM      6  C   UNL     1       7.863   6.054  19.093  0.00  0.00    +0.000 C 
ATOM      7  N   UNL     1       7.811   7.314  18.364  0.00  0.00    +0.000 N 
ATOM      8  C   UNL     1       7.353   7.198  16.980  0.00  0.00    +0.000 C 
ATOM      9  C   UNL     1       6.005   6.457  16.923  0.00  0.00    +0.000 C 
ENDBRANCH   1   7
BRANCH   2  10
ATOM     10  C   UNL     1       9.287  10.410  18.711  0.00  0.00    +0.000 A 
ATOM     11  C   UNL     1       9.336  10.635  20.093  0.00  0.00    +0.000 A 
ATOM     12  C   UNL     1      10.194  11.596  20.634  0.00  0.00    +0.000 A 
ATOM     13  C   UNL     1      11.019  12.340  19.795  0.00  0.00    +0.000 A 
ATOM     14  C   UNL     1      10.992  12.123  18.419  0.00  0.00    +0.000 A 
ATOM     15  C   UNL     1      10.135  11.159  17.882  0.00  0.00    +0.000 A 
ENDBRANCH   2  10
TORSDOF 2
ENDMDL
