MODEL 1
REMARK VINA RESULT:      -7.6      0.000      0.000
REMARK  Name = 
REMARK  7 active torsions:
REMARK  status: ('A' for Active; 'I' for Inactive)
REMARK    1  A    between atoms: C_6  and  C_7
REMARK    2  A    between atoms: C_13  and  N_14
REMARK    3  A    between atoms: N_14  and  C_15
REMARK    4  A    between atoms: C_17  and  C_18
REMARK    5  A    between atoms: C_18  and  O_19
REMARK    6  A    between atoms: C_20  and  O_21
REMARK    7  A    between atoms: C_22  and  O_23
REMARK                            x       y       z     vdW  Elec       q    Type
REMARK                         _______ _______ _______ _____ _____    ______ ____
ROOT
ATOM      1  N   UNL     1       4.986   1.643  19.862  0.00  0.00    +0.000 N 
ATOM      2  C   UNL     1       4.365   2.865  19.746  0.00  0.00    +0.000 A 
ATOM      3  N   UNL     1       3.082   2.896  20.045  0.00  0.00    +0.000 NA
ATOM      4  C   UNL     1       2.498   4.103  19.990  0.00  0.00    +0.000 A 
ATOM      5 CL   UNL     1       0.794   3.930  20.261  0.00  0.00    +0.000 Cl
ATOM      6  C   UNL     1       3.132   5.301  19.668  0.00  0.00    +0.000 A 
ATOM      7  C   UNL     1       4.484   5.133  19.311  0.00  0.00    +0.000 A 
ATOM      8  N   UNL     1       5.075   3.921  19.327  0.00  0.00    +0.000 NA
ATOM      9  H   UNL     1       4.295   0.900  19.852  0.00  0.00    +0.000 HD
ATOM     10  H   UNL     1       5.779   1.556  19.253  0.00  0.00    +0.000 HD
ENDROOT
BRANCH   6  11
ATOM     11  C   UNL     1       2.408   6.586  19.676  0.00  0.00    +0.000 A 
ATOM     12  C   UNL     1       1.800   7.153  20.793  0.00  0.00    +0.000 A 
ATOM     13  N   UNL     1       1.204   8.377  20.789  0.00  0.00    +0.000 NA
ATOM     14  C   UNL     1       1.265   9.050  19.620  0.00  0.00    +0.000 A 
ATOM     15  C   UNL     1       1.854   8.509  18.497  0.00  0.00    +0.000 A 
ATOM     16  N   UNL     1       2.394   7.268  18.496  0.00  0.00    +0.000 NA
ENDBRANCH   6  11
BRANCH   7  17
ATOM     17  N   UNL     1       5.252   6.233  18.920  0.00  0.00    +0.000 N 
ATOM     18  H   UNL     1       5.923   6.481  19.646  0.00  0.00    +0.000 HD
BRANCH  17  19
ATOM     19  C   UNL     1       5.775   6.512  17.568  0.00  0.00    +0.000 C 
ATOM     20  C   UNL     1       4.836   5.991  16.467  0.00  0.00    +0.000 C 
ATOM     21  C   UNL     1       5.737   5.400  15.376  0.00  0.00    +0.000 C 
ATOM     22  C   UNL     1       6.974   4.932  16.135  0.00  0.00    +0.000 C 
ATOM     23  C   UNL     1       7.196   6.043  17.177  0.00  0.00    +0.000 C 
BRANCH  22  24
ATOM     24  O   UNL     1       8.068   4.787  15.234  0.00  0.00    +0.000 OA
ATOM     25  H   UNL     1       7.732   4.312  14.448  0.00  0.00    +0.000 HD
ENDBRANCH  22  24
BRANCH  23  26
ATOM     26  O   UNL     1       7.920   7.121  16.531  0.00  0.00    +0.000 OA
ATOM     27  H   UNL     1       8.528   7.524  17.173  0.00  0.00    +0.000 HD
ENDBRANCH  23  26
BRANCH  21  28
ATOM     28  C   UNL     1       5.061   4.283  14.592  0.00  0.00    +0.000 C 
BRANCH  28  29
ATOM     29  O   UNL     1       5.936   3.829  13.565  0.00  0.00    +0.000 OA
ATOM     30  H   UNL     1       6.500   3.135  13.948  0.00  0.00    +0.000 HD
ENDBRANCH  28  29
ENDBRANCH  21  28
ENDBRANCH  17  19
ENDBRANCH   7  17
TORSDOF 7
ENDMDL
MODEL 2
REMARK VINA RESULT:      -7.6      3.722      5.327
REMARK  Name = 
REMARK  7 active torsions:
REMARK  status: ('A' for Active; 'I' for Inactive)
REMARK    1  A    between atoms: C_6  and  C_7
REMARK    2  A    between atoms: C_13  and  N_14
REMARK    3  A    between atoms: N_14  and  C_15
REMARK    4  A    between atoms: C_17  and  C_18
REMARK    5  A    between atoms: C_18  and  O_19
REMARK    6  A    between atoms: C_20  and  O_21
REMARK    7  A    between atoms: C_22  and  O_23
REMARK                            x       y       z     vdW  Elec       q    Type
REMARK                         _______ _______ _______ _____ _____    ______ ____
ROOT
ATOM      1  N   UNL     1       7.002   3.981  14.328  0.00  0.00    +0.000 N 
ATOM      2  C   UNL     1       6.191   4.540  15.289  0.00  0.00    +0.000 A 
ATOM      3  N   UNL     1       6.596   5.687  15.795  0.00  0.00    +0.000 NA
ATOM      4  C   UNL     1       5.770   6.257  16.686  0.00  0.00    +0.000 A 
ATOM      5 CL   UNL     1       6.528   7.667  17.353  0.00  0.00    +0.000 Cl
ATOM      6  C   UNL     1       4.537   5.751  17.093  0.00  0.00    +0.000 A 
ATOM      7  C   UNL     1       4.241   4.494  16.530  0.00  0.00    +0.000 A 
ATOM      8  N   UNL     1       5.078   3.893  15.661  0.00  0.00    +0.000 NA
ATOM      9  H   UNL     1       7.934   4.375  14.388  0.00  0.00    +0.000 HD
ATOM     10  H   UNL     1       6.915   2.981  14.286  0.00  0.00    +0.000 HD
ENDROOT
BRANCH   6  11
ATOM     11  C   UNL     1       3.681   6.477  18.050  0.00  0.00    +0.000 A 
ATOM     12  C   UNL     1       3.024   7.676  17.784  0.00  0.00    +0.000 A 
ATOM     13  N   UNL     1       2.180   8.285  18.661  0.00  0.00    +0.000 NA
ATOM     14  C   UNL     1       1.977   7.630  19.824  0.00  0.00    +0.000 A 
ATOM     15  C   UNL     1       2.620   6.447  20.115  0.00  0.00    +0.000 A 
ATOM     16  N   UNL     1       3.501   5.878  19.261  0.00  0.00    +0.000 NA
ENDBRANCH   6  11
BRANCH   7  17
ATOM     17  N   UNL     1       3.059   3.831  16.870  0.00  0.00    +0.000 N 
ATOM     18  H   UNL     1       2.448   3.744  16.058  0.00  0.00    +0.000 HD
BRANCH  17  19
ATOM     19  C   UNL     1       2.921   2.685  17.790  0.00  0.00    +0.000 C 
ATOM     20  C   UNL     1       1.714   2.842  18.730  0.00  0.00    +0.000 C 
ATOM     21  C   UNL     1       2.170   2.335  20.104  0.00  0.00    +0.000 C 
ATOM     22  C   UNL     1       3.670   2.610  20.117  0.00  0.00    +0.000 C 
ATOM     23  C   UNL     1       4.110   2.263  18.684  0.00  0.00    +0.000 C 
BRANCH  22  24
ATOM     24  O   UNL     1       4.300   1.800  21.105  0.00  0.00    +0.000 OA
ATOM     25  H   UNL     1       4.198   2.259  21.963  0.00  0.00    +0.000 HD
ENDBRANCH  22  24
BRANCH  23  26
ATOM     26  O   UNL     1       4.307   0.828  18.613  0.00  0.00    +0.000 OA
ATOM     27  H   UNL     1       3.972   0.422  19.431  0.00  0.00    +0.000 HD
ENDBRANCH  23  26
BRANCH  21  28
ATOM     28  C   UNL     1       1.431   3.004  21.256  0.00  0.00    +0.000 C 
BRANCH  28  29
ATOM     29  O   UNL     1       2.304   3.119  22.375  0.00  0.00    +0.000 OA
ATOM     30  H   UNL     1       2.936   3.832  22.180  0.00  0.00    +0.000 HD
ENDBRANCH  28  29
ENDBRANCH  21  28
ENDBRANCH  17  19
ENDBRANCH   7  17
TORSDOF 7
ENDMDL
MODEL 3
REMARK VINA RESULT:      -7.2      0.641      1.017
REMARK  Name = 
REMARK  7 active torsions:
REMARK  status: ('A' for Active; 'I' for Inactive)
REMARK    1  A    between atoms: C_6  and  C_7
REMARK    2  A    between atoms: C_13  and  N_14
REMARK    3  A    between atoms: N_14  and  C_15
REMARK    4  A    between atoms: C_17  and  C_18
REMARK    5  A    between atoms: C_18  and  O_19
REMARK    6  A    between atoms: C_20  and  O_21
REMARK    7  A    between atoms: C_22  and  O_23
REMARK                            x       y       z     vdW  Elec       q    Type
REMARK                         _______ _______ _______ _____ _____    ______ ____
ROOT
ATOM      1  N   UNL     1       4.800   1.298  19.786  0.00  0.00    +0.000 N 
ATOM      2  C   UNL     1       4.273   2.567  19.700  0.00  0.00    +0.000 A 
ATOM      3  N   UNL     1       2.984   2.678  19.950  0.00  0.00    +0.000 NA
ATOM      4  C   UNL     1       2.490   3.926  19.925  0.00  0.00    +0.000 A 
ATOM      5 CL   UNL     1       0.768   3.867  20.121  0.00  0.00    +0.000 Cl
ATOM      6  C   UNL     1       3.221   5.087  19.681  0.00  0.00    +0.000 A 
ATOM      7  C   UNL     1       4.571   4.836  19.370  0.00  0.00    +0.000 A 
ATOM      8  N   UNL     1       5.073   3.585  19.356  0.00  0.00    +0.000 NA
ATOM      9  H   UNL     1       4.059   0.609  19.716  0.00  0.00    +0.000 HD
ATOM     10  H   UNL     1       5.611   1.179  19.205  0.00  0.00    +0.000 HD
ENDROOT
BRANCH   6  11
ATOM     11  C   UNL     1       2.591   6.420  19.718  0.00  0.00    +0.000 A 
ATOM     12  C   UNL     1       2.427   7.256  18.616  0.00  0.00    +0.000 A 
ATOM     13  N   UNL     1       1.774   8.450  18.664  0.00  0.00    +0.000 NA
ATOM     14  C   UNL     1       1.245   8.776  19.863  0.00  0.00    +0.000 A 
ATOM     15  C   UNL     1       1.400   7.971  20.971  0.00  0.00    +0.000 A 
ATOM     16  N   UNL     1       2.099   6.813  20.926  0.00  0.00    +0.000 NA
ENDBRANCH   6  11
BRANCH   7  17
ATOM     17  N   UNL     1       5.432   5.892  19.059  0.00  0.00    +0.000 N 
ATOM     18  H   UNL     1       6.219   5.918  19.705  0.00  0.00    +0.000 HD
BRANCH  17  19
ATOM     19  C   UNL     1       5.808   6.359  17.710  0.00  0.00    +0.000 C 
ATOM     20  C   UNL     1       4.858   5.820  16.627  0.00  0.00    +0.000 C 
ATOM     21  C   UNL     1       5.738   5.455  15.425  0.00  0.00    +0.000 C 
ATOM     22  C   UNL     1       7.080   5.088  16.051  0.00  0.00    +0.000 C 
ATOM     23  C   UNL     1       7.241   6.121  17.182  0.00  0.00    +0.000 C 
BRANCH  22  24
ATOM     24  O   UNL     1       8.109   5.172  15.070  0.00  0.00    +0.000 OA
ATOM     25  H   UNL     1       8.945   5.354  15.543  0.00  0.00    +0.000 HD
ENDBRANCH  22  24
BRANCH  23  26
ATOM     26  O   UNL     1       7.771   7.339  16.599  0.00  0.00    +0.000 OA
ATOM     27  H   UNL     1       7.810   8.026  17.285  0.00  0.00    +0.000 HD
ENDBRANCH  23  26
BRANCH  21  28
ATOM     28  C   UNL     1       5.149   4.333  14.580  0.00  0.00    +0.000 C 
BRANCH  28  29
ATOM     29  O   UNL     1       6.187   3.444  14.183  0.00  0.00    +0.000 OA
ATOM     30  H   UNL     1       6.008   3.178  13.264  0.00  0.00    +0.000 HD
ENDBRANCH  28  29
ENDBRANCH  21  28
ENDBRANCH  17  19
ENDBRANCH   7  17
TORSDOF 7
ENDMDL
MODEL 4
REMARK VINA RESULT:      -7.2      1.916      4.312
REMARK  Name = 
REMARK  7 active torsions:
REMARK  status: ('A' for Active; 'I' for Inactive)
REMARK    1  A    between atoms: C_6  and  C_7
REMARK    2  A    between atoms: C_13  and  N_14
REMARK    3  A    between atoms: N_14  and  C_15
REMARK    4  A    between atoms: C_17  and  C_18
REMARK    5  A    between atoms: C_18  and  O_19
REMARK    6  A    between atoms: C_20  and  O_21
REMARK    7  A    between atoms: C_22  and  O_23
REMARK                            x       y       z     vdW  Elec       q    Type
REMARK                         _______ _______ _______ _____ _____    ______ ____
ROOT
ATOM      1  N   UNL     1       2.372   9.700  17.474  0.00  0.00    +0.000 N 
ATOM      2  C   UNL     1       2.345   8.488  18.126  0.00  0.00    +0.000 A 
ATOM      3  N   UNL     1       1.831   8.493  19.340  0.00  0.00    +0.000 NA
ATOM      4  C   UNL     1       1.751   7.297  19.945  0.00  0.00    +0.000 A 
ATOM      5 CL   UNL     1       1.200   7.513  21.574  0.00  0.00    +0.000 Cl
ATOM      6  C   UNL     1       2.141   6.078  19.394  0.00  0.00    +0.000 A 
ATOM      7  C   UNL     1       2.727   6.207  18.120  0.00  0.00    +0.000 A 
ATOM      8  N   UNL     1       2.847   7.407  17.515  0.00  0.00    +0.000 NA
ATOM      9  H   UNL     1       2.286  10.456  18.145  0.00  0.00    +0.000 HD
ATOM     10  H   UNL     1       3.109   9.754  16.794  0.00  0.00    +0.000 HD
ENDROOT
BRANCH   6  11
ATOM     11  C   UNL     1       1.972   4.809  20.127  0.00  0.00    +0.000 A 
ATOM     12  C   UNL     1       2.588   4.498  21.337  0.00  0.00    +0.000 A 
ATOM     13  N   UNL     1       2.356   3.349  22.029  0.00  0.00    +0.000 NA
ATOM     14  C   UNL     1       1.443   2.516  21.485  0.00  0.00    +0.000 A 
ATOM     15  C   UNL     1       0.824   2.797  20.286  0.00  0.00    +0.000 A 
ATOM     16  N   UNL     1       1.104   3.914  19.577  0.00  0.00    +0.000 NA
ENDBRANCH   6  11
BRANCH   7  17
ATOM     17  N   UNL     1       3.209   5.082  17.448  0.00  0.00    +0.000 N 
ATOM     18  H   UNL     1       2.752   4.978  16.543  0.00  0.00    +0.000 HD
BRANCH  17  19
ATOM     19  C   UNL     1       4.604   4.598  17.420  0.00  0.00    +0.000 C 
ATOM     20  C   UNL     1       5.502   5.368  18.403  0.00  0.00    +0.000 C 
ATOM     21  C   UNL     1       6.840   5.584  17.685  0.00  0.00    +0.000 C 
ATOM     22  C   UNL     1       6.461   5.632  16.209  0.00  0.00    +0.000 C 
ATOM     23  C   UNL     1       5.377   4.547  16.082  0.00  0.00    +0.000 C 
BRANCH  22  24
ATOM     24  O   UNL     1       7.609   5.371  15.407  0.00  0.00    +0.000 OA
ATOM     25  H   UNL     1       7.678   6.098  14.757  0.00  0.00    +0.000 HD
ENDBRANCH  22  24
BRANCH  23  26
ATOM     26  O   UNL     1       6.044   3.267  15.936  0.00  0.00    +0.000 OA
ATOM     27  H   UNL     1       6.980   3.421  15.724  0.00  0.00    +0.000 HD
ENDBRANCH  23  26
BRANCH  21  28
ATOM     28  C   UNL     1       7.567   6.837  18.155  0.00  0.00    +0.000 C 
BRANCH  28  29
ATOM     29  O   UNL     1       7.684   7.752  17.070  0.00  0.00    +0.000 OA
ATOM     30  H   UNL     1       8.439   8.334  17.260  0.00  0.00    +0.000 HD
ENDBRANCH  28  29
ENDBRANCH  21  28
ENDBRANCH  17  19
ENDBRANCH   7  17
TORSDOF 7
ENDMDL
MODEL 5
REMARK VINA RESULT:      -7.2      1.785      4.049
REMARK  Name = 
REMARK  7 active torsions:
REMARK  status: ('A' for Active; 'I' for Inactive)
REMARK    1  A    between atoms: C_6  and  C_7
REMARK    2  A    between atoms: C_13  and  N_14
REMARK    3  A    between atoms: N_14  and  C_15
REMARK    4  A    between atoms: C_17  and  C_18
REMARK    5  A    between atoms: C_18  and  O_19
REMARK    6  A    between atoms: C_20  and  O_21
REMARK    7  A    between atoms: C_22  and  O_23
REMARK                            x       y       z     vdW  Elec       q    Type
REMARK                         _______ _______ _______ _____ _____    ______ ____
ROOT
ATOM      1  N   UNL     1       1.777  10.658  17.723  0.00  0.00    +0.000 N 
ATOM      2  C   UNL     1       1.987   9.414  18.273  0.00  0.00    +0.000 A 
ATOM      3  N   UNL     1       1.429   9.196  19.446  0.00  0.00    +0.000 NA
ATOM      4  C   UNL     1       1.585   7.960  19.947  0.00  0.00    +0.000 A 
ATOM      5 CL   UNL     1       0.924   7.901  21.549  0.00  0.00    +0.000 Cl
ATOM      6  C   UNL     1       2.259   6.910  19.328  0.00  0.00    +0.000 A 
ATOM      7  C   UNL     1       2.861   7.279  18.109  0.00  0.00    +0.000 A 
ATOM      8  N   UNL     1       2.743   8.527  17.612  0.00  0.00    +0.000 NA
ATOM      9  H   UNL     1       1.496  11.313  18.444  0.00  0.00    +0.000 HD
ATOM     10  H   UNL     1       2.516  10.932  17.100  0.00  0.00    +0.000 HD
ENDROOT
BRANCH   6  11
ATOM     11  C   UNL     1       2.340   5.572  19.944  0.00  0.00    +0.000 A 
ATOM     12  C   UNL     1       1.262   4.877  20.487  0.00  0.00    +0.000 A 
ATOM     13  N   UNL     1       1.351   3.612  20.982  0.00  0.00    +0.000 NA
ATOM     14  C   UNL     1       2.567   3.033  20.884  0.00  0.00    +0.000 A 
ATOM     15  C   UNL     1       3.651   3.701  20.358  0.00  0.00    +0.000 A 
ATOM     16  N   UNL     1       3.566   4.979  19.921  0.00  0.00    +0.000 NA
ENDBRANCH   6  11
BRANCH   7  17
ATOM     17  N   UNL     1       3.611   6.351  17.383  0.00  0.00    +0.000 N 
ATOM     18  H   UNL     1       3.058   5.956  16.624  0.00  0.00    +0.000 HD
BRANCH  17  19
ATOM     19  C   UNL     1       5.041   6.450  17.030  0.00  0.00    +0.000 C 
ATOM     20  C   UNL     1       5.283   6.213  15.530  0.00  0.00    +0.000 C 
ATOM     21  C   UNL     1       6.562   5.373  15.427  0.00  0.00    +0.000 C 
ATOM     22  C   UNL     1       6.581   4.573  16.725  0.00  0.00    +0.000 C 
ATOM     23  C   UNL     1       6.083   5.583  17.775  0.00  0.00    +0.000 C 
BRANCH  22  24
ATOM     24  O   UNL     1       7.901   4.105  16.985  0.00  0.00    +0.000 OA
ATOM     25  H   UNL     1       8.426   4.259  16.174  0.00  0.00    +0.000 HD
ENDBRANCH  22  24
BRANCH  23  26
ATOM     26  O   UNL     1       7.213   6.396  18.182  0.00  0.00    +0.000 OA
ATOM     27  H   UNL     1       7.917   5.814  18.514  0.00  0.00    +0.000 HD
ENDBRANCH  23  26
BRANCH  21  28
ATOM     28  C   UNL     1       6.592   4.492  14.184  0.00  0.00    +0.000 C 
BRANCH  28  29
ATOM     29  O   UNL     1       6.253   3.156  14.542  0.00  0.00    +0.000 OA
ATOM     30  H   UNL     1       7.052   2.613  14.429  0.00  0.00    +0.000 HD
ENDBRANCH  28  29
ENDBRANCH  21  28
ENDBRANCH  17  19
ENDBRANCH   7  17
TORSDOF 7
ENDMDL
MODEL 6
REMARK VINA RESULT:      -7.1      3.649      5.176
REMARK  Name = 
REMARK  7 active torsions:
REMARK  status: ('A' for Active; 'I' for Inactive)
REMARK    1  A    between atoms: C_6  and  C_7
REMARK    2  A    between atoms: C_13  and  N_14
REMARK    3  A    between atoms: N_14  and  C_15
REMARK    4  A    between atoms: C_17  and  C_18
REMARK    5  A    between atoms: C_18  and  O_19
REMARK    6  A    between atoms: C_20  and  O_21
REMARK    7  A    between atoms: C_22  and  O_23
REMARK                            x       y       z     vdW  Elec       q    Type
REMARK                         _______ _______ _______ _____ _____    ______ ____
ROOT
ATOM      1  N   UNL     1       7.572   4.313  14.915  0.00  0.00    +0.000 N 
ATOM      2  C   UNL     1       6.593   4.829  15.734  0.00  0.00    +0.000 A 
ATOM      3  N   UNL     1       6.852   5.999  16.282  0.00  0.00    +0.000 NA
ATOM      4  C   UNL     1       5.868   6.524  17.030  0.00  0.00    +0.000 A 
ATOM      5 CL   UNL     1       6.436   7.976  17.788  0.00  0.00    +0.000 Cl
ATOM      6  C   UNL     1       4.617   5.951  17.249  0.00  0.00    +0.000 A 
ATOM      7  C   UNL     1       4.480   4.678  16.662  0.00  0.00    +0.000 A 
ATOM      8  N   UNL     1       5.474   4.122  15.939  0.00  0.00    +0.000 NA
ATOM      9  H   UNL     1       8.461   4.759  15.113  0.00  0.00    +0.000 HD
ATOM     10  H   UNL     1       7.547   3.310  14.873  0.00  0.00    +0.000 HD
ENDROOT
BRANCH   6  11
ATOM     11  C   UNL     1       3.586   6.631  18.055  0.00  0.00    +0.000 A 
ATOM     12  C   UNL     1       3.199   6.254  19.339  0.00  0.00    +0.000 A 
ATOM     13  N   UNL     1       2.297   6.945  20.089  0.00  0.00    +0.000 NA
ATOM     14  C   UNL     1       1.809   8.069  19.523  0.00  0.00    +0.000 A 
ATOM     15  C   UNL     1       2.170   8.461  18.252  0.00  0.00    +0.000 A 
ATOM     16  N   UNL     1       3.023   7.737  17.492  0.00  0.00    +0.000 NA
ENDBRANCH   6  11
BRANCH   7  17
ATOM     17  N   UNL     1       3.299   3.950  16.824  0.00  0.00    +0.000 N 
ATOM     18  H   UNL     1       2.829   3.822  15.929  0.00  0.00    +0.000 HD
BRANCH  17  19
ATOM     19  C   UNL     1       3.082   2.805  17.730  0.00  0.00    +0.000 C 
ATOM     20  C   UNL     1       1.802   2.966  18.567  0.00  0.00    +0.000 C 
ATOM     21  C   UNL     1       2.141   2.459  19.974  0.00  0.00    +0.000 C 
ATOM     22  C   UNL     1       3.635   2.731  20.112  0.00  0.00    +0.000 C 
ATOM     23  C   UNL     1       4.192   2.382  18.720  0.00  0.00    +0.000 C 
BRANCH  22  24
ATOM     24  O   UNL     1       4.180   1.920  21.149  0.00  0.00    +0.000 OA
ATOM     25  H   UNL     1       5.134   2.126  21.205  0.00  0.00    +0.000 HD
ENDBRANCH  22  24
BRANCH  23  26
ATOM     26  O   UNL     1       4.391   0.946  18.668  0.00  0.00    +0.000 OA
ATOM     27  H   UNL     1       3.671   0.546  18.152  0.00  0.00    +0.000 HD
ENDBRANCH  23  26
BRANCH  21  28
ATOM     28  C   UNL     1       1.311   3.131  21.060  0.00  0.00    +0.000 C 
BRANCH  28  29
ATOM     29  O   UNL     1       2.060   3.174  22.271  0.00  0.00    +0.000 OA
ATOM     30  H   UNL     1       2.438   2.289  22.411  0.00  0.00    +0.000 HD
ENDBRANCH  28  29
ENDBRANCH  21  28
ENDBRANCH  17  19
ENDBRANCH   7  17
TORSDOF 7
ENDMDL
MODEL 7
REMARK VINA RESULT:      -7.0      1.981      4.449
REMARK  Name = 
REMARK  7 active torsions:
REMARK  status: ('A' for Active; 'I' for Inactive)
REMARK    1  A    between atoms: C_6  and  C_7
REMARK    2  A    between atoms: C_13  and  N_14
REMARK    3  A    between atoms: N_14  and  C_15
REMARK    4  A    between atoms: C_17  and  C_18
REMARK    5  A    between atoms: C_18  and  O_19
REMARK    6  A    between atoms: C_20  and  O_21
REMARK    7  A    between atoms: C_22  and  O_23
REMARK                            x       y       z     vdW  Elec       q    Type
REMARK                         _______ _______ _______ _____ _____    ______ ____
ROOT
ATOM      1  N   UNL     1       2.324   9.976  17.606  0.00  0.00    +0.000 N 
ATOM      2  C   UNL     1       2.315   8.736  18.204  0.00  0.00    +0.000 A 
ATOM      3  N   UNL     1       1.760   8.671  19.397  0.00  0.00    +0.000 NA
ATOM      4  C   UNL     1       1.699   7.447  19.946  0.00  0.00    +0.000 A 
ATOM      5 CL   UNL     1       1.085   7.574  21.563  0.00  0.00    +0.000 Cl
ATOM      6  C   UNL     1       2.146   6.267  19.358  0.00  0.00    +0.000 A 
ATOM      7  C   UNL     1       2.771   6.471  18.112  0.00  0.00    +0.000 A 
ATOM      8  N   UNL     1       2.872   7.699  17.565  0.00  0.00    +0.000 NA
ATOM      9  H   UNL     1       2.191  10.699  18.305  0.00  0.00    +0.000 HD
ATOM     10  H   UNL     1       3.082  10.083  16.956  0.00  0.00    +0.000 HD
ENDROOT
BRANCH   6  11
ATOM     11  C   UNL     1       1.994   4.962  20.028  0.00  0.00    +0.000 A 
ATOM     12  C   UNL     1       2.503   4.647  21.286  0.00  0.00    +0.000 A 
ATOM     13  N   UNL     1       2.283   3.458  21.913  0.00  0.00    +0.000 NA
ATOM     14  C   UNL     1       1.493   2.587  21.250  0.00  0.00    +0.000 A 
ATOM     15  C   UNL     1       0.983   2.872  20.002  0.00  0.00    +0.000 A 
ATOM     16  N   UNL     1       1.254   4.032  19.362  0.00  0.00    +0.000 NA
ENDBRANCH   6  11
BRANCH   7  17
ATOM     17  N   UNL     1       3.312   5.392  17.409  0.00  0.00    +0.000 N 
ATOM     18  H   UNL     1       2.720   5.142  16.619  0.00  0.00    +0.000 HD
BRANCH  17  19
ATOM     19  C   UNL     1       4.741   5.146  17.128  0.00  0.00    +0.000 C 
ATOM     20  C   UNL     1       5.532   4.818  18.405  0.00  0.00    +0.000 C 
ATOM     21  C   UNL     1       6.879   5.541  18.274  0.00  0.00    +0.000 C 
ATOM     22  C   UNL     1       6.560   6.757  17.411  0.00  0.00    +0.000 C 
ATOM     23  C   UNL     1       5.572   6.205  16.367  0.00  0.00    +0.000 C 
BRANCH  22  24
ATOM     24  O   UNL     1       7.758   7.264  16.830  0.00  0.00    +0.000 OA
ATOM     25  H   UNL     1       8.121   7.927  17.450  0.00  0.00    +0.000 HD
ENDBRANCH  22  24
BRANCH  23  26
ATOM     26  O   UNL     1       6.343   5.576  15.312  0.00  0.00    +0.000 OA
ATOM     27  H   UNL     1       7.251   5.430  15.629  0.00  0.00    +0.000 HD
ENDBRANCH  23  26
BRANCH  21  28
ATOM     28  C   UNL     1       7.484   5.910  19.622  0.00  0.00    +0.000 C 
BRANCH  28  29
ATOM     29  O   UNL     1       8.637   5.109  19.859  0.00  0.00    +0.000 OA
ATOM     30  H   UNL     1       8.335   4.271  20.248  0.00  0.00    +0.000 HD
ENDBRANCH  28  29
ENDBRANCH  21  28
ENDBRANCH  17  19
ENDBRANCH   7  17
TORSDOF 7
ENDMDL
MODEL 8
REMARK VINA RESULT:      -6.9      1.579      4.058
REMARK  Name = 
REMARK  7 active torsions:
REMARK  status: ('A' for Active; 'I' for Inactive)
REMARK    1  A    between atoms: C_6  and  C_7
REMARK    2  A    between atoms: C_13  and  N_14
REMARK    3  A    between atoms: N_14  and  C_15
REMARK    4  A    between atoms: C_17  and  C_18
REMARK    5  A    between atoms: C_18  and  O_19
REMARK    6  A    between atoms: C_20  and  O_21
REMARK    7  A    between atoms: C_22  and  O_23
REMARK                            x       y       z     vdW  Elec       q    Type
REMARK                         _______ _______ _______ _____ _____    ______ ____
ROOT
ATOM      1  N   UNL     1       1.243   8.509  20.795  0.00  0.00    +0.000 N 
ATOM      2  C   UNL     1       1.791   7.323  20.365  0.00  0.00    +0.000 A 
ATOM      3  N   UNL     1       1.586   6.275  21.137  0.00  0.00    +0.000 NA
ATOM      4  C   UNL     1       2.071   5.109  20.679  0.00  0.00    +0.000 A 
ATOM      5 CL   UNL     1       1.846   3.882  21.883  0.00  0.00    +0.000 Cl
ATOM      6  C   UNL     1       2.740   4.923  19.471  0.00  0.00    +0.000 A 
ATOM      7  C   UNL     1       2.950   6.122  18.764  0.00  0.00    +0.000 A 
ATOM      8  N   UNL     1       2.501   7.305  19.229  0.00  0.00    +0.000 NA
ATOM      9  H   UNL     1       1.041   8.458  21.788  0.00  0.00    +0.000 HD
ATOM     10  H   UNL     1       1.746   9.310  20.457  0.00  0.00    +0.000 HD
ENDROOT
BRANCH   6  11
ATOM     11  C   UNL     1       3.198   3.589  19.039  0.00  0.00    +0.000 A 
ATOM     12  C   UNL     1       4.098   2.788  19.738  0.00  0.00    +0.000 A 
ATOM     13  N   UNL     1       4.446   1.529  19.353  0.00  0.00    +0.000 NA
ATOM     14  C   UNL     1       3.828   1.068  18.244  0.00  0.00    +0.000 A 
ATOM     15  C   UNL     1       2.940   1.843  17.530  0.00  0.00    +0.000 A 
ATOM     16  N   UNL     1       2.644   3.113  17.888  0.00  0.00    +0.000 NA
ENDBRANCH   6  11
BRANCH   7  17
ATOM     17  N   UNL     1       3.644   6.113  17.551  0.00  0.00    +0.000 N 
ATOM     18  H   UNL     1       3.097   6.563  16.819  0.00  0.00    +0.000 HD
BRANCH  17  19
ATOM     19  C   UNL     1       5.094   6.316  17.360  0.00  0.00    +0.000 C 
ATOM     20  C   UNL     1       5.491   6.275  15.875  0.00  0.00    +0.000 C 
ATOM     21  C   UNL     1       6.818   5.509  15.805  0.00  0.00    +0.000 C 
ATOM     22  C   UNL     1       6.756   4.558  16.996  0.00  0.00    +0.000 C 
ATOM     23  C   UNL     1       6.105   5.411  18.100  0.00  0.00    +0.000 C 
BRANCH  22  24
ATOM     24  O   UNL     1       8.069   4.119  17.332  0.00  0.00    +0.000 OA
ATOM     25  H   UNL     1       8.050   3.142  17.352  0.00  0.00    +0.000 HD
ENDBRANCH  22  24
BRANCH  23  26
ATOM     26  O   UNL     1       7.145   6.215  18.713  0.00  0.00    +0.000 OA
ATOM     27  H   UNL     1       7.492   6.839  18.053  0.00  0.00    +0.000 HD
ENDBRANCH  23  26
BRANCH  21  28
ATOM     28  C   UNL     1       7.016   4.788  14.478  0.00  0.00    +0.000 C 
BRANCH  28  29
ATOM     29  O   UNL     1       7.941   5.517  13.677  0.00  0.00    +0.000 OA
ATOM     30  H   UNL     1       8.430   4.872  13.137  0.00  0.00    +0.000 HD
ENDBRANCH  28  29
ENDBRANCH  21  28
ENDBRANCH  17  19
ENDBRANCH   7  17
TORSDOF 7
ENDMDL
MODEL 9
REMARK VINA RESULT:      -6.9      1.609      2.634
REMARK  Name = 
REMARK  7 active torsions:
REMARK  status: ('A' for Active; 'I' for Inactive)
REMARK    1  A    between atoms: C_6  and  C_7
REMARK    2  A    between atoms: C_13  and  N_14
REMARK    3  A    between atoms: N_14  and  C_15
REMARK    4  A    between atoms: C_17  and  C_18
REMARK    5  A    between atoms: C_18  and  O_19
REMARK    6  A    between atoms: C_20  and  O_21
REMARK    7  A    between atoms: C_22  and  O_23
REMARK                            x       y       z     vdW  Elec       q    Type
REMARK                         _______ _______ _______ _____ _____    ______ ____
ROOT
ATOM      1  N   UNL     1       4.442   0.411  18.808  0.00  0.00    +0.000 N 
ATOM      2  C   UNL     1       4.011   1.713  18.918  0.00  0.00    +0.000 A 
ATOM      3  N   UNL     1       2.712   1.905  18.812  0.00  0.00    +0.000 NA
ATOM      4  C   UNL     1       2.293   3.169  18.983  0.00  0.00    +0.000 A 
ATOM      5 CL   UNL     1       0.591   3.259  18.660  0.00  0.00    +0.000 Cl
ATOM      6  C   UNL     1       3.103   4.264  19.276  0.00  0.00    +0.000 A 
ATOM      7  C   UNL     1       4.475   3.945  19.306  0.00  0.00    +0.000 A 
ATOM      8  N   UNL     1       4.913   2.686  19.100  0.00  0.00    +0.000 NA
ATOM      9  H   UNL     1       3.734  -0.152  18.349  0.00  0.00    +0.000 HD
ATOM     10  H   UNL     1       5.386   0.346  18.471  0.00  0.00    +0.000 HD
ENDROOT
BRANCH   6  11
ATOM     11  C   UNL     1       2.539   5.610  19.488  0.00  0.00    +0.000 A 
ATOM     12  C   UNL     1       1.819   6.006  20.612  0.00  0.00    +0.000 A 
ATOM     13  N   UNL     1       1.374   7.277  20.815  0.00  0.00    +0.000 NA
ATOM     14  C   UNL     1       1.707   8.170  19.858  0.00  0.00    +0.000 A 
ATOM     15  C   UNL     1       2.412   7.802  18.732  0.00  0.00    +0.000 A 
ATOM     16  N   UNL     1       2.801   6.525  18.512  0.00  0.00    +0.000 NA
ENDBRANCH   6  11
BRANCH   7  17
ATOM     17  N   UNL     1       5.426   4.941  19.545  0.00  0.00    +0.000 N 
ATOM     18  H   UNL     1       5.496   5.139  20.542  0.00  0.00    +0.000 HD
BRANCH  17  19
ATOM     19  C   UNL     1       6.719   5.114  18.855  0.00  0.00    +0.000 C 
ATOM     20  C   UNL     1       7.315   6.512  19.089  0.00  0.00    +0.000 C 
ATOM     21  C   UNL     1       7.919   6.953  17.750  0.00  0.00    +0.000 C 
ATOM     22  C   UNL     1       7.064   6.237  16.709  0.00  0.00    +0.000 C 
ATOM     23  C   UNL     1       6.824   4.852  17.335  0.00  0.00    +0.000 C 
BRANCH  22  24
ATOM     24  O   UNL     1       7.764   6.176  15.469  0.00  0.00    +0.000 OA
ATOM     25  H   UNL     1       7.220   6.649  14.808  0.00  0.00    +0.000 HD
ENDBRANCH  22  24
BRANCH  23  26
ATOM     26  O   UNL     1       7.983   4.027  17.047  0.00  0.00    +0.000 OA
ATOM     27  H   UNL     1       8.785   4.502  17.322  0.00  0.00    +0.000 HD
ENDBRANCH  23  26
BRANCH  21  28
ATOM     28  C   UNL     1       7.927   8.466  17.575  0.00  0.00    +0.000 C 
BRANCH  28  29
ATOM     29  O   UNL     1       8.655   9.062  18.645  0.00  0.00    +0.000 OA
ATOM     30  H   UNL     1       8.323   9.970  18.753  0.00  0.00    +0.000 HD
ENDBRANCH  28  29
ENDBRANCH  21  28
ENDBRANCH  17  19
ENDBRANCH   7  17
TORSDOF 7
ENDMDL
