MODEL 1
REMARK VINA RESULT:      -7.1      0.000      0.000
REMARK  Name = 
REMARK  6 active torsions:
REMARK  status: ('A' for Active; 'I' for Inactive)
REMARK    1  A    between atoms: C_1  and  O_2
REMARK    2  A    between atoms: O_2  and  C_3
REMARK    3  A    between atoms: C_12  and  C_13
REMARK    4  A    between atoms: C_13  and  N_14
REMARK    5  A    between atoms: N_17  and  S_18
REMARK    6  A    between atoms: S_18  and  N_19
REMARK                            x       y       z     vdW  Elec       q    Type
REMARK                         _______ _______ _______ _____ _____    ______ ____
ROOT
ATOM      1  C   UNL     1       3.558   3.690  17.672  0.00  0.00    +0.000 A 
ATOM      2  C   UNL     1       3.543   2.391  18.173  0.00  0.00    +0.000 A 
ATOM      3  C   UNL     1       2.964   2.132  19.417  0.00  0.00    +0.000 A 
ATOM      4  C   UNL     1       2.389   3.168  20.160  0.00  0.00    +0.000 A 
ATOM      5 CL   UNL     1       1.725   2.734  21.703  0.00  0.00    +0.000 Cl
ATOM      6  C   UNL     1       2.378   4.488  19.672  0.00  0.00    +0.000 A 
ATOM      7  C   UNL     1       2.997   4.748  18.430  0.00  0.00    +0.000 A 
ATOM      8  C   UNL     1       2.973   6.151  17.864  0.00  0.00    +0.000 C 
ATOM      9  C   UNL     1       2.811   7.267  18.908  0.00  0.00    +0.000 C 
ATOM     10  C   UNL     1       1.949   6.904  20.092  0.00  0.00    +0.000 C 
ATOM     11  C   UNL     1       1.755   5.609  20.416  0.00  0.00    +0.000 C 
ENDROOT
BRANCH   1  13
ATOM     12  C   UNL     1       5.526   3.876  16.326  0.00  0.00    +0.000 C 
ATOM     13  O   UNL     1       4.119   4.039  16.470  0.00  0.00    +0.000 OA
ENDBRANCH   1  13
BRANCH  10  14
ATOM     14  C   UNL     1       1.488   8.029  21.008  0.00  0.00    +0.000 C 
BRANCH  14  15
ATOM     15  N   UNL     1       0.132   8.557  20.784  0.00  0.00    +0.000 NA
ATOM     16  C   UNL     1      -0.552   9.007  22.009  0.00  0.00    +0.000 C 
ATOM     17  C   UNL     1       0.052  10.244  22.698  0.00  0.00    +0.000 C 
ATOM     18  N   UNL     1       0.368  11.362  21.774  0.00  0.00    +0.000 NA
ATOM     19  C   UNL     1       0.810  11.002  20.403  0.00  0.00    +0.000 C 
ATOM     20  C   UNL     1       0.154   9.716  19.860  0.00  0.00    +0.000 C 
BRANCH  18  21
ATOM     21  S   UNL     1      -0.333  12.851  22.015  0.00  0.00    +0.000 S 
ATOM     22  O   UNL     1      -1.323  13.092  20.996  0.00  0.00    +0.000 OA
ATOM     23  O   UNL     1      -0.583  13.025  23.423  0.00  0.00    +0.000 OA
BRANCH  21  24
ATOM     24  N   UNL     1       0.978  13.786  21.618  0.00  0.00    +0.000 NA
ATOM     25  H   UNL     1       1.690  13.258  21.122  0.00  0.00    +0.000 HD
ATOM     26  H   UNL     1       1.280  14.407  22.357  0.00  0.00    +0.000 HD
ENDBRANCH  21  24
ENDBRANCH  18  21
ENDBRANCH  14  15
ENDBRANCH  10  14
TORSDOF 5
ENDMDL
MODEL 2
REMARK VINA RESULT:      -7.0      4.220      8.416
REMARK  Name = 
REMARK  6 active torsions:
REMARK  status: ('A' for Active; 'I' for Inactive)
REMARK    1  A    between atoms: C_1  and  O_2
REMARK    2  A    between atoms: O_2  and  C_3
REMARK    3  A    between atoms: C_12  and  C_13
REMARK    4  A    between atoms: C_13  and  N_14
REMARK    5  A    between atoms: N_17  and  S_18
REMARK    6  A    between atoms: S_18  and  N_19
REMARK                            x       y       z     vdW  Elec       q    Type
REMARK                         _______ _______ _______ _____ _____    ______ ____
ROOT
ATOM      1  C   UNL     1      -0.020  11.852  19.573  0.00  0.00    +0.000 A 
ATOM      2  C   UNL     1      -0.701  12.219  20.730  0.00  0.00    +0.000 A 
ATOM      3  C   UNL     1      -0.668  11.386  21.850  0.00  0.00    +0.000 A 
ATOM      4  C   UNL     1       0.055  10.188  21.821  0.00  0.00    +0.000 A 
ATOM      5 CL   UNL     1       0.002   9.220  23.260  0.00  0.00    +0.000 Cl
ATOM      6  C   UNL     1       0.763   9.799  20.669  0.00  0.00    +0.000 A 
ATOM      7  C   UNL     1       0.695  10.629  19.529  0.00  0.00    +0.000 A 
ATOM      8  C   UNL     1       1.472  10.254  18.286  0.00  0.00    +0.000 C 
ATOM      9  C   UNL     1       1.788   8.756  18.148  0.00  0.00    +0.000 C 
ATOM     10  C   UNL     1       2.037   8.041  19.452  0.00  0.00    +0.000 C 
ATOM     11  C   UNL     1       1.563   8.552  20.607  0.00  0.00    +0.000 C 
ENDROOT
BRANCH   1  13
ATOM     12  C   UNL     1      -0.290  13.990  18.537  0.00  0.00    +0.000 C 
ATOM     13  O   UNL     1      -0.012  12.599  18.422  0.00  0.00    +0.000 OA
ENDBRANCH   1  13
BRANCH  10  14
ATOM     14  C   UNL     1       2.651   6.648  19.394  0.00  0.00    +0.000 C 
BRANCH  14  15
ATOM     15  N   UNL     1       2.827   6.053  18.060  0.00  0.00    +0.000 NA
ATOM     16  C   UNL     1       3.727   6.814  17.173  0.00  0.00    +0.000 C 
ATOM     17  C   UNL     1       5.207   6.852  17.593  0.00  0.00    +0.000 C 
ATOM     18  N   UNL     1       5.765   5.531  17.978  0.00  0.00    +0.000 NA
ATOM     19  C   UNL     1       4.842   4.575  18.642  0.00  0.00    +0.000 C 
ATOM     20  C   UNL     1       3.383   4.682  18.152  0.00  0.00    +0.000 C 
BRANCH  18  21
ATOM     21  S   UNL     1       7.081   4.924  17.161  0.00  0.00    +0.000 S 
ATOM     22  O   UNL     1       7.493   5.857  16.144  0.00  0.00    +0.000 OA
ATOM     23  O   UNL     1       7.987   4.334  18.114  0.00  0.00    +0.000 OA
BRANCH  21  24
ATOM     24  N   UNL     1       6.307   3.689  16.371  0.00  0.00    +0.000 NA
ATOM     25  H   UNL     1       5.303   3.702  16.527  0.00  0.00    +0.000 HD
ATOM     26  H   UNL     1       6.783   2.798  16.434  0.00  0.00    +0.000 HD
ENDBRANCH  21  24
ENDBRANCH  18  21
ENDBRANCH  14  15
ENDBRANCH  10  14
TORSDOF 5
ENDMDL
MODEL 3
REMARK VINA RESULT:      -6.9      4.405      8.479
REMARK  Name = 
REMARK  6 active torsions:
REMARK  status: ('A' for Active; 'I' for Inactive)
REMARK    1  A    between atoms: C_1  and  O_2
REMARK    2  A    between atoms: O_2  and  C_3
REMARK    3  A    between atoms: C_12  and  C_13
REMARK    4  A    between atoms: C_13  and  N_14
REMARK    5  A    between atoms: N_17  and  S_18
REMARK    6  A    between atoms: S_18  and  N_19
REMARK                            x       y       z     vdW  Elec       q    Type
REMARK                         _______ _______ _______ _____ _____    ______ ____
ROOT
ATOM      1  C   UNL     1       0.632  11.614  19.427  0.00  0.00    +0.000 A 
ATOM      2  C   UNL     1      -0.154  11.846  20.553  0.00  0.00    +0.000 A 
ATOM      3  C   UNL     1      -0.385  10.814  21.464  0.00  0.00    +0.000 A 
ATOM      4  C   UNL     1       0.178   9.549  21.260  0.00  0.00    +0.000 A 
ATOM      5 CL   UNL     1      -0.200   8.338  22.442  0.00  0.00    +0.000 Cl
ATOM      6  C   UNL     1       0.986   9.291  20.137  0.00  0.00    +0.000 A 
ATOM      7  C   UNL     1       1.185  10.329  19.202  0.00  0.00    +0.000 A 
ATOM      8  C   UNL     1       2.076  10.091  18.002  0.00  0.00    +0.000 C 
ATOM      9  C   UNL     1       2.216   8.619  17.582  0.00  0.00    +0.000 C 
ATOM     10  C   UNL     1       2.187   7.632  18.722  0.00  0.00    +0.000 C 
ATOM     11  C   UNL     1       1.622   7.973  19.899  0.00  0.00    +0.000 C 
ENDROOT
BRANCH   1  13
ATOM     12  C   UNL     1       0.037  13.695  18.410  0.00  0.00    +0.000 C 
ATOM     13  O   UNL     1       0.897  12.562  18.472  0.00  0.00    +0.000 OA
ENDBRANCH   1  13
BRANCH  10  14
ATOM     14  C   UNL     1       2.621   6.200  18.435  0.00  0.00    +0.000 C 
BRANCH  14  15
ATOM     15  N   UNL     1       3.962   5.807  18.895  0.00  0.00    +0.000 NA
ATOM     16  C   UNL     1       4.346   4.431  18.532  0.00  0.00    +0.000 C 
ATOM     17  C   UNL     1       4.545   4.166  17.028  0.00  0.00    +0.000 C 
ATOM     18  N   UNL     1       5.361   5.192  16.332  0.00  0.00    +0.000 NA
ATOM     19  C   UNL     1       5.246   6.591  16.818  0.00  0.00    +0.000 C 
ATOM     20  C   UNL     1       5.005   6.700  18.337  0.00  0.00    +0.000 C 
BRANCH  18  21
ATOM     21  S   UNL     1       6.753   4.739  15.542  0.00  0.00    +0.000 S 
ATOM     22  O   UNL     1       6.984   5.615  14.422  0.00  0.00    +0.000 OA
ATOM     23  O   UNL     1       7.760   4.420  16.523  0.00  0.00    +0.000 OA
BRANCH  21  24
ATOM     24  N   UNL     1       6.199   3.311  14.908  0.00  0.00    +0.000 NA
ATOM     25  H   UNL     1       6.471   3.191  13.936  0.00  0.00    +0.000 HD
ATOM     26  H   UNL     1       5.245   3.090  15.161  0.00  0.00    +0.000 HD
ENDBRANCH  21  24
ENDBRANCH  18  21
ENDBRANCH  14  15
ENDBRANCH  10  14
TORSDOF 5
ENDMDL
MODEL 4
REMARK VINA RESULT:      -6.9      1.127      1.560
REMARK  Name = 
REMARK  6 active torsions:
REMARK  status: ('A' for Active; 'I' for Inactive)
REMARK    1  A    between atoms: C_1  and  O_2
REMARK    2  A    between atoms: O_2  and  C_3
REMARK    3  A    between atoms: C_12  and  C_13
REMARK    4  A    between atoms: C_13  and  N_14
REMARK    5  A    between atoms: N_17  and  S_18
REMARK    6  A    between atoms: S_18  and  N_19
REMARK                            x       y       z     vdW  Elec       q    Type
REMARK                         _______ _______ _______ _____ _____    ______ ____
ROOT
ATOM      1  C   UNL     1       3.719   3.810  17.708  0.00  0.00    +0.000 A 
ATOM      2  C   UNL     1       3.821   2.471  18.078  0.00  0.00    +0.000 A 
ATOM      3  C   UNL     1       3.192   2.021  19.240  0.00  0.00    +0.000 A 
ATOM      4  C   UNL     1       2.450   2.904  20.032  0.00  0.00    +0.000 A 
ATOM      5 CL   UNL     1       1.737   2.240  21.467  0.00  0.00    +0.000 Cl
ATOM      6  C   UNL     1       2.320   4.259  19.675  0.00  0.00    +0.000 A 
ATOM      7  C   UNL     1       2.988   4.714  18.518  0.00  0.00    +0.000 A 
ATOM      8  C   UNL     1       2.839   6.158  18.091  0.00  0.00    +0.000 C 
ATOM      9  C   UNL     1       2.477   7.134  19.222  0.00  0.00    +0.000 C 
ATOM     10  C   UNL     1       1.584   6.556  20.292  0.00  0.00    +0.000 C 
ATOM     11  C   UNL     1       1.520   5.220  20.472  0.00  0.00    +0.000 C 
ENDROOT
BRANCH   1  13
ATOM     12  C   UNL     1       5.727   4.199  16.470  0.00  0.00    +0.000 C 
ATOM     13  O   UNL     1       4.316   4.342  16.595  0.00  0.00    +0.000 OA
ENDBRANCH   1  13
BRANCH  10  14
ATOM     14  C   UNL     1       0.932   7.521  21.274  0.00  0.00    +0.000 C 
BRANCH  14  15
ATOM     15  N   UNL     1       1.504   8.875  21.355  0.00  0.00    +0.000 NA
ATOM     16  C   UNL     1       0.859   9.857  20.465  0.00  0.00    +0.000 C 
ATOM     17  C   UNL     1      -0.599  10.215  20.807  0.00  0.00    +0.000 C 
ATOM     18  N   UNL     1      -0.835  10.502  22.244  0.00  0.00    +0.000 NA
ATOM     19  C   UNL     1      -0.019   9.743  23.227  0.00  0.00    +0.000 C 
ATOM     20  C   UNL     1       1.404   9.418  22.730  0.00  0.00    +0.000 C 
BRANCH  18  21
ATOM     21  S   UNL     1      -1.452  11.979  22.698  0.00  0.00    +0.000 S 
ATOM     22  O   UNL     1      -2.685  11.789  23.419  0.00  0.00    +0.000 OA
ATOM     23  O   UNL     1      -0.373  12.807  23.173  0.00  0.00    +0.000 OA
BRANCH  21  24
ATOM     24  N   UNL     1      -1.876  12.519  21.189  0.00  0.00    +0.000 NA
ATOM     25  H   UNL     1      -2.396  13.392  21.225  0.00  0.00    +0.000 HD
ATOM     26  H   UNL     1      -2.215  11.793  20.571  0.00  0.00    +0.000 HD
ENDBRANCH  21  24
ENDBRANCH  18  21
ENDBRANCH  14  15
ENDBRANCH  10  14
TORSDOF 5
ENDMDL
MODEL 5
REMARK VINA RESULT:      -6.6      1.277      1.896
REMARK  Name = 
REMARK  6 active torsions:
REMARK  status: ('A' for Active; 'I' for Inactive)
REMARK    1  A    between atoms: C_1  and  O_2
REMARK    2  A    between atoms: O_2  and  C_3
REMARK    3  A    between atoms: C_12  and  C_13
REMARK    4  A    between atoms: C_13  and  N_14
REMARK    5  A    between atoms: N_17  and  S_18
REMARK    6  A    between atoms: S_18  and  N_19
REMARK                            x       y       z     vdW  Elec       q    Type
REMARK                         _______ _______ _______ _____ _____    ______ ____
ROOT
ATOM      1  C   UNL     1       4.268   4.223  18.535  0.00  0.00    +0.000 A 
ATOM      2  C   UNL     1       4.386   2.930  19.037  0.00  0.00    +0.000 A 
ATOM      3  C   UNL     1       3.570   2.516  20.091  0.00  0.00    +0.000 A 
ATOM      4  C   UNL     1       2.624   3.389  20.640  0.00  0.00    +0.000 A 
ATOM      5 CL   UNL     1       1.685   2.775  21.963  0.00  0.00    +0.000 Cl
ATOM      6  C   UNL     1       2.474   4.697  20.143  0.00  0.00    +0.000 A 
ATOM      7  C   UNL     1       3.327   5.120  19.101  0.00  0.00    +0.000 A 
ATOM      8  C   UNL     1       3.168   6.509  18.524  0.00  0.00    +0.000 C 
ATOM      9  C   UNL     1       2.518   7.532  19.470  0.00  0.00    +0.000 C 
ATOM     10  C   UNL     1       1.471   6.962  20.393  0.00  0.00    +0.000 C 
ATOM     11  C   UNL     1       1.465   5.643  20.678  0.00  0.00    +0.000 C 
ENDROOT
BRANCH   1  13
ATOM     12  C   UNL     1       5.124   3.953  16.318  0.00  0.00    +0.000 C 
ATOM     13  O   UNL     1       5.038   4.720  17.515  0.00  0.00    +0.000 OA
ENDBRANCH   1  13
BRANCH  10  14
ATOM     14  C   UNL     1       0.570   7.938  21.138  0.00  0.00    +0.000 C 
BRANCH  14  15
ATOM     15  N   UNL     1       1.180   9.201  21.583  0.00  0.00    +0.000 NA
ATOM     16  C   UNL     1       0.877  10.356  20.719  0.00  0.00    +0.000 C 
ATOM     17  C   UNL     1      -0.592  10.817  20.707  0.00  0.00    +0.000 C 
ATOM     18  N   UNL     1      -1.205  10.931  22.054  0.00  0.00    +0.000 NA
ATOM     19  C   UNL     1      -0.751   9.967  23.088  0.00  0.00    +0.000 C 
ATOM     20  C   UNL     1       0.731   9.562  22.948  0.00  0.00    +0.000 C 
BRANCH  18  21
ATOM     21  S   UNL     1      -1.829  12.391  22.552  0.00  0.00    +0.000 S 
ATOM     22  O   UNL     1      -0.885  13.054  23.415  0.00  0.00    +0.000 OA
ATOM     23  O   UNL     1      -2.467  13.030  21.429  0.00  0.00    +0.000 OA
BRANCH  21  24
ATOM     24  N   UNL     1      -3.023  11.801  23.540  0.00  0.00    +0.000 NA
ATOM     25  H   UNL     1      -3.479  12.535  24.074  0.00  0.00    +0.000 HD
ATOM     26  H   UNL     1      -2.773  10.950  24.026  0.00  0.00    +0.000 HD
ENDBRANCH  21  24
ENDBRANCH  18  21
ENDBRANCH  14  15
ENDBRANCH  10  14
TORSDOF 5
ENDMDL
MODEL 6
REMARK VINA RESULT:      -6.6      4.623      8.908
REMARK  Name = 
REMARK  6 active torsions:
REMARK  status: ('A' for Active; 'I' for Inactive)
REMARK    1  A    between atoms: C_1  and  O_2
REMARK    2  A    between atoms: O_2  and  C_3
REMARK    3  A    between atoms: C_12  and  C_13
REMARK    4  A    between atoms: C_13  and  N_14
REMARK    5  A    between atoms: N_17  and  S_18
REMARK    6  A    between atoms: S_18  and  N_19
REMARK                            x       y       z     vdW  Elec       q    Type
REMARK                         _______ _______ _______ _____ _____    ______ ____
ROOT
ATOM      1  C   UNL     1       0.425  10.847  21.541  0.00  0.00    +0.000 A 
ATOM      2  C   UNL     1       0.487  12.179  21.140  0.00  0.00    +0.000 A 
ATOM      3  C   UNL     1       1.028  12.506  19.895  0.00  0.00    +0.000 A 
ATOM      4  C   UNL     1       1.499  11.502  19.041  0.00  0.00    +0.000 A 
ATOM      5 CL   UNL     1       2.175  12.028  17.533  0.00  0.00    +0.000 Cl
ATOM      6  C   UNL     1       1.436  10.147  19.416  0.00  0.00    +0.000 A 
ATOM      7  C   UNL     1       0.921   9.827  20.691  0.00  0.00    +0.000 A 
ATOM      8  C   UNL     1       0.810   8.377  21.108  0.00  0.00    +0.000 C 
ATOM      9  C   UNL     1       1.778   7.422  20.391  0.00  0.00    +0.000 C 
ATOM     10  C   UNL     1       2.078   7.786  18.958  0.00  0.00    +0.000 C 
ATOM     11  C   UNL     1       1.899   9.052  18.529  0.00  0.00    +0.000 C 
ENDROOT
BRANCH   1  13
ATOM     12  C   UNL     1      -1.325  10.973  23.166  0.00  0.00    +0.000 C 
ATOM     13  O   UNL     1      -0.074  10.436  22.750  0.00  0.00    +0.000 OA
ENDBRANCH   1  13
BRANCH  10  14
ATOM     14  C   UNL     1       2.771   6.745  18.089  0.00  0.00    +0.000 C 
BRANCH  14  15
ATOM     15  N   UNL     1       4.044   6.201  18.589  0.00  0.00    +0.000 NA
ATOM     16  C   UNL     1       4.244   4.769  18.303  0.00  0.00    +0.000 C 
ATOM     17  C   UNL     1       4.418   4.400  16.818  0.00  0.00    +0.000 C 
ATOM     18  N   UNL     1       5.369   5.270  16.082  0.00  0.00    +0.000 NA
ATOM     19  C   UNL     1       5.438   6.696  16.493  0.00  0.00    +0.000 C 
ATOM     20  C   UNL     1       5.201   6.917  18.001  0.00  0.00    +0.000 C 
BRANCH  18  21
ATOM     21  S   UNL     1       6.695   4.595  15.338  0.00  0.00    +0.000 S 
ATOM     22  O   UNL     1       6.331   3.330  14.752  0.00  0.00    +0.000 OA
ATOM     23  O   UNL     1       7.404   5.627  14.625  0.00  0.00    +0.000 OA
BRANCH  21  24
ATOM     24  N   UNL     1       7.564   4.239  16.704  0.00  0.00    +0.000 NA
ATOM     25  H   UNL     1       7.252   3.377  17.145  0.00  0.00    +0.000 HD
ATOM     26  H   UNL     1       7.739   5.037  17.301  0.00  0.00    +0.000 HD
ENDBRANCH  21  24
ENDBRANCH  18  21
ENDBRANCH  14  15
ENDBRANCH  10  14
TORSDOF 5
ENDMDL
MODEL 7
REMARK VINA RESULT:      -6.6      4.054      8.817
REMARK  Name = 
REMARK  6 active torsions:
REMARK  status: ('A' for Active; 'I' for Inactive)
REMARK    1  A    between atoms: C_1  and  O_2
REMARK    2  A    between atoms: O_2  and  C_3
REMARK    3  A    between atoms: C_12  and  C_13
REMARK    4  A    between atoms: C_13  and  N_14
REMARK    5  A    between atoms: N_17  and  S_18
REMARK    6  A    between atoms: S_18  and  N_19
REMARK                            x       y       z     vdW  Elec       q    Type
REMARK                         _______ _______ _______ _____ _____    ______ ____
ROOT
ATOM      1  C   UNL     1      -1.362  12.027  21.780  0.00  0.00    +0.000 A 
ATOM      2  C   UNL     1      -1.957  12.617  20.669  0.00  0.00    +0.000 A 
ATOM      3  C   UNL     1      -1.845  12.012  19.416  0.00  0.00    +0.000 A 
ATOM      4  C   UNL     1      -1.146  10.808  19.271  0.00  0.00    +0.000 A 
ATOM      5 CL   UNL     1      -1.048  10.162  17.663  0.00  0.00    +0.000 Cl
ATOM      6  C   UNL     1      -0.546  10.183  20.379  0.00  0.00    +0.000 A 
ATOM      7  C   UNL     1      -0.634  10.819  21.636  0.00  0.00    +0.000 A 
ATOM      8  C   UNL     1      -0.027  10.155  22.853  0.00  0.00    +0.000 C 
ATOM      9  C   UNL     1       1.113   9.169  22.551  0.00  0.00    +0.000 C 
ATOM     10  C   UNL     1       0.964   8.408  21.257  0.00  0.00    +0.000 C 
ATOM     11  C   UNL     1       0.179   8.894  20.272  0.00  0.00    +0.000 C 
ENDROOT
BRANCH   1  13
ATOM     12  C   UNL     1      -2.638  13.129  23.477  0.00  0.00    +0.000 C 
ATOM     13  O   UNL     1      -1.407  12.558  23.044  0.00  0.00    +0.000 OA
ENDBRANCH   1  13
BRANCH  10  14
ATOM     14  C   UNL     1       1.872   7.207  21.028  0.00  0.00    +0.000 C 
BRANCH  14  15
ATOM     15  N   UNL     1       1.554   6.342  19.881  0.00  0.00    +0.000 NA
ATOM     16  C   UNL     1       2.631   6.246  18.879  0.00  0.00    +0.000 C 
ATOM     17  C   UNL     1       3.915   5.533  19.341  0.00  0.00    +0.000 C 
ATOM     18  N   UNL     1       3.678   4.252  20.051  0.00  0.00    +0.000 NA
ATOM     19  C   UNL     1       2.451   4.157  20.882  0.00  0.00    +0.000 C 
ATOM     20  C   UNL     1       1.258   4.957  20.319  0.00  0.00    +0.000 C 
BRANCH  18  21
ATOM     21  S   UNL     1       4.345   2.848  19.459  0.00  0.00    +0.000 S 
ATOM     22  O   UNL     1       4.858   2.056  20.548  0.00  0.00    +0.000 OA
ATOM     23  O   UNL     1       3.483   2.322  18.430  0.00  0.00    +0.000 OA
BRANCH  21  24
ATOM     24  N   UNL     1       5.665   3.521  18.714  0.00  0.00    +0.000 NA
ATOM     25  H   UNL     1       6.467   3.581  19.335  0.00  0.00    +0.000 HD
ATOM     26  H   UNL     1       5.448   4.328  18.143  0.00  0.00    +0.000 HD
ENDBRANCH  21  24
ENDBRANCH  18  21
ENDBRANCH  14  15
ENDBRANCH  10  14
TORSDOF 5
ENDMDL
MODEL 8
REMARK VINA RESULT:      -6.6      3.952      8.468
REMARK  Name = 
REMARK  6 active torsions:
REMARK  status: ('A' for Active; 'I' for Inactive)
REMARK    1  A    between atoms: C_1  and  O_2
REMARK    2  A    between atoms: O_2  and  C_3
REMARK    3  A    between atoms: C_12  and  C_13
REMARK    4  A    between atoms: C_13  and  N_14
REMARK    5  A    between atoms: N_17  and  S_18
REMARK    6  A    between atoms: S_18  and  N_19
REMARK                            x       y       z     vdW  Elec       q    Type
REMARK                         _______ _______ _______ _____ _____    ______ ____
ROOT
ATOM      1  C   UNL     1      -0.020  12.411  19.777  0.00  0.00    +0.000 A 
ATOM      2  C   UNL     1      -0.805  12.549  20.919  0.00  0.00    +0.000 A 
ATOM      3  C   UNL     1      -0.930  11.482  21.810  0.00  0.00    +0.000 A 
ATOM      4  C   UNL     1      -0.262  10.276  21.570  0.00  0.00    +0.000 A 
ATOM      5 CL   UNL     1      -0.512   9.011  22.730  0.00  0.00    +0.000 Cl
ATOM      6  C   UNL     1       0.549  10.114  20.431  0.00  0.00    +0.000 A 
ATOM      7  C   UNL     1       0.641  11.185  19.516  0.00  0.00    +0.000 A 
ATOM      8  C   UNL     1       1.531  11.052  18.300  0.00  0.00    +0.000 C 
ATOM      9  C   UNL     1       1.794   9.608  17.845  0.00  0.00    +0.000 C 
ATOM     10  C   UNL     1       1.869   8.598  18.963  0.00  0.00    +0.000 C 
ATOM     11  C   UNL     1       1.295   8.863  20.155  0.00  0.00    +0.000 C 
ENDROOT
BRANCH   1  13
ATOM     12  C   UNL     1       0.388  14.720  19.310  0.00  0.00    +0.000 C 
ATOM     13  O   UNL     1       0.145  13.398  18.840  0.00  0.00    +0.000 OA
ENDBRANCH   1  13
BRANCH  10  14
ATOM     14  C   UNL     1       2.423   7.217  18.639  0.00  0.00    +0.000 C 
BRANCH  14  15
ATOM     15  N   UNL     1       2.849   6.386  19.777  0.00  0.00    +0.000 NA
ATOM     16  C   UNL     1       1.895   5.324  20.141  0.00  0.00    +0.000 C 
ATOM     17  C   UNL     1       1.717   4.199  19.105  0.00  0.00    +0.000 C 
ATOM     18  N   UNL     1       2.991   3.664  18.563  0.00  0.00    +0.000 NA
ATOM     19  C   UNL     1       4.118   4.620  18.416  0.00  0.00    +0.000 C 
ATOM     20  C   UNL     1       4.143   5.718  19.500  0.00  0.00    +0.000 C 
BRANCH  18  21
ATOM     21  S   UNL     1       3.341   2.046  18.731  0.00  0.00    +0.000 S 
ATOM     22  O   UNL     1       3.714   1.495  17.454  0.00  0.00    +0.000 OA
ATOM     23  O   UNL     1       4.113   1.860  19.934  0.00  0.00    +0.000 OA
BRANCH  21  24
ATOM     24  N   UNL     1       1.801   1.512  19.034  0.00  0.00    +0.000 NA
ATOM     25  H   UNL     1       1.424   1.895  19.897  0.00  0.00    +0.000 HD
ATOM     26  H   UNL     1       1.665   0.525  18.856  0.00  0.00    +0.000 HD
ENDBRANCH  21  24
ENDBRANCH  18  21
ENDBRANCH  14  15
ENDBRANCH  10  14
TORSDOF 5
ENDMDL
MODEL 9
REMARK VINA RESULT:      -6.6      1.554      1.768
REMARK  Name = 
REMARK  6 active torsions:
REMARK  status: ('A' for Active; 'I' for Inactive)
REMARK    1  A    between atoms: C_1  and  O_2
REMARK    2  A    between atoms: O_2  and  C_3
REMARK    3  A    between atoms: C_12  and  C_13
REMARK    4  A    between atoms: C_13  and  N_14
REMARK    5  A    between atoms: N_17  and  S_18
REMARK    6  A    between atoms: S_18  and  N_19
REMARK                            x       y       z     vdW  Elec       q    Type
REMARK                         _______ _______ _______ _____ _____    ______ ____
ROOT
ATOM      1  C   UNL     1       3.839   4.145  17.635  0.00  0.00    +0.000 A 
ATOM      2  C   UNL     1       3.895   2.914  18.283  0.00  0.00    +0.000 A 
ATOM      3  C   UNL     1       3.340   2.772  19.556  0.00  0.00    +0.000 A 
ATOM      4  C   UNL     1       2.716   3.856  20.182  0.00  0.00    +0.000 A 
ATOM      5 CL   UNL     1       2.086   3.570  21.773  0.00  0.00    +0.000 Cl
ATOM      6  C   UNL     1       2.633   5.108  19.545  0.00  0.00    +0.000 A 
ATOM      7  C   UNL     1       3.229   5.254  18.273  0.00  0.00    +0.000 A 
ATOM      8  C   UNL     1       3.127   6.579  17.550  0.00  0.00    +0.000 C 
ATOM      9  C   UNL     1       2.914   7.799  18.460  0.00  0.00    +0.000 C 
ATOM     10  C   UNL     1       2.081   7.531  19.688  0.00  0.00    +0.000 C 
ATOM     11  C   UNL     1       1.957   6.274  20.162  0.00  0.00    +0.000 C 
ENDROOT
BRANCH   1  13
ATOM     12  C   UNL     1       5.730   4.009  16.177  0.00  0.00    +0.000 C 
ATOM     13  O   UNL     1       4.372   4.380  16.394  0.00  0.00    +0.000 OA
ENDBRANCH   1  13
BRANCH  10  14
ATOM     14  C   UNL     1       1.567   8.730  20.475  0.00  0.00    +0.000 C 
BRANCH  14  15
ATOM     15  N   UNL     1       0.188   9.164  20.201  0.00  0.00    +0.000 NA
ATOM     16  C   UNL     1      -0.321  10.186  21.135  0.00  0.00    +0.000 C 
ATOM     17  C   UNL     1       0.361  11.564  21.057  0.00  0.00    +0.000 C 
ATOM     18  N   UNL     1       0.530  12.082  19.676  0.00  0.00    +0.000 NA
ATOM     19  C   UNL     1       0.777  11.084  18.605  0.00  0.00    +0.000 C 
ATOM     20  C   UNL     1       0.065   9.736  18.839  0.00  0.00    +0.000 C 
BRANCH  18  21
ATOM     21  S   UNL     1      -0.148  13.543  19.258  0.00  0.00    +0.000 S 
ATOM     22  O   UNL     1      -1.243  13.842  20.145  0.00  0.00    +0.000 OA
ATOM     23  O   UNL     1       0.908  14.475  18.955  0.00  0.00    +0.000 OA
BRANCH  21  24
ATOM     24  N   UNL     1      -0.831  13.072  17.822  0.00  0.00    +0.000 NA
ATOM     25  H   UNL     1      -0.158  12.625  17.205  0.00  0.00    +0.000 HD
ATOM     26  H   UNL     1      -1.458  13.757  17.420  0.00  0.00    +0.000 HD
ENDBRANCH  21  24
ENDBRANCH  18  21
ENDBRANCH  14  15
ENDBRANCH  10  14
TORSDOF 5
ENDMDL
