MODEL 1
REMARK VINA RESULT:      -8.7      0.000      0.000
REMARK  Name = 
REMARK  8 active torsions:
REMARK  status: ('A' for Active; 'I' for Inactive)
REMARK    1  A    between atoms: C_1  and  C_2
REMARK    2  A    between atoms: C_4  and  C_5
REMARK    3  A    between atoms: N_7  and  N_8
REMARK    4  A    between atoms: C_9  and  C_10
REMARK    5  A    between atoms: C_9  and  C_17
REMARK    6  A    between atoms: C_10  and  C_11
REMARK    7  A    between atoms: C_17  and  C_18
REMARK    8  A    between atoms: C_24  and  C_25
REMARK                            x       y       z     vdW  Elec       q    Type
REMARK                         _______ _______ _______ _____ _____    ______ ____
ROOT
ATOM      1  N   UNL     1       5.453   6.191  17.930  0.00  0.00    +0.000 NA
ATOM      2  C   UNL     1       4.364   5.872  18.576  0.00  0.00    +0.000 C 
ENDROOT
BRANCH   1   5
ATOM      3  C   UNL     1       7.319   4.717  17.351  0.00  0.00    +0.000 C 
ATOM      4  O   UNL     1       8.341   4.175  17.761  0.00  0.00    +0.000 OA
ATOM      5  N   UNL     1       6.652   5.612  18.203  0.00  0.00    +0.000 N 
ATOM      6  H   UNL     1       7.122   5.792  19.082  0.00  0.00    +0.000 HD
BRANCH   3  10
ATOM      7  C   UNL     1       7.026   4.279  12.278  0.00  0.00    +0.000 C 
ATOM      8  C   UNL     1       6.765   4.375  13.724  0.00  0.00    +0.000 A 
ATOM      9  C   UNL     1       7.416   5.007  14.750  0.00  0.00    +0.000 A 
ATOM     10  C   UNL     1       6.838   4.544  15.975  0.00  0.00    +0.000 A 
ATOM     11  C   UNL     1       5.696   3.855  15.574  0.00  0.00    +0.000 A 
ATOM     12  C   UNL     1       4.539   3.231  16.254  0.00  0.00    +0.000 C 
ATOM     13  O   UNL     1       5.687   3.718  14.211  0.00  0.00    +0.000 OA
ENDBRANCH   3  10
ENDBRANCH   1   5
BRANCH   2  14
ATOM     14  C   UNL     1       4.233   4.928  19.757  0.00  0.00    +0.000 C 
BRANCH  14  15
ATOM     15  C   UNL     1       3.095   3.931  19.780  0.00  0.00    +0.000 A 
ATOM     16  C   UNL     1       2.982   2.865  18.884  0.00  0.00    +0.000 A 
ATOM     17  C   UNL     1       1.752   2.236  18.689  0.00  0.00    +0.000 A 
ATOM     18  C   UNL     1       0.653   2.592  19.463  0.00  0.00    +0.000 A 
ATOM     19  C   UNL     1       0.800   3.527  20.483  0.00  0.00    +0.000 A 
ATOM     20  C   UNL     1       2.015   4.194  20.641  0.00  0.00    +0.000 A 
ENDBRANCH  14  15
ENDBRANCH   2  14
BRANCH   2  21
ATOM     21  C   UNL     1       3.068   6.380  17.956  0.00  0.00    +0.000 C 
BRANCH  21  22
ATOM     22  C   UNL     1       2.432   7.616  18.545  0.00  0.00    +0.000 A 
ATOM     23  C   UNL     1       2.121   8.744  17.780  0.00  0.00    +0.000 A 
ATOM     24  C   UNL     1       1.418   9.812  18.354  0.00  0.00    +0.000 A 
ATOM     25  C   UNL     1       1.011   9.758  19.686  0.00  0.00    +0.000 A 
ATOM     26  C   UNL     1       1.303   8.635  20.452  0.00  0.00    +0.000 A 
ATOM     27  C   UNL     1       2.006   7.570  19.883  0.00  0.00    +0.000 A 
ENDBRANCH  21  22
ENDBRANCH   2  21
TORSDOF 6
ENDMDL
MODEL 2
REMARK VINA RESULT:      -8.6      3.356      7.340
REMARK  Name = 
REMARK  8 active torsions:
REMARK  status: ('A' for Active; 'I' for Inactive)
REMARK    1  A    between atoms: C_1  and  C_2
REMARK    2  A    between atoms: C_4  and  C_5
REMARK    3  A    between atoms: N_7  and  N_8
REMARK    4  A    between atoms: C_9  and  C_10
REMARK    5  A    between atoms: C_9  and  C_17
REMARK    6  A    between atoms: C_10  and  C_11
REMARK    7  A    between atoms: C_17  and  C_18
REMARK    8  A    between atoms: C_24  and  C_25
REMARK                            x       y       z     vdW  Elec       q    Type
REMARK                         _______ _______ _______ _____ _____    ______ ____
ROOT
ATOM      1  N   UNL     1       2.174   7.019  18.087  0.00  0.00    +0.000 NA
ATOM      2  C   UNL     1       2.806   5.925  17.757  0.00  0.00    +0.000 C 
ENDROOT
BRANCH   1   5
ATOM      3  C   UNL     1       2.049   9.462  18.142  0.00  0.00    +0.000 C 
ATOM      4  O   UNL     1       2.467  10.505  17.647  0.00  0.00    +0.000 OA
ATOM      5  N   UNL     1       2.615   8.250  17.716  0.00  0.00    +0.000 N 
ATOM      6  H   UNL     1       3.390   8.345  17.071  0.00  0.00    +0.000 HD
BRANCH   3  10
ATOM      7  C   UNL     1      -0.200   9.391  22.719  0.00  0.00    +0.000 C 
ATOM      8  C   UNL     1       0.122   9.400  21.282  0.00  0.00    +0.000 A 
ATOM      9  C   UNL     1       1.195   8.944  20.563  0.00  0.00    +0.000 A 
ATOM     10  C   UNL     1       1.064   9.450  19.230  0.00  0.00    +0.000 A 
ATOM     11  C   UNL     1      -0.230   9.964  19.186  0.00  0.00    +0.000 A 
ATOM     12  C   UNL     1      -1.120  10.512  18.138  0.00  0.00    +0.000 C 
ATOM     13  O   UNL     1      -0.773   9.972  20.444  0.00  0.00    +0.000 OA
ENDBRANCH   3  10
ENDBRANCH   1   5
BRANCH   2  14
ATOM     14  C   UNL     1       4.132   5.808  17.028  0.00  0.00    +0.000 C 
BRANCH  14  15
ATOM     15  C   UNL     1       5.403   6.210  17.743  0.00  0.00    +0.000 A 
ATOM     16  C   UNL     1       6.305   7.154  17.245  0.00  0.00    +0.000 A 
ATOM     17  C   UNL     1       7.617   7.194  17.719  0.00  0.00    +0.000 A 
ATOM     18  C   UNL     1       8.007   6.368  18.768  0.00  0.00    +0.000 A 
ATOM     19  C   UNL     1       7.068   5.552  19.391  0.00  0.00    +0.000 A 
ATOM     20  C   UNL     1       5.772   5.473  18.881  0.00  0.00    +0.000 A 
ENDBRANCH  14  15
ENDBRANCH   2  14
BRANCH   2  21
ATOM     21  C   UNL     1       2.031   4.633  17.984  0.00  0.00    +0.000 C 
BRANCH  21  22
ATOM     22  C   UNL     1       2.165   3.948  19.323  0.00  0.00    +0.000 A 
ATOM     23  C   UNL     1       1.120   3.889  20.250  0.00  0.00    +0.000 A 
ATOM     24  C   UNL     1       1.260   3.134  21.422  0.00  0.00    +0.000 A 
ATOM     25  C   UNL     1       2.433   2.423  21.671  0.00  0.00    +0.000 A 
ATOM     26  C   UNL     1       3.473   2.463  20.750  0.00  0.00    +0.000 A 
ATOM     27  C   UNL     1       3.337   3.219  19.582  0.00  0.00    +0.000 A 
ENDBRANCH  21  22
ENDBRANCH   2  21
TORSDOF 6
ENDMDL
MODEL 3
REMARK VINA RESULT:      -8.6      3.287      7.344
REMARK  Name = 
REMARK  8 active torsions:
REMARK  status: ('A' for Active; 'I' for Inactive)
REMARK    1  A    between atoms: C_1  and  C_2
REMARK    2  A    between atoms: C_4  and  C_5
REMARK    3  A    between atoms: N_7  and  N_8
REMARK    4  A    between atoms: C_9  and  C_10
REMARK    5  A    between atoms: C_9  and  C_17
REMARK    6  A    between atoms: C_10  and  C_11
REMARK    7  A    between atoms: C_17  and  C_18
REMARK    8  A    between atoms: C_24  and  C_25
REMARK                            x       y       z     vdW  Elec       q    Type
REMARK                         _______ _______ _______ _____ _____    ______ ____
ROOT
ATOM      1  N   UNL     1       1.980   7.548  17.775  0.00  0.00    +0.000 NA
ATOM      2  C   UNL     1       2.764   6.555  18.095  0.00  0.00    +0.000 C 
ENDROOT
BRANCH   1   5
ATOM      3  C   UNL     1       1.910   9.948  18.247  0.00  0.00    +0.000 C 
ATOM      4  O   UNL     1       2.346  11.052  17.932  0.00  0.00    +0.000 OA
ATOM      5  N   UNL     1       2.445   8.815  17.615  0.00  0.00    +0.000 N 
ATOM      6  H   UNL     1       3.216   9.004  16.985  0.00  0.00    +0.000 HD
BRANCH   3  10
ATOM      7  C   UNL     1      -0.307   9.405  22.809  0.00  0.00    +0.000 C 
ATOM      8  C   UNL     1       0.010   9.517  21.375  0.00  0.00    +0.000 A 
ATOM      9  C   UNL     1       1.127   9.225  20.640  0.00  0.00    +0.000 A 
ATOM     10  C   UNL     1       0.935   9.771  19.330  0.00  0.00    +0.000 A 
ATOM     11  C   UNL     1      -0.410  10.130  19.305  0.00  0.00    +0.000 A 
ATOM     12  C   UNL     1      -1.360  10.616  18.279  0.00  0.00    +0.000 C 
ATOM     13  O   UNL     1      -0.948  10.017  20.560  0.00  0.00    +0.000 OA
ENDBRANCH   3  10
ENDBRANCH   1   5
BRANCH   2  14
ATOM     14  C   UNL     1       4.242   6.616  18.433  0.00  0.00    +0.000 C 
BRANCH  14  15
ATOM     15  C   UNL     1       5.250   6.102  17.427  0.00  0.00    +0.000 A 
ATOM     16  C   UNL     1       5.075   6.191  16.043  0.00  0.00    +0.000 A 
ATOM     17  C   UNL     1       5.809   5.370  15.186  0.00  0.00    +0.000 A 
ATOM     18  C   UNL     1       6.797   4.533  15.694  0.00  0.00    +0.000 A 
ATOM     19  C   UNL     1       7.102   4.569  17.051  0.00  0.00    +0.000 A 
ATOM     20  C   UNL     1       6.332   5.349  17.914  0.00  0.00    +0.000 A 
ENDBRANCH  14  15
ENDBRANCH   2  14
BRANCH   2  21
ATOM     21  C   UNL     1       2.152   5.168  17.941  0.00  0.00    +0.000 C 
BRANCH  21  22
ATOM     22  C   UNL     1       2.295   4.195  19.086  0.00  0.00    +0.000 A 
ATOM     23  C   UNL     1       3.369   3.306  19.194  0.00  0.00    +0.000 A 
ATOM     24  C   UNL     1       3.515   2.514  20.340  0.00  0.00    +0.000 A 
ATOM     25  C   UNL     1       2.604   2.612  21.391  0.00  0.00    +0.000 A 
ATOM     26  C   UNL     1       1.540   3.503  21.300  0.00  0.00    +0.000 A 
ATOM     27  C   UNL     1       1.390   4.291  20.156  0.00  0.00    +0.000 A 
ENDBRANCH  21  22
ENDBRANCH   2  21
TORSDOF 6
ENDMDL
MODEL 4
REMARK VINA RESULT:      -8.5      2.023      3.392
REMARK  Name = 
REMARK  8 active torsions:
REMARK  status: ('A' for Active; 'I' for Inactive)
REMARK    1  A    between atoms: C_1  and  C_2
REMARK    2  A    between atoms: C_4  and  C_5
REMARK    3  A    between atoms: N_7  and  N_8
REMARK    4  A    between atoms: C_9  and  C_10
REMARK    5  A    between atoms: C_9  and  C_17
REMARK    6  A    between atoms: C_10  and  C_11
REMARK    7  A    between atoms: C_17  and  C_18
REMARK    8  A    between atoms: C_24  and  C_25
REMARK                            x       y       z     vdW  Elec       q    Type
REMARK                         _______ _______ _______ _____ _____    ______ ____
ROOT
ATOM      1  N   UNL     1       4.233   6.740  17.722  0.00  0.00    +0.000 NA
ATOM      2  C   UNL     1       2.946   6.866  17.901  0.00  0.00    +0.000 C 
ENDROOT
BRANCH   1   5
ATOM      3  C   UNL     1       6.177   5.363  17.164  0.00  0.00    +0.000 C 
ATOM      4  O   UNL     1       6.554   4.286  16.710  0.00  0.00    +0.000 OA
ATOM      5  N   UNL     1       4.800   5.564  17.344  0.00  0.00    +0.000 N 
ATOM      6  H   UNL     1       4.222   4.756  17.144  0.00  0.00    +0.000 HD
BRANCH   3  10
ATOM      7  C   UNL     1       8.563   9.788  18.023  0.00  0.00    +0.000 C 
ATOM      8  C   UNL     1       8.141   8.379  17.954  0.00  0.00    +0.000 A 
ATOM      9  C   UNL     1       7.420   7.664  17.035  0.00  0.00    +0.000 A 
ATOM     10  C   UNL     1       7.117   6.393  17.620  0.00  0.00    +0.000 A 
ATOM     11  C   UNL     1       7.912   6.347  18.763  0.00  0.00    +0.000 A 
ATOM     12  C   UNL     1       8.248   5.327  19.782  0.00  0.00    +0.000 C 
ATOM     13  O   UNL     1       8.490   7.570  18.981  0.00  0.00    +0.000 OA
ENDBRANCH   3  10
ENDBRANCH   1   5
BRANCH   2  14
ATOM     14  C   UNL     1       1.892   5.777  17.830  0.00  0.00    +0.000 C 
BRANCH  14  15
ATOM     15  C   UNL     1       1.897   4.679  18.871  0.00  0.00    +0.000 A 
ATOM     16  C   UNL     1       1.306   3.426  18.676  0.00  0.00    +0.000 A 
ATOM     17  C   UNL     1       0.990   2.620  19.769  0.00  0.00    +0.000 A 
ATOM     18  C   UNL     1       1.357   3.006  21.054  0.00  0.00    +0.000 A 
ATOM     19  C   UNL     1       2.104   4.165  21.240  0.00  0.00    +0.000 A 
ATOM     20  C   UNL     1       2.372   4.998  20.154  0.00  0.00    +0.000 A 
ENDBRANCH  14  15
ENDBRANCH   2  14
BRANCH   2  21
ATOM     21  C   UNL     1       2.445   8.300  18.025  0.00  0.00    +0.000 C 
BRANCH  21  22
ATOM     22  C   UNL     1       1.563   8.647  19.201  0.00  0.00    +0.000 A 
ATOM     23  C   UNL     1       1.742   8.089  20.471  0.00  0.00    +0.000 A 
ATOM     24  C   UNL     1       0.976   8.542  21.553  0.00  0.00    +0.000 A 
ATOM     25  C   UNL     1       0.038   9.559  21.381  0.00  0.00    +0.000 A 
ATOM     26  C   UNL     1      -0.139  10.130  20.126  0.00  0.00    +0.000 A 
ATOM     27  C   UNL     1       0.623   9.678  19.044  0.00  0.00    +0.000 A 
ENDBRANCH  21  22
ENDBRANCH   2  21
TORSDOF 6
ENDMDL
MODEL 5
REMARK VINA RESULT:      -8.4      2.972      5.043
REMARK  Name = 
REMARK  8 active torsions:
REMARK  status: ('A' for Active; 'I' for Inactive)
REMARK    1  A    between atoms: C_1  and  C_2
REMARK    2  A    between atoms: C_4  and  C_5
REMARK    3  A    between atoms: N_7  and  N_8
REMARK    4  A    between atoms: C_9  and  C_10
REMARK    5  A    between atoms: C_9  and  C_17
REMARK    6  A    between atoms: C_10  and  C_11
REMARK    7  A    between atoms: C_17  and  C_18
REMARK    8  A    between atoms: C_24  and  C_25
REMARK                            x       y       z     vdW  Elec       q    Type
REMARK                         _______ _______ _______ _____ _____    ______ ____
ROOT
ATOM      1  N   UNL     1       5.652   3.445  15.636  0.00  0.00    +0.000 NA
ATOM      2  C   UNL     1       4.789   3.814  16.543  0.00  0.00    +0.000 C 
ENDROOT
BRANCH   1   5
ATOM      3  C   UNL     1       6.826   4.406  13.716  0.00  0.00    +0.000 C 
ATOM      4  O   UNL     1       7.733   5.152  13.358  0.00  0.00    +0.000 OA
ATOM      5  N   UNL     1       6.542   4.313  15.088  0.00  0.00    +0.000 N 
ATOM      6  H   UNL     1       7.079   4.940  15.677  0.00  0.00    +0.000 HD
BRANCH   3  10
ATOM      7  C   UNL     1       3.046   3.114  10.545  0.00  0.00    +0.000 C 
ATOM      8  C   UNL     1       4.258   3.173  11.379  0.00  0.00    +0.000 A 
ATOM      9  C   UNL     1       4.556   3.818  12.549  0.00  0.00    +0.000 A 
ATOM     10  C   UNL     1       5.968   3.700  12.758  0.00  0.00    +0.000 A 
ATOM     11  C   UNL     1       6.373   2.758  11.815  0.00  0.00    +0.000 A 
ATOM     12  C   UNL     1       7.625   2.028  11.515  0.00  0.00    +0.000 C 
ATOM     13  O   UNL     1       5.342   2.482  10.957  0.00  0.00    +0.000 OA
ENDBRANCH   3  10
ENDBRANCH   1   5
BRANCH   2  14
ATOM     14  C   UNL     1       4.543   5.216  17.069  0.00  0.00    +0.000 C 
BRANCH  14  15
ATOM     15  C   UNL     1       5.677   5.960  17.740  0.00  0.00    +0.000 A 
ATOM     16  C   UNL     1       6.253   7.124  17.221  0.00  0.00    +0.000 A 
ATOM     17  C   UNL     1       7.518   7.533  17.644  0.00  0.00    +0.000 A 
ATOM     18  C   UNL     1       8.170   6.848  18.664  0.00  0.00    +0.000 A 
ATOM     19  C   UNL     1       7.528   5.798  19.312  0.00  0.00    +0.000 A 
ATOM     20  C   UNL     1       6.287   5.355  18.852  0.00  0.00    +0.000 A 
ENDBRANCH  14  15
ENDBRANCH   2  14
BRANCH   2  21
ATOM     21  C   UNL     1       4.078   2.676  17.265  0.00  0.00    +0.000 C 
BRANCH  21  22
ATOM     22  C   UNL     1       3.165   3.023  18.417  0.00  0.00    +0.000 A 
ATOM     23  C   UNL     1       1.823   3.372  18.239  0.00  0.00    +0.000 A 
ATOM     24  C   UNL     1       0.991   3.562  19.351  0.00  0.00    +0.000 A 
ATOM     25  C   UNL     1       1.485   3.391  20.643  0.00  0.00    +0.000 A 
ATOM     26  C   UNL     1       2.815   3.030  20.831  0.00  0.00    +0.000 A 
ATOM     27  C   UNL     1       3.647   2.844  19.724  0.00  0.00    +0.000 A 
ENDBRANCH  21  22
ENDBRANCH   2  21
TORSDOF 6
ENDMDL
MODEL 6
REMARK VINA RESULT:      -8.4      3.467      7.671
REMARK  Name = 
REMARK  8 active torsions:
REMARK  status: ('A' for Active; 'I' for Inactive)
REMARK    1  A    between atoms: C_1  and  C_2
REMARK    2  A    between atoms: C_4  and  C_5
REMARK    3  A    between atoms: N_7  and  N_8
REMARK    4  A    between atoms: C_9  and  C_10
REMARK    5  A    between atoms: C_9  and  C_17
REMARK    6  A    between atoms: C_10  and  C_11
REMARK    7  A    between atoms: C_17  and  C_18
REMARK    8  A    between atoms: C_24  and  C_25
REMARK                            x       y       z     vdW  Elec       q    Type
REMARK                         _______ _______ _______ _____ _____    ______ ____
ROOT
ATOM      1  N   UNL     1       2.017   8.015  18.791  0.00  0.00    +0.000 NA
ATOM      2  C   UNL     1       3.030   7.296  18.392  0.00  0.00    +0.000 C 
ENDROOT
BRANCH   1   5
ATOM      3  C   UNL     1       0.528   9.922  18.422  0.00  0.00    +0.000 C 
ATOM      4  O   UNL     1      -0.045  10.607  17.579  0.00  0.00    +0.000 OA
ATOM      5  N   UNL     1       1.408   8.921  17.981  0.00  0.00    +0.000 N 
ATOM      6  H   UNL     1       1.553   8.894  16.978  0.00  0.00    +0.000 HD
BRANCH   3  10
ATOM      7  C   UNL     1      -0.023   9.426  23.468  0.00  0.00    +0.000 C 
ATOM      8  C   UNL     1       0.141   9.908  22.087  0.00  0.00    +0.000 A 
ATOM      9  C   UNL     1      -0.244   9.408  20.871  0.00  0.00    +0.000 A 
ATOM     10  C   UNL     1       0.406  10.186  19.861  0.00  0.00    +0.000 A 
ATOM     11  C   UNL     1       0.935  11.271  20.555  0.00  0.00    +0.000 A 
ATOM     12  C   UNL     1       1.605  12.540  20.191  0.00  0.00    +0.000 C 
ATOM     13  O   UNL     1       0.811  11.069  21.904  0.00  0.00    +0.000 OA
ENDBRANCH   3  10
ENDBRANCH   1   5
BRANCH   2  14
ATOM     14  C   UNL     1       3.762   7.385  17.065  0.00  0.00    +0.000 C 
BRANCH  14  15
ATOM     15  C   UNL     1       4.978   6.516  16.835  0.00  0.00    +0.000 A 
ATOM     16  C   UNL     1       4.915   5.217  16.322  0.00  0.00    +0.000 A 
ATOM     17  C   UNL     1       5.981   4.336  16.502  0.00  0.00    +0.000 A 
ATOM     18  C   UNL     1       7.159   4.774  17.098  0.00  0.00    +0.000 A 
ATOM     19  C   UNL     1       7.298   6.113  17.450  0.00  0.00    +0.000 A 
ATOM     20  C   UNL     1       6.213   6.980  17.320  0.00  0.00    +0.000 A 
ENDBRANCH  14  15
ENDBRANCH   2  14
BRANCH   2  21
ATOM     21  C   UNL     1       3.399   6.130  19.302  0.00  0.00    +0.000 C 
BRANCH  21  22
ATOM     22  C   UNL     1       2.434   4.973  19.404  0.00  0.00    +0.000 A 
ATOM     23  C   UNL     1       2.044   4.214  18.296  0.00  0.00    +0.000 A 
ATOM     24  C   UNL     1       1.246   3.076  18.469  0.00  0.00    +0.000 A 
ATOM     25  C   UNL     1       0.843   2.679  19.743  0.00  0.00    +0.000 A 
ATOM     26  C   UNL     1       1.237   3.419  20.853  0.00  0.00    +0.000 A 
ATOM     27  C   UNL     1       2.031   4.556  20.683  0.00  0.00    +0.000 A 
ENDBRANCH  21  22
ENDBRANCH   2  21
TORSDOF 6
ENDMDL
MODEL 7
REMARK VINA RESULT:      -8.4      3.371      7.372
REMARK  Name = 
REMARK  8 active torsions:
REMARK  status: ('A' for Active; 'I' for Inactive)
REMARK    1  A    between atoms: C_1  and  C_2
REMARK    2  A    between atoms: C_4  and  C_5
REMARK    3  A    between atoms: N_7  and  N_8
REMARK    4  A    between atoms: C_9  and  C_10
REMARK    5  A    between atoms: C_9  and  C_17
REMARK    6  A    between atoms: C_10  and  C_11
REMARK    7  A    between atoms: C_17  and  C_18
REMARK    8  A    between atoms: C_24  and  C_25
REMARK                            x       y       z     vdW  Elec       q    Type
REMARK                         _______ _______ _______ _____ _____    ______ ____
ROOT
ATOM      1  N   UNL     1       1.830   7.687  17.838  0.00  0.00    +0.000 NA
ATOM      2  C   UNL     1       2.596   6.641  17.990  0.00  0.00    +0.000 C 
ENDROOT
BRANCH   1   5
ATOM      3  C   UNL     1       1.851  10.087  18.317  0.00  0.00    +0.000 C 
ATOM      4  O   UNL     1       2.320  11.175  17.997  0.00  0.00    +0.000 OA
ATOM      5  N   UNL     1       2.336   8.937  17.673  0.00  0.00    +0.000 N 
ATOM      6  H   UNL     1       3.103   9.101  17.032  0.00  0.00    +0.000 HD
BRANCH   3  10
ATOM      7  C   UNL     1      -0.317   9.647  22.913  0.00  0.00    +0.000 C 
ATOM      8  C   UNL     1      -0.017   9.733  21.474  0.00  0.00    +0.000 A 
ATOM      9  C   UNL     1       1.088   9.412  20.730  0.00  0.00    +0.000 A 
ATOM     10  C   UNL     1       0.887   9.940  19.414  0.00  0.00    +0.000 A 
ATOM     11  C   UNL     1      -0.453  10.318  19.400  0.00  0.00    +0.000 A 
ATOM     12  C   UNL     1      -1.410  10.801  18.378  0.00  0.00    +0.000 C 
ATOM     13  O   UNL     1      -0.977  10.232  20.663  0.00  0.00    +0.000 OA
ENDBRANCH   3  10
ENDBRANCH   1   5
BRANCH   2  14
ATOM     14  C   UNL     1       4.108   6.613  18.110  0.00  0.00    +0.000 C 
BRANCH  14  15
ATOM     15  C   UNL     1       4.914   5.843  17.087  0.00  0.00    +0.000 A 
ATOM     16  C   UNL     1       5.209   6.329  15.810  0.00  0.00    +0.000 A 
ATOM     17  C   UNL     1       5.591   5.453  14.794  0.00  0.00    +0.000 A 
ATOM     18  C   UNL     1       5.787   4.104  15.069  0.00  0.00    +0.000 A 
ATOM     19  C   UNL     1       5.671   3.642  16.376  0.00  0.00    +0.000 A 
ATOM     20  C   UNL     1       5.236   4.507  17.381  0.00  0.00    +0.000 A 
ENDBRANCH  14  15
ENDBRANCH   2  14
BRANCH   2  21
ATOM     21  C   UNL     1       1.892   5.295  17.860  0.00  0.00    +0.000 C 
BRANCH  21  22
ATOM     22  C   UNL     1       1.923   4.358  19.044  0.00  0.00    +0.000 A 
ATOM     23  C   UNL     1       2.059   4.807  20.361  0.00  0.00    +0.000 A 
ATOM     24  C   UNL     1       1.955   3.904  21.427  0.00  0.00    +0.000 A 
ATOM     25  C   UNL     1       1.702   2.554  21.190  0.00  0.00    +0.000 A 
ATOM     26  C   UNL     1       1.550   2.099  19.885  0.00  0.00    +0.000 A 
ATOM     27  C   UNL     1       1.657   2.997  18.820  0.00  0.00    +0.000 A 
ENDBRANCH  21  22
ENDBRANCH   2  21
TORSDOF 6
ENDMDL
MODEL 8
REMARK VINA RESULT:      -8.3      1.547      4.681
REMARK  Name = 
REMARK  8 active torsions:
REMARK  status: ('A' for Active; 'I' for Inactive)
REMARK    1  A    between atoms: C_1  and  C_2
REMARK    2  A    between atoms: C_4  and  C_5
REMARK    3  A    between atoms: N_7  and  N_8
REMARK    4  A    between atoms: C_9  and  C_10
REMARK    5  A    between atoms: C_9  and  C_17
REMARK    6  A    between atoms: C_10  and  C_11
REMARK    7  A    between atoms: C_17  and  C_18
REMARK    8  A    between atoms: C_24  and  C_25
REMARK                            x       y       z     vdW  Elec       q    Type
REMARK                         _______ _______ _______ _____ _____    ______ ____
ROOT
ATOM      1  N   UNL     1       3.522   6.392  17.429  0.00  0.00    +0.000 NA
ATOM      2  C   UNL     1       2.663   6.320  18.409  0.00  0.00    +0.000 C 
ENDROOT
BRANCH   1   5
ATOM      3  C   UNL     1       5.833   7.026  16.931  0.00  0.00    +0.000 C 
ATOM      4  O   UNL     1       6.703   7.877  17.091  0.00  0.00    +0.000 OA
ATOM      5  N   UNL     1       4.546   7.286  17.429  0.00  0.00    +0.000 N 
ATOM      6  H   UNL     1       4.424   8.209  17.828  0.00  0.00    +0.000 HD
BRANCH   3  10
ATOM      7  C   UNL     1       6.229   3.627  13.148  0.00  0.00    +0.000 C 
ATOM      8  C   UNL     1       6.206   4.338  14.438  0.00  0.00    +0.000 A 
ATOM      9  C   UNL     1       5.486   5.406  14.902  0.00  0.00    +0.000 A 
ATOM     10  C   UNL     1       6.065   5.805  16.149  0.00  0.00    +0.000 A 
ATOM     11  C   UNL     1       6.940   4.769  16.465  0.00  0.00    +0.000 A 
ATOM     12  C   UNL     1       7.772   4.401  17.633  0.00  0.00    +0.000 C 
ATOM     13  O   UNL     1       7.053   3.911  15.403  0.00  0.00    +0.000 OA
ENDBRANCH   3  10
ENDBRANCH   1   5
BRANCH   2  14
ATOM     14  C   UNL     1       2.569   7.225  19.624  0.00  0.00    +0.000 C 
BRANCH  14  15
ATOM     15  C   UNL     1       1.610   8.395  19.598  0.00  0.00    +0.000 A 
ATOM     16  C   UNL     1       1.484   9.267  18.513  0.00  0.00    +0.000 A 
ATOM     17  C   UNL     1       0.905  10.525  18.684  0.00  0.00    +0.000 A 
ATOM     18  C   UNL     1       0.351  10.880  19.909  0.00  0.00    +0.000 A 
ATOM     19  C   UNL     1       0.310   9.951  20.944  0.00  0.00    +0.000 A 
ATOM     20  C   UNL     1       0.937   8.715  20.790  0.00  0.00    +0.000 A 
ENDBRANCH  14  15
ENDBRANCH   2  14
BRANCH   2  21
ATOM     21  C   UNL     1       1.772   5.084  18.403  0.00  0.00    +0.000 C 
BRANCH  21  22
ATOM     22  C   UNL     1       2.023   4.019  19.444  0.00  0.00    +0.000 A 
ATOM     23  C   UNL     1       3.256   3.375  19.585  0.00  0.00    +0.000 A 
ATOM     24  C   UNL     1       3.469   2.487  20.647  0.00  0.00    +0.000 A 
ATOM     25  C   UNL     1       2.463   2.244  21.581  0.00  0.00    +0.000 A 
ATOM     26  C   UNL     1       1.238   2.890  21.458  0.00  0.00    +0.000 A 
ATOM     27  C   UNL     1       1.022   3.774  20.398  0.00  0.00    +0.000 A 
ENDBRANCH  21  22
ENDBRANCH   2  21
TORSDOF 6
ENDMDL
MODEL 9
REMARK VINA RESULT:      -8.2      3.636      7.124
REMARK  Name = 
REMARK  8 active torsions:
REMARK  status: ('A' for Active; 'I' for Inactive)
REMARK    1  A    between atoms: C_1  and  C_2
REMARK    2  A    between atoms: C_4  and  C_5
REMARK    3  A    between atoms: N_7  and  N_8
REMARK    4  A    between atoms: C_9  and  C_10
REMARK    5  A    between atoms: C_9  and  C_17
REMARK    6  A    between atoms: C_10  and  C_11
REMARK    7  A    between atoms: C_17  and  C_18
REMARK    8  A    between atoms: C_24  and  C_25
REMARK                            x       y       z     vdW  Elec       q    Type
REMARK                         _______ _______ _______ _____ _____    ______ ____
ROOT
ATOM      1  N   UNL     1       2.127   8.168  18.976  0.00  0.00    +0.000 NA
ATOM      2  C   UNL     1       2.873   7.154  18.632  0.00  0.00    +0.000 C 
ENDROOT
BRANCH   1   5
ATOM      3  C   UNL     1       0.786   9.349  20.648  0.00  0.00    +0.000 C 
ATOM      4  O   UNL     1       0.506   9.434  21.841  0.00  0.00    +0.000 OA
ATOM      5  N   UNL     1       1.640   8.313  20.237  0.00  0.00    +0.000 N 
ATOM      6  H   UNL     1       1.905   7.664  20.969  0.00  0.00    +0.000 HD
BRANCH   3  10
ATOM      7  C   UNL     1      -2.451  11.534  17.368  0.00  0.00    +0.000 C 
ATOM      8  C   UNL     1      -1.294  11.137  18.187  0.00  0.00    +0.000 A 
ATOM      9  C   UNL     1      -0.907   9.945  18.741  0.00  0.00    +0.000 A 
ATOM     10  C   UNL     1       0.177  10.219  19.636  0.00  0.00    +0.000 A 
ATOM     11  C   UNL     1       0.529  11.536  19.349  0.00  0.00    +0.000 A 
ATOM     12  C   UNL     1       1.620  12.453  19.750  0.00  0.00    +0.000 C 
ATOM     13  O   UNL     1      -0.395  12.096  18.507  0.00  0.00    +0.000 OA
ENDBRANCH   3  10
ENDBRANCH   1   5
BRANCH   2  14
ATOM     14  C   UNL     1       3.245   5.950  19.478  0.00  0.00    +0.000 C 
BRANCH  14  15
ATOM     15  C   UNL     1       2.240   4.831  19.648  0.00  0.00    +0.000 A 
ATOM     16  C   UNL     1       1.900   4.278  20.886  0.00  0.00    +0.000 A 
ATOM     17  C   UNL     1       1.298   3.022  20.955  0.00  0.00    +0.000 A 
ATOM     18  C   UNL     1       0.932   2.356  19.789  0.00  0.00    +0.000 A 
ATOM     19  C   UNL     1       1.102   2.978  18.557  0.00  0.00    +0.000 A 
ATOM     20  C   UNL     1       1.754   4.209  18.486  0.00  0.00    +0.000 A 
ENDBRANCH  14  15
ENDBRANCH   2  14
BRANCH   2  21
ATOM     21  C   UNL     1       3.579   7.292  17.289  0.00  0.00    +0.000 C 
BRANCH  21  22
ATOM     22  C   UNL     1       4.838   6.491  17.059  0.00  0.00    +0.000 A 
ATOM     23  C   UNL     1       6.104   6.946  17.440  0.00  0.00    +0.000 A 
ATOM     24  C   UNL     1       7.220   6.108  17.317  0.00  0.00    +0.000 A 
ATOM     25  C   UNL     1       7.081   4.810  16.826  0.00  0.00    +0.000 A 
ATOM     26  C   UNL     1       5.825   4.342  16.457  0.00  0.00    +0.000 A 
ATOM     27  C   UNL     1       4.711   5.178  16.577  0.00  0.00    +0.000 A 
ENDBRANCH  21  22
ENDBRANCH   2  21
TORSDOF 6
ENDMDL
