MODEL 1
REMARK VINA RESULT:      -7.9      0.000      0.000
REMARK  Name = 
REMARK  9 active torsions:
REMARK  status: ('A' for Active; 'I' for Inactive)
REMARK    1  A    between atoms: C_1  and  C_2
REMARK    2  A    between atoms: C_2  and  C_3
REMARK    3  A    between atoms: C_2  and  C_4
REMARK    4  A    between atoms: C_2  and  C_7
REMARK    5  A    between atoms: C_4  and  O_6
REMARK    6  A    between atoms: C_7  and  O_9
REMARK    7  A    between atoms: O_9  and  C_10
REMARK    8  A    between atoms: C_13  and  C_14
REMARK    9  A    between atoms: C_14  and  C_16
REMARK                            x       y       z     vdW  Elec       q    Type
REMARK                         _______ _______ _______ _____ _____    ______ ____
ROOT
ATOM      1  C   UNL     1       5.317   4.982  18.023  0.00  0.00    +0.000 A 
ATOM      2  C   UNL     1       6.597   4.469  17.819  0.00  0.00    +0.000 A 
ATOM      3  C   UNL     1       7.138   4.470  16.528  0.00  0.00    +0.000 A 
ATOM      4  C   UNL     1       6.395   4.976  15.452  0.00  0.00    +0.000 A 
ATOM      5  C   UNL     1       5.098   5.459  15.671  0.00  0.00    +0.000 A 
ATOM      6  C   UNL     1       4.561   5.470  16.956  0.00  0.00    +0.000 A 
ENDROOT
BRANCH   4   7
ATOM      7  C   UNL     1       6.972   4.915  14.084  0.00  0.00    +0.000 C 
ATOM      8  O   UNL     1       7.944   5.616  13.811  0.00  0.00    +0.000 OA
BRANCH   7   9
ATOM      9  C   UNL     1       6.422   4.000  13.049  0.00  0.00    +0.000 A 
ATOM     10  C   UNL     1       7.313   3.208  12.317  0.00  0.00    +0.000 A 
ATOM     11  C   UNL     1       6.828   2.318  11.357  0.00  0.00    +0.000 A 
ATOM     12  C   UNL     1       5.455   2.223  11.122  0.00  0.00    +0.000 A 
ATOM     13  C   UNL     1       4.566   3.029  11.833  0.00  0.00    +0.000 A 
ATOM     14  C   UNL     1       5.048   3.927  12.788  0.00  0.00    +0.000 A 
ENDBRANCH   7   9
ENDBRANCH   4   7
BRANCH   1  15
ATOM     15  O   UNL     1       4.743   4.820  19.293  0.00  0.00    +0.000 OA
BRANCH  15  16
ATOM     16  C   UNL     1       4.181   3.590  19.604  0.00  0.00    +0.000 C 
ATOM     17  O   UNL     1       4.800   2.547  19.788  0.00  0.00    +0.000 OA
BRANCH  16  19
ATOM     18  C   UNL     1       2.172   5.101  19.837  0.00  0.00    +0.000 C 
ATOM     19  C   UNL     1       2.664   3.659  19.632  0.00  0.00    +0.000 C 
ATOM     20  C   UNL     1       2.148   2.831  20.826  0.00  0.00    +0.000 C 
BRANCH  19  21
ATOM     21  C   UNL     1       2.117   3.080  18.342  0.00  0.00    +0.000 C 
ATOM     22  O   UNL     1       1.377   3.685  17.581  0.00  0.00    +0.000 OA
BRANCH  21  23
ATOM     23  O   UNL     1       2.505   1.808  18.080  0.00  0.00    +0.000 OA
ATOM     24  H   UNL     1       2.092   1.382  17.298  0.00  0.00    +0.000 HD
ENDBRANCH  21  23
ENDBRANCH  19  21
ENDBRANCH  16  19
ENDBRANCH  15  16
ENDBRANCH   1  15
TORSDOF 7
ENDMDL
MODEL 2
REMARK VINA RESULT:      -7.8      0.757      1.546
REMARK  Name = 
REMARK  9 active torsions:
REMARK  status: ('A' for Active; 'I' for Inactive)
REMARK    1  A    between atoms: C_1  and  C_2
REMARK    2  A    between atoms: C_2  and  C_3
REMARK    3  A    between atoms: C_2  and  C_4
REMARK    4  A    between atoms: C_2  and  C_7
REMARK    5  A    between atoms: C_4  and  O_6
REMARK    6  A    between atoms: C_7  and  O_9
REMARK    7  A    between atoms: O_9  and  C_10
REMARK    8  A    between atoms: C_13  and  C_14
REMARK    9  A    between atoms: C_14  and  C_16
REMARK                            x       y       z     vdW  Elec       q    Type
REMARK                         _______ _______ _______ _____ _____    ______ ____
ROOT
ATOM      1  C   UNL     1       5.224   4.266  18.120  0.00  0.00    +0.000 A 
ATOM      2  C   UNL     1       4.385   4.053  17.028  0.00  0.00    +0.000 A 
ATOM      3  C   UNL     1       4.908   4.144  15.733  0.00  0.00    +0.000 A 
ATOM      4  C   UNL     1       6.262   4.453  15.540  0.00  0.00    +0.000 A 
ATOM      5  C   UNL     1       7.084   4.694  16.649  0.00  0.00    +0.000 A 
ATOM      6  C   UNL     1       6.569   4.594  17.939  0.00  0.00    +0.000 A 
ENDROOT
BRANCH   4   7
ATOM      7  C   UNL     1       6.779   4.597  14.153  0.00  0.00    +0.000 C 
ATOM      8  O   UNL     1       7.692   5.390  13.934  0.00  0.00    +0.000 OA
BRANCH   7   9
ATOM      9  C   UNL     1       6.240   3.781  13.035  0.00  0.00    +0.000 A 
ATOM     10  C   UNL     1       4.899   3.951  12.670  0.00  0.00    +0.000 A 
ATOM     11  C   UNL     1       4.368   3.221  11.606  0.00  0.00    +0.000 A 
ATOM     12  C   UNL     1       5.170   2.315  10.910  0.00  0.00    +0.000 A 
ATOM     13  C   UNL     1       6.499   2.125  11.286  0.00  0.00    +0.000 A 
ATOM     14  C   UNL     1       7.033   2.847  12.356  0.00  0.00    +0.000 A 
ENDBRANCH   7   9
ENDBRANCH   4   7
BRANCH   1  15
ATOM     15  O   UNL     1       4.637   4.326  19.393  0.00  0.00    +0.000 OA
BRANCH  15  16
ATOM     16  C   UNL     1       4.156   3.147  19.947  0.00  0.00    +0.000 C 
ATOM     17  O   UNL     1       4.819   2.141  20.173  0.00  0.00    +0.000 OA
BRANCH  16  19
ATOM     18  C   UNL     1       2.147   4.664  20.137  0.00  0.00    +0.000 C 
ATOM     19  C   UNL     1       2.659   3.215  20.191  0.00  0.00    +0.000 C 
ATOM     20  C   UNL     1       2.358   2.681  21.606  0.00  0.00    +0.000 C 
BRANCH  19  21
ATOM     21  C   UNL     1       1.948   2.354  19.166  0.00  0.00    +0.000 C 
ATOM     22  O   UNL     1       0.782   2.507  18.834  0.00  0.00    +0.000 OA
BRANCH  21  23
ATOM     23  O   UNL     1       2.707   1.369  18.626  0.00  0.00    +0.000 OA
ATOM     24  H   UNL     1       2.476   1.095  17.713  0.00  0.00    +0.000 HD
ENDBRANCH  21  23
ENDBRANCH  19  21
ENDBRANCH  16  19
ENDBRANCH  15  16
ENDBRANCH   1  15
TORSDOF 7
ENDMDL
MODEL 3
REMARK VINA RESULT:      -7.8      0.125      1.017
REMARK  Name = 
REMARK  9 active torsions:
REMARK  status: ('A' for Active; 'I' for Inactive)
REMARK    1  A    between atoms: C_1  and  C_2
REMARK    2  A    between atoms: C_2  and  C_3
REMARK    3  A    between atoms: C_2  and  C_4
REMARK    4  A    between atoms: C_2  and  C_7
REMARK    5  A    between atoms: C_4  and  O_6
REMARK    6  A    between atoms: C_7  and  O_9
REMARK    7  A    between atoms: O_9  and  C_10
REMARK    8  A    between atoms: C_13  and  C_14
REMARK    9  A    between atoms: C_14  and  C_16
REMARK                            x       y       z     vdW  Elec       q    Type
REMARK                         _______ _______ _______ _____ _____    ______ ____
ROOT
ATOM      1  C   UNL     1       5.298   4.967  18.048  0.00  0.00    +0.000 A 
ATOM      2  C   UNL     1       6.621   4.565  17.873  0.00  0.00    +0.000 A 
ATOM      3  C   UNL     1       7.172   4.561  16.586  0.00  0.00    +0.000 A 
ATOM      4  C   UNL     1       6.396   4.952  15.486  0.00  0.00    +0.000 A 
ATOM      5  C   UNL     1       5.059   5.323  15.677  0.00  0.00    +0.000 A 
ATOM      6  C   UNL     1       4.511   5.340  16.957  0.00  0.00    +0.000 A 
ENDROOT
BRANCH   4   7
ATOM      7  C   UNL     1       6.989   4.885  14.124  0.00  0.00    +0.000 C 
ATOM      8  O   UNL     1       7.960   5.589  13.859  0.00  0.00    +0.000 OA
BRANCH   7   9
ATOM      9  C   UNL     1       6.453   3.963  13.089  0.00  0.00    +0.000 A 
ATOM     10  C   UNL     1       5.071   3.935  12.870  0.00  0.00    +0.000 A 
ATOM     11  C   UNL     1       4.537   3.101  11.886  0.00  0.00    +0.000 A 
ATOM     12  C   UNL     1       5.380   2.290  11.125  0.00  0.00    +0.000 A 
ATOM     13  C   UNL     1       6.755   2.298  11.356  0.00  0.00    +0.000 A 
ATOM     14  C   UNL     1       7.293   3.124  12.346  0.00  0.00    +0.000 A 
ENDBRANCH   7   9
ENDBRANCH   4   7
BRANCH   1  15
ATOM     15  O   UNL     1       4.730   4.808  19.321  0.00  0.00    +0.000 OA
BRANCH  15  16
ATOM     16  C   UNL     1       4.163   3.580  19.634  0.00  0.00    +0.000 C 
ATOM     17  O   UNL     1       4.774   2.527  19.780  0.00  0.00    +0.000 OA
BRANCH  16  19
ATOM     18  C   UNL     1       2.180   5.126  19.868  0.00  0.00    +0.000 C 
ATOM     19  C   UNL     1       2.649   3.669  19.718  0.00  0.00    +0.000 C 
ATOM     20  C   UNL     1       2.173   2.909  20.973  0.00  0.00    +0.000 C 
BRANCH  19  21
ATOM     21  C   UNL     1       2.044   3.032  18.483  0.00  0.00    +0.000 C 
ATOM     22  O   UNL     1       1.416   3.647  17.635  0.00  0.00    +0.000 OA
BRANCH  21  23
ATOM     23  O   UNL     1       2.244   1.696  18.376  0.00  0.00    +0.000 OA
ATOM     24  H   UNL     1       1.711   1.231  17.696  0.00  0.00    +0.000 HD
ENDBRANCH  21  23
ENDBRANCH  19  21
ENDBRANCH  16  19
ENDBRANCH  15  16
ENDBRANCH   1  15
TORSDOF 7
ENDMDL
MODEL 4
REMARK VINA RESULT:      -7.7      1.105      2.060
REMARK  Name = 
REMARK  9 active torsions:
REMARK  status: ('A' for Active; 'I' for Inactive)
REMARK    1  A    between atoms: C_1  and  C_2
REMARK    2  A    between atoms: C_2  and  C_3
REMARK    3  A    between atoms: C_2  and  C_4
REMARK    4  A    between atoms: C_2  and  C_7
REMARK    5  A    between atoms: C_4  and  O_6
REMARK    6  A    between atoms: C_7  and  O_9
REMARK    7  A    between atoms: O_9  and  C_10
REMARK    8  A    between atoms: C_13  and  C_14
REMARK    9  A    between atoms: C_14  and  C_16
REMARK                            x       y       z     vdW  Elec       q    Type
REMARK                         _______ _______ _______ _____ _____    ______ ____
ROOT
ATOM      1  C   UNL     1       4.043   5.299  17.391  0.00  0.00    +0.000 A 
ATOM      2  C   UNL     1       4.472   4.026  17.017  0.00  0.00    +0.000 A 
ATOM      3  C   UNL     1       5.350   3.889  15.936  0.00  0.00    +0.000 A 
ATOM      4  C   UNL     1       5.788   5.021  15.235  0.00  0.00    +0.000 A 
ATOM      5  C   UNL     1       5.323   6.289  15.606  0.00  0.00    +0.000 A 
ATOM      6  C   UNL     1       4.458   6.431  16.688  0.00  0.00    +0.000 A 
ENDROOT
BRANCH   4   7
ATOM      7  C   UNL     1       6.677   4.842  14.057  0.00  0.00    +0.000 C 
ATOM      8  O   UNL     1       7.718   5.491  13.988  0.00  0.00    +0.000 OA
BRANCH   7   9
ATOM      9  C   UNL     1       6.352   3.872  12.979  0.00  0.00    +0.000 A 
ATOM     10  C   UNL     1       5.009   3.687  12.630  0.00  0.00    +0.000 A 
ATOM     11  C   UNL     1       4.670   2.804  11.604  0.00  0.00    +0.000 A 
ATOM     12  C   UNL     1       5.668   2.099  10.930  0.00  0.00    +0.000 A 
ATOM     13  C   UNL     1       7.006   2.263  11.291  0.00  0.00    +0.000 A 
ATOM     14  C   UNL     1       7.349   3.138  12.323  0.00  0.00    +0.000 A 
ENDBRANCH   7   9
ENDBRANCH   4   7
BRANCH   1  15
ATOM     15  O   UNL     1       3.043   5.390  18.371  0.00  0.00    +0.000 OA
BRANCH  15  16
ATOM     16  C   UNL     1       2.036   4.435  18.366  0.00  0.00    +0.000 C 
ATOM     17  O   UNL     1       1.240   4.240  17.453  0.00  0.00    +0.000 OA
BRANCH  16  19
ATOM     18  C   UNL     1       0.539   3.256  20.023  0.00  0.00    +0.000 C 
ATOM     19  C   UNL     1       1.978   3.676  19.680  0.00  0.00    +0.000 C 
ATOM     20  C   UNL     1       2.461   4.603  20.814  0.00  0.00    +0.000 C 
BRANCH  19  21
ATOM     21  C   UNL     1       2.887   2.466  19.596  0.00  0.00    +0.000 C 
ATOM     22  O   UNL     1       3.878   2.305  20.293  0.00  0.00    +0.000 OA
BRANCH  21  23
ATOM     23  O   UNL     1       2.526   1.547  18.667  0.00  0.00    +0.000 OA
ATOM     24  H   UNL     1       3.237   1.234  18.068  0.00  0.00    +0.000 HD
ENDBRANCH  21  23
ENDBRANCH  19  21
ENDBRANCH  16  19
ENDBRANCH  15  16
ENDBRANCH   1  15
TORSDOF 7
ENDMDL
MODEL 5
REMARK VINA RESULT:      -7.7      1.044      1.065
REMARK  Name = 
REMARK  9 active torsions:
REMARK  status: ('A' for Active; 'I' for Inactive)
REMARK    1  A    between atoms: C_1  and  C_2
REMARK    2  A    between atoms: C_2  and  C_3
REMARK    3  A    between atoms: C_2  and  C_4
REMARK    4  A    between atoms: C_2  and  C_7
REMARK    5  A    between atoms: C_4  and  O_6
REMARK    6  A    between atoms: C_7  and  O_9
REMARK    7  A    between atoms: O_9  and  C_10
REMARK    8  A    between atoms: C_13  and  C_14
REMARK    9  A    between atoms: C_14  and  C_16
REMARK                            x       y       z     vdW  Elec       q    Type
REMARK                         _______ _______ _______ _____ _____    ______ ____
ROOT
ATOM      1  C   UNL     1       4.218   4.792  17.663  0.00  0.00    +0.000 A 
ATOM      2  C   UNL     1       4.648   3.576  17.136  0.00  0.00    +0.000 A 
ATOM      3  C   UNL     1       5.447   3.571  15.987  0.00  0.00    +0.000 A 
ATOM      4  C   UNL     1       5.804   4.779  15.371  0.00  0.00    +0.000 A 
ATOM      5  C   UNL     1       5.336   5.990  15.897  0.00  0.00    +0.000 A 
ATOM      6  C   UNL     1       4.550   6.000  17.046  0.00  0.00    +0.000 A 
ENDROOT
BRANCH   4   7
ATOM      7  C   UNL     1       6.607   4.742  14.120  0.00  0.00    +0.000 C 
ATOM      8  O   UNL     1       7.601   5.457  14.026  0.00  0.00    +0.000 OA
BRANCH   7   9
ATOM      9  C   UNL     1       6.253   3.835  12.997  0.00  0.00    +0.000 A 
ATOM     10  C   UNL     1       7.278   3.119  12.369  0.00  0.00    +0.000 A 
ATOM     11  C   UNL     1       6.978   2.238  11.328  0.00  0.00    +0.000 A 
ATOM     12  C   UNL     1       5.657   2.076  10.909  0.00  0.00    +0.000 A 
ATOM     13  C   UNL     1       4.635   2.806  11.516  0.00  0.00    +0.000 A 
ATOM     14  C   UNL     1       4.932   3.696  12.551  0.00  0.00    +0.000 A 
ENDBRANCH   7   9
ENDBRANCH   4   7
BRANCH   1  15
ATOM     15  O   UNL     1       3.291   4.756  18.716  0.00  0.00    +0.000 OA
BRANCH  15  16
ATOM     16  C   UNL     1       3.372   3.708  19.622  0.00  0.00    +0.000 C 
ATOM     17  O   UNL     1       4.403   3.141  19.969  0.00  0.00    +0.000 OA
BRANCH  16  19
ATOM     18  C   UNL     1       1.065   4.489  20.289  0.00  0.00    +0.000 C 
ATOM     19  C   UNL     1       1.998   3.280  20.106  0.00  0.00    +0.000 C 
ATOM     20  C   UNL     1       2.141   2.607  21.486  0.00  0.00    +0.000 C 
BRANCH  19  21
ATOM     21  C   UNL     1       1.409   2.290  19.121  0.00  0.00    +0.000 C 
ATOM     22  O   UNL     1       0.231   2.262  18.800  0.00  0.00    +0.000 OA
BRANCH  21  23
ATOM     23  O   UNL     1       2.298   1.405  18.606  0.00  0.00    +0.000 OA
ATOM     24  H   UNL     1       2.905   0.978  19.248  0.00  0.00    +0.000 HD
ENDBRANCH  21  23
ENDBRANCH  19  21
ENDBRANCH  16  19
ENDBRANCH  15  16
ENDBRANCH   1  15
TORSDOF 7
ENDMDL
MODEL 6
REMARK VINA RESULT:      -7.7      1.059      1.820
REMARK  Name = 
REMARK  9 active torsions:
REMARK  status: ('A' for Active; 'I' for Inactive)
REMARK    1  A    between atoms: C_1  and  C_2
REMARK    2  A    between atoms: C_2  and  C_3
REMARK    3  A    between atoms: C_2  and  C_4
REMARK    4  A    between atoms: C_2  and  C_7
REMARK    5  A    between atoms: C_4  and  O_6
REMARK    6  A    between atoms: C_7  and  O_9
REMARK    7  A    between atoms: O_9  and  C_10
REMARK    8  A    between atoms: C_13  and  C_14
REMARK    9  A    between atoms: C_14  and  C_16
REMARK                            x       y       z     vdW  Elec       q    Type
REMARK                         _______ _______ _______ _____ _____    ______ ____
ROOT
ATOM      1  C   UNL     1       4.359   5.073  17.538  0.00  0.00    +0.000 A 
ATOM      2  C   UNL     1       4.910   3.849  17.162  0.00  0.00    +0.000 A 
ATOM      3  C   UNL     1       5.703   3.778  16.011  0.00  0.00    +0.000 A 
ATOM      4  C   UNL     1       5.933   4.928  15.241  0.00  0.00    +0.000 A 
ATOM      5  C   UNL     1       5.345   6.143  15.617  0.00  0.00    +0.000 A 
ATOM      6  C   UNL     1       4.565   6.219  16.768  0.00  0.00    +0.000 A 
ENDROOT
BRANCH   4   7
ATOM      7  C   UNL     1       6.733   4.814  13.994  0.00  0.00    +0.000 C 
ATOM      8  O   UNL     1       7.740   5.505  13.863  0.00  0.00    +0.000 OA
BRANCH   7   9
ATOM      9  C   UNL     1       6.360   3.859  12.917  0.00  0.00    +0.000 A 
ATOM     10  C   UNL     1       7.382   3.178  12.245  0.00  0.00    +0.000 A 
ATOM     11  C   UNL     1       7.066   2.254  11.248  0.00  0.00    +0.000 A 
ATOM     12  C   UNL     1       5.732   2.015  10.914  0.00  0.00    +0.000 A 
ATOM     13  C   UNL     1       4.712   2.709  11.565  0.00  0.00    +0.000 A 
ATOM     14  C   UNL     1       5.024   3.641  12.557  0.00  0.00    +0.000 A 
ENDBRANCH   7   9
ENDBRANCH   4   7
BRANCH   1  15
ATOM     15  O   UNL     1       3.443   5.078  18.600  0.00  0.00    +0.000 OA
BRANCH  15  16
ATOM     16  C   UNL     1       2.524   4.040  18.676  0.00  0.00    +0.000 C 
ATOM     17  O   UNL     1       2.096   3.394  17.726  0.00  0.00    +0.000 OA
BRANCH  16  19
ATOM     18  C   UNL     1       0.594   3.301  20.126  0.00  0.00    +0.000 C 
ATOM     19  C   UNL     1       2.040   3.825  20.099  0.00  0.00    +0.000 C 
ATOM     20  C   UNL     1       2.045   5.178  20.839  0.00  0.00    +0.000 C 
BRANCH  19  21
ATOM     21  C   UNL     1       2.975   2.862  20.803  0.00  0.00    +0.000 C 
ATOM     22  O   UNL     1       2.827   2.485  21.955  0.00  0.00    +0.000 OA
BRANCH  21  23
ATOM     23  O   UNL     1       4.021   2.436  20.053  0.00  0.00    +0.000 OA
ATOM     24  H   UNL     1       3.817   1.765  19.367  0.00  0.00    +0.000 HD
ENDBRANCH  21  23
ENDBRANCH  19  21
ENDBRANCH  16  19
ENDBRANCH  15  16
ENDBRANCH   1  15
TORSDOF 7
ENDMDL
MODEL 7
REMARK VINA RESULT:      -7.6      1.264      1.988
REMARK  Name = 
REMARK  9 active torsions:
REMARK  status: ('A' for Active; 'I' for Inactive)
REMARK    1  A    between atoms: C_1  and  C_2
REMARK    2  A    between atoms: C_2  and  C_3
REMARK    3  A    between atoms: C_2  and  C_4
REMARK    4  A    between atoms: C_2  and  C_7
REMARK    5  A    between atoms: C_4  and  O_6
REMARK    6  A    between atoms: C_7  and  O_9
REMARK    7  A    between atoms: O_9  and  C_10
REMARK    8  A    between atoms: C_13  and  C_14
REMARK    9  A    between atoms: C_14  and  C_16
REMARK                            x       y       z     vdW  Elec       q    Type
REMARK                         _______ _______ _______ _____ _____    ______ ____
ROOT
ATOM      1  C   UNL     1       4.868   5.133  17.688  0.00  0.00    +0.000 A 
ATOM      2  C   UNL     1       5.604   3.994  17.366  0.00  0.00    +0.000 A 
ATOM      3  C   UNL     1       6.262   3.928  16.133  0.00  0.00    +0.000 A 
ATOM      4  C   UNL     1       6.177   4.998  15.231  0.00  0.00    +0.000 A 
ATOM      5  C   UNL     1       5.408   6.122  15.559  0.00  0.00    +0.000 A 
ATOM      6  C   UNL     1       4.760   6.195  16.789  0.00  0.00    +0.000 A 
ENDROOT
BRANCH   4   7
ATOM      7  C   UNL     1       6.841   4.879  13.906  0.00  0.00    +0.000 C 
ATOM      8  O   UNL     1       7.821   5.578  13.663  0.00  0.00    +0.000 OA
BRANCH   7   9
ATOM      9  C   UNL     1       6.365   3.911  12.883  0.00  0.00    +0.000 A 
ATOM     10  C   UNL     1       7.314   3.135  12.207  0.00  0.00    +0.000 A 
ATOM     11  C   UNL     1       6.900   2.197  11.260  0.00  0.00    +0.000 A 
ATOM     12  C   UNL     1       5.542   2.037  10.981  0.00  0.00    +0.000 A 
ATOM     13  C   UNL     1       4.595   2.825  11.636  0.00  0.00    +0.000 A 
ATOM     14  C   UNL     1       5.005   3.771  12.577  0.00  0.00    +0.000 A 
ENDBRANCH   7   9
ENDBRANCH   4   7
BRANCH   1  15
ATOM     15  O   UNL     1       4.093   5.102  18.857  0.00  0.00    +0.000 OA
BRANCH  15  16
ATOM     16  C   UNL     1       2.820   4.552  18.782  0.00  0.00    +0.000 C 
ATOM     17  O   UNL     1       1.917   4.937  18.047  0.00  0.00    +0.000 OA
BRANCH  16  19
ATOM     18  C   UNL     1       3.882   2.524  19.848  0.00  0.00    +0.000 C 
ATOM     19  C   UNL     1       2.638   3.426  19.785  0.00  0.00    +0.000 C 
ATOM     20  C   UNL     1       1.459   2.540  19.332  0.00  0.00    +0.000 C 
BRANCH  19  21
ATOM     21  C   UNL     1       2.331   4.017  21.146  0.00  0.00    +0.000 C 
ATOM     22  O   UNL     1       2.107   3.351  22.146  0.00  0.00    +0.000 OA
BRANCH  21  23
ATOM     23  O   UNL     1       2.313   5.372  21.186  0.00  0.00    +0.000 OA
ATOM     24  H   UNL     1       2.615   5.783  22.025  0.00  0.00    +0.000 HD
ENDBRANCH  21  23
ENDBRANCH  19  21
ENDBRANCH  16  19
ENDBRANCH  15  16
ENDBRANCH   1  15
TORSDOF 7
ENDMDL
MODEL 8
REMARK VINA RESULT:      -7.6      1.007      1.713
REMARK  Name = 
REMARK  9 active torsions:
REMARK  status: ('A' for Active; 'I' for Inactive)
REMARK    1  A    between atoms: C_1  and  C_2
REMARK    2  A    between atoms: C_2  and  C_3
REMARK    3  A    between atoms: C_2  and  C_4
REMARK    4  A    between atoms: C_2  and  C_7
REMARK    5  A    between atoms: C_4  and  O_6
REMARK    6  A    between atoms: C_7  and  O_9
REMARK    7  A    between atoms: O_9  and  C_10
REMARK    8  A    between atoms: C_13  and  C_14
REMARK    9  A    between atoms: C_14  and  C_16
REMARK                            x       y       z     vdW  Elec       q    Type
REMARK                         _______ _______ _______ _____ _____    ______ ____
ROOT
ATOM      1  C   UNL     1       5.273   4.241  18.176  0.00  0.00    +0.000 A 
ATOM      2  C   UNL     1       4.438   4.035  17.079  0.00  0.00    +0.000 A 
ATOM      3  C   UNL     1       4.961   4.157  15.787  0.00  0.00    +0.000 A 
ATOM      4  C   UNL     1       6.310   4.490  15.600  0.00  0.00    +0.000 A 
ATOM      5  C   UNL     1       7.127   4.724  16.715  0.00  0.00    +0.000 A 
ATOM      6  C   UNL     1       6.613   4.592  18.002  0.00  0.00    +0.000 A 
ENDROOT
BRANCH   4   7
ATOM      7  C   UNL     1       6.826   4.667  14.218  0.00  0.00    +0.000 C 
ATOM      8  O   UNL     1       7.725   5.480  14.013  0.00  0.00    +0.000 OA
BRANCH   7   9
ATOM      9  C   UNL     1       6.302   3.860  13.084  0.00  0.00    +0.000 A 
ATOM     10  C   UNL     1       7.199   3.067  12.360  0.00  0.00    +0.000 A 
ATOM     11  C   UNL     1       6.737   2.276  11.307  0.00  0.00    +0.000 A 
ATOM     12  C   UNL     1       5.382   2.281  10.971  0.00  0.00    +0.000 A 
ATOM     13  C   UNL     1       4.489   3.089  11.676  0.00  0.00    +0.000 A 
ATOM     14  C   UNL     1       4.949   3.889  12.724  0.00  0.00    +0.000 A 
ENDBRANCH   7   9
ENDBRANCH   4   7
BRANCH   1  15
ATOM     15  O   UNL     1       4.685   4.269  19.449  0.00  0.00    +0.000 OA
BRANCH  15  16
ATOM     16  C   UNL     1       4.212   3.075  19.977  0.00  0.00    +0.000 C 
ATOM     17  O   UNL     1       4.881   2.066  20.174  0.00  0.00    +0.000 OA
BRANCH  16  19
ATOM     18  C   UNL     1       2.375   2.673  21.661  0.00  0.00    +0.000 C 
ATOM     19  C   UNL     1       2.716   3.130  20.233  0.00  0.00    +0.000 C 
ATOM     20  C   UNL     1       2.008   2.160  19.266  0.00  0.00    +0.000 C 
BRANCH  19  21
ATOM     21  C   UNL     1       2.220   4.540  19.986  0.00  0.00    +0.000 C 
ATOM     22  O   UNL     1       1.576   4.876  19.004  0.00  0.00    +0.000 OA
BRANCH  21  23
ATOM     23  O   UNL     1       2.551   5.436  20.948  0.00  0.00    +0.000 OA
ATOM     24  H   UNL     1       3.436   5.325  21.357  0.00  0.00    +0.000 HD
ENDBRANCH  21  23
ENDBRANCH  19  21
ENDBRANCH  16  19
ENDBRANCH  15  16
ENDBRANCH   1  15
TORSDOF 7
ENDMDL
MODEL 9
REMARK VINA RESULT:      -7.6      1.119      1.470
REMARK  Name = 
REMARK  9 active torsions:
REMARK  status: ('A' for Active; 'I' for Inactive)
REMARK    1  A    between atoms: C_1  and  C_2
REMARK    2  A    between atoms: C_2  and  C_3
REMARK    3  A    between atoms: C_2  and  C_4
REMARK    4  A    between atoms: C_2  and  C_7
REMARK    5  A    between atoms: C_4  and  O_6
REMARK    6  A    between atoms: C_7  and  O_9
REMARK    7  A    between atoms: O_9  and  C_10
REMARK    8  A    between atoms: C_13  and  C_14
REMARK    9  A    between atoms: C_14  and  C_16
REMARK                            x       y       z     vdW  Elec       q    Type
REMARK                         _______ _______ _______ _____ _____    ______ ____
ROOT
ATOM      1  C   UNL     1       4.694   5.028  17.531  0.00  0.00    +0.000 A 
ATOM      2  C   UNL     1       5.122   3.792  17.050  0.00  0.00    +0.000 A 
ATOM      3  C   UNL     1       5.804   3.730  15.830  0.00  0.00    +0.000 A 
ATOM      4  C   UNL     1       6.047   4.900  15.097  0.00  0.00    +0.000 A 
ATOM      5  C   UNL     1       5.582   6.130  15.581  0.00  0.00    +0.000 A 
ATOM      6  C   UNL     1       4.913   6.198  16.800  0.00  0.00    +0.000 A 
ENDROOT
BRANCH   4   7
ATOM      7  C   UNL     1       6.725   4.799  13.778  0.00  0.00    +0.000 C 
ATOM      8  O   UNL     1       7.664   5.551  13.528  0.00  0.00    +0.000 OA
BRANCH   7   9
ATOM      9  C   UNL     1       6.315   3.787  12.770  0.00  0.00    +0.000 A 
ATOM     10  C   UNL     1       7.306   3.004  12.167  0.00  0.00    +0.000 A 
ATOM     11  C   UNL     1       6.953   2.025  11.237  0.00  0.00    +0.000 A 
ATOM     12  C   UNL     1       5.613   1.832  10.901  0.00  0.00    +0.000 A 
ATOM     13  C   UNL     1       4.624   2.626  11.482  0.00  0.00    +0.000 A 
ATOM     14  C   UNL     1       4.973   3.612  12.406  0.00  0.00    +0.000 A 
ENDBRANCH   7   9
ENDBRANCH   4   7
BRANCH   1  15
ATOM     15  O   UNL     1       3.877   5.038  18.671  0.00  0.00    +0.000 OA
BRANCH  15  16
ATOM     16  C   UNL     1       2.517   4.814  18.503  0.00  0.00    +0.000 C 
ATOM     17  O   UNL     1       1.770   5.461  17.777  0.00  0.00    +0.000 OA
BRANCH  16  19
ATOM     18  C   UNL     1       1.054   4.204  20.468  0.00  0.00    +0.000 C 
ATOM     19  C   UNL     1       2.023   3.686  19.392  0.00  0.00    +0.000 C 
ATOM     20  C   UNL     1       3.227   3.065  20.128  0.00  0.00    +0.000 C 
BRANCH  19  21
ATOM     21  C   UNL     1       1.358   2.630  18.532  0.00  0.00    +0.000 C 
ATOM     22  O   UNL     1       0.301   2.085  18.812  0.00  0.00    +0.000 OA
BRANCH  21  23
ATOM     23  O   UNL     1       2.033   2.311  17.400  0.00  0.00    +0.000 OA
ATOM     24  H   UNL     1       1.975   2.959  16.665  0.00  0.00    +0.000 HD
ENDBRANCH  21  23
ENDBRANCH  19  21
ENDBRANCH  16  19
ENDBRANCH  15  16
ENDBRANCH   1  15
TORSDOF 7
ENDMDL
