MODEL 1
REMARK VINA RESULT:      -8.6      0.000      0.000
REMARK  Name = 
REMARK  12 active torsions:
REMARK  status: ('A' for Active; 'I' for Inactive)
REMARK    1  A    between atoms: C_1  and  O_2
REMARK    2  A    between atoms: O_2  and  C_3
REMARK    3  A    between atoms: C_3  and  C_5
REMARK    4  A    between atoms: C_5  and  C_6
REMARK    5  A    between atoms: C_5  and  N_15
REMARK    6  A    between atoms: C_6  and  C_7
REMARK    7  A    between atoms: C_10  and  O_11
REMARK    8  A    between atoms: C_12  and  O_13
REMARK    9  A    between atoms: C_16  and  C_18
REMARK   10  A    between atoms: C_19  and  C_20
REMARK   11  A    between atoms: C_23  and  O_24
REMARK   12  A    between atoms: C_25  and  O_26
REMARK                            x       y       z     vdW  Elec       q    Type
REMARK                         _______ _______ _______ _____ _____    ______ ____
ROOT
ATOM      1  C   UNL     1       6.400   5.734  16.374  0.00  0.00    +0.000 C 
ENDROOT
BRANCH   1   2
ATOM      2  N   UNL     1       7.069   7.022  16.554  0.00  0.00    +0.000 N 
ATOM      3  C   UNL     1       7.695   7.369  17.720  0.00  0.00    +0.000 C 
ATOM      4  O   UNL     1       7.748   6.654  18.710  0.00  0.00    +0.000 OA
ATOM      5  H   UNL     1       7.142   7.610  15.729  0.00  0.00    +0.000 HD
BRANCH   3   6
ATOM      6  C   UNL     1       8.272   8.734  17.679  0.00  0.00    +0.000 C 
ATOM      7  C   UNL     1       8.676   9.321  18.815  0.00  0.00    +0.000 C 
BRANCH   7   8
ATOM      8  C   UNL     1       9.203  10.691  18.900  0.00  0.00    +0.000 A 
ATOM      9  C   UNL     1      10.249  11.040  19.773  0.00  0.00    +0.000 A 
ATOM     10  C   UNL     1      10.762  12.341  19.804  0.00  0.00    +0.000 A 
ATOM     11  C   UNL     1      10.234  13.292  18.943  0.00  0.00    +0.000 A 
ATOM     12  C   UNL     1       9.214  12.955  18.061  0.00  0.00    +0.000 A 
ATOM     13  C   UNL     1       8.698  11.664  18.028  0.00  0.00    +0.000 A 
BRANCH  11  14
ATOM     14  O   UNL     1      10.697  14.581  18.920  0.00  0.00    +0.000 OA
ATOM     15  H   UNL     1      11.639  14.561  18.681  0.00  0.00    +0.000 HD
ENDBRANCH  11  14
BRANCH  12  16
ATOM     16  O   UNL     1       8.710  13.895  17.208  0.00  0.00    +0.000 OA
ATOM     17  H   UNL     1       7.811  13.572  16.993  0.00  0.00    +0.000 HD
ENDBRANCH  12  16
ENDBRANCH   7   8
ENDBRANCH   3   6
ENDBRANCH   1   2
BRANCH   1  18
ATOM     18  C   UNL     1       6.917   5.092  15.070  0.00  0.00    +0.000 C 
ATOM     19  O   UNL     1       7.848   5.550  14.412  0.00  0.00    +0.000 OA
BRANCH  18  21
ATOM     20  C   UNL     1       5.918   3.752  13.425  0.00  0.00    +0.000 C 
ATOM     21  O   UNL     1       6.256   3.939  14.803  0.00  0.00    +0.000 OA
ENDBRANCH  18  21
ENDBRANCH   1  18
BRANCH   1  22
ATOM     22  C   UNL     1       4.855   5.803  16.411  0.00  0.00    +0.000 C 
BRANCH  22  23
ATOM     23  C   UNL     1       4.190   4.968  17.484  0.00  0.00    +0.000 A 
ATOM     24  C   UNL     1       2.813   5.088  17.740  0.00  0.00    +0.000 A 
ATOM     25  C   UNL     1       2.188   4.283  18.700  0.00  0.00    +0.000 A 
ATOM     26  C   UNL     1       2.949   3.366  19.414  0.00  0.00    +0.000 A 
ATOM     27  C   UNL     1       4.321   3.277  19.201  0.00  0.00    +0.000 A 
ATOM     28  C   UNL     1       4.946   4.064  18.244  0.00  0.00    +0.000 A 
BRANCH  26  29
ATOM     29  O   UNL     1       2.394   2.527  20.341  0.00  0.00    +0.000 OA
ATOM     30  H   UNL     1       1.990   1.781  19.866  0.00  0.00    +0.000 HD
ENDBRANCH  26  29
BRANCH  27  31
ATOM     31  O   UNL     1       5.071   2.404  19.936  0.00  0.00    +0.000 OA
ATOM     32  H   UNL     1       4.889   2.651  20.865  0.00  0.00    +0.000 HD
ENDBRANCH  27  31
ENDBRANCH  22  23
ENDBRANCH   1  22
TORSDOF 11
ENDMDL
MODEL 2
REMARK VINA RESULT:      -8.6      0.894      1.185
REMARK  Name = 
REMARK  12 active torsions:
REMARK  status: ('A' for Active; 'I' for Inactive)
REMARK    1  A    between atoms: C_1  and  O_2
REMARK    2  A    between atoms: O_2  and  C_3
REMARK    3  A    between atoms: C_3  and  C_5
REMARK    4  A    between atoms: C_5  and  C_6
REMARK    5  A    between atoms: C_5  and  N_15
REMARK    6  A    between atoms: C_6  and  C_7
REMARK    7  A    between atoms: C_10  and  O_11
REMARK    8  A    between atoms: C_12  and  O_13
REMARK    9  A    between atoms: C_16  and  C_18
REMARK   10  A    between atoms: C_19  and  C_20
REMARK   11  A    between atoms: C_23  and  O_24
REMARK   12  A    between atoms: C_25  and  O_26
REMARK                            x       y       z     vdW  Elec       q    Type
REMARK                         _______ _______ _______ _____ _____    ______ ____
ROOT
ATOM      1  C   UNL     1       6.328   5.458  16.367  0.00  0.00    +0.000 C 
ENDROOT
BRANCH   1   2
ATOM      2  N   UNL     1       6.822   6.807  16.639  0.00  0.00    +0.000 N 
ATOM      3  C   UNL     1       7.589   7.104  17.732  0.00  0.00    +0.000 C 
ATOM      4  O   UNL     1       7.922   6.288  18.579  0.00  0.00    +0.000 OA
ATOM      5  H   UNL     1       6.660   7.501  15.914  0.00  0.00    +0.000 HD
BRANCH   3   6
ATOM      6  C   UNL     1       7.942   8.542  17.815  0.00  0.00    +0.000 C 
ATOM      7  C   UNL     1       8.776   8.969  18.774  0.00  0.00    +0.000 C 
BRANCH   7   8
ATOM      8  C   UNL     1       9.144  10.376  18.987  0.00  0.00    +0.000 A 
ATOM      9  C   UNL     1       9.655  10.842  20.212  0.00  0.00    +0.000 A 
ATOM     10  C   UNL     1      10.038  12.177  20.376  0.00  0.00    +0.000 A 
ATOM     11  C   UNL     1       9.923  13.046  19.301  0.00  0.00    +0.000 A 
ATOM     12  C   UNL     1       9.439  12.594  18.079  0.00  0.00    +0.000 A 
ATOM     13  C   UNL     1       9.053  11.269  17.911  0.00  0.00    +0.000 A 
BRANCH  11  14
ATOM     14  O   UNL     1      10.288  14.363  19.396  0.00  0.00    +0.000 OA
ATOM     15  H   UNL     1      10.209  14.634  20.325  0.00  0.00    +0.000 HD
ENDBRANCH  11  14
BRANCH  12  16
ATOM     16  O   UNL     1       9.343  13.454  17.022  0.00  0.00    +0.000 OA
ATOM     17  H   UNL     1       9.678  14.306  17.369  0.00  0.00    +0.000 HD
ENDBRANCH  12  16
ENDBRANCH   7   8
ENDBRANCH   3   6
ENDBRANCH   1   2
BRANCH   1  18
ATOM     18  C   UNL     1       6.962   4.961  15.051  0.00  0.00    +0.000 C 
ATOM     19  O   UNL     1       7.894   5.531  14.489  0.00  0.00    +0.000 OA
BRANCH  18  21
ATOM     20  C   UNL     1       6.098   3.721  13.257  0.00  0.00    +0.000 C 
ATOM     21  O   UNL     1       6.399   3.793  14.654  0.00  0.00    +0.000 OA
ENDBRANCH  18  21
ENDBRANCH   1  18
BRANCH   1  22
ATOM     22  C   UNL     1       4.787   5.330  16.352  0.00  0.00    +0.000 C 
BRANCH  22  23
ATOM     23  C   UNL     1       4.177   4.642  17.554  0.00  0.00    +0.000 A 
ATOM     24  C   UNL     1       4.053   3.242  17.596  0.00  0.00    +0.000 A 
ATOM     25  C   UNL     1       3.531   2.601  18.726  0.00  0.00    +0.000 A 
ATOM     26  C   UNL     1       3.120   3.366  19.809  0.00  0.00    +0.000 A 
ATOM     27  C   UNL     1       3.195   4.755  19.755  0.00  0.00    +0.000 A 
ATOM     28  C   UNL     1       3.720   5.397  18.643  0.00  0.00    +0.000 A 
BRANCH  26  29
ATOM     29  O   UNL     1       2.634   2.800  20.955  0.00  0.00    +0.000 OA
ATOM     30  H   UNL     1       2.633   1.835  20.836  0.00  0.00    +0.000 HD
ENDBRANCH  26  29
BRANCH  27  31
ATOM     31  O   UNL     1       2.749   5.504  20.806  0.00  0.00    +0.000 OA
ATOM     32  H   UNL     1       2.013   4.982  21.181  0.00  0.00    +0.000 HD
ENDBRANCH  27  31
ENDBRANCH  22  23
ENDBRANCH   1  22
TORSDOF 11
ENDMDL
MODEL 3
REMARK VINA RESULT:      -8.5      1.256      1.747
REMARK  Name = 
REMARK  12 active torsions:
REMARK  status: ('A' for Active; 'I' for Inactive)
REMARK    1  A    between atoms: C_1  and  O_2
REMARK    2  A    between atoms: O_2  and  C_3
REMARK    3  A    between atoms: C_3  and  C_5
REMARK    4  A    between atoms: C_5  and  C_6
REMARK    5  A    between atoms: C_5  and  N_15
REMARK    6  A    between atoms: C_6  and  C_7
REMARK    7  A    between atoms: C_10  and  O_11
REMARK    8  A    between atoms: C_12  and  O_13
REMARK    9  A    between atoms: C_16  and  C_18
REMARK   10  A    between atoms: C_19  and  C_20
REMARK   11  A    between atoms: C_23  and  O_24
REMARK   12  A    between atoms: C_25  and  O_26
REMARK                            x       y       z     vdW  Elec       q    Type
REMARK                         _______ _______ _______ _____ _____    ______ ____
ROOT
ATOM      1  C   UNL     1       6.140   6.085  16.990  0.00  0.00    +0.000 C 
ENDROOT
BRANCH   1   2
ATOM      2  N   UNL     1       6.773   7.403  16.978  0.00  0.00    +0.000 N 
ATOM      3  C   UNL     1       7.754   7.757  17.863  0.00  0.00    +0.000 C 
ATOM      4  O   UNL     1       8.182   7.024  18.742  0.00  0.00    +0.000 OA
ATOM      5  H   UNL     1       6.526   8.013  16.204  0.00  0.00    +0.000 HD
BRANCH   3   6
ATOM      6  C   UNL     1       8.220   9.153  17.679  0.00  0.00    +0.000 C 
ATOM      7  C   UNL     1       9.019   9.715  18.597  0.00  0.00    +0.000 C 
BRANCH   7   8
ATOM      8  C   UNL     1       9.488  11.107  18.547  0.00  0.00    +0.000 A 
ATOM      9  C   UNL     1       8.734  12.133  17.948  0.00  0.00    +0.000 A 
ATOM     10  C   UNL     1       9.183  13.458  17.951  0.00  0.00    +0.000 A 
ATOM     11  C   UNL     1      10.386  13.758  18.571  0.00  0.00    +0.000 A 
ATOM     12  C   UNL     1      11.131  12.757  19.184  0.00  0.00    +0.000 A 
ATOM     13  C   UNL     1      10.692  11.438  19.182  0.00  0.00    +0.000 A 
BRANCH  11  14
ATOM     14  O   UNL     1      10.877  15.036  18.614  0.00  0.00    +0.000 OA
ATOM     15  H   UNL     1      10.124  15.649  18.662  0.00  0.00    +0.000 HD
ENDBRANCH  11  14
BRANCH  12  16
ATOM     16  O   UNL     1      12.309  13.065  19.805  0.00  0.00    +0.000 OA
ATOM     17  H   UNL     1      12.999  12.713  19.206  0.00  0.00    +0.000 HD
ENDBRANCH  12  16
ENDBRANCH   7   8
ENDBRANCH   3   6
ENDBRANCH   1   2
BRANCH   1  18
ATOM     18  C   UNL     1       6.969   5.135  16.102  0.00  0.00    +0.000 C 
ATOM     19  O   UNL     1       7.800   4.345  16.544  0.00  0.00    +0.000 OA
BRANCH  18  21
ATOM     20  C   UNL     1       6.354   4.002  14.142  0.00  0.00    +0.000 C 
ATOM     21  O   UNL     1       6.604   5.248  14.801  0.00  0.00    +0.000 OA
ENDBRANCH  18  21
ENDBRANCH   1  18
BRANCH   1  22
ATOM     22  C   UNL     1       4.644   6.088  16.596  0.00  0.00    +0.000 C 
BRANCH  22  23
ATOM     23  C   UNL     1       3.739   5.239  17.462  0.00  0.00    +0.000 A 
ATOM     24  C   UNL     1       3.062   5.797  18.561  0.00  0.00    +0.000 A 
ATOM     25  C   UNL     1       2.189   5.023  19.334  0.00  0.00    +0.000 A 
ATOM     26  C   UNL     1       2.004   3.684  19.013  0.00  0.00    +0.000 A 
ATOM     27  C   UNL     1       2.709   3.114  17.957  0.00  0.00    +0.000 A 
ATOM     28  C   UNL     1       3.568   3.876  17.180  0.00  0.00    +0.000 A 
BRANCH  26  29
ATOM     29  O   UNL     1       1.140   2.883  19.708  0.00  0.00    +0.000 OA
ATOM     30  H   UNL     1       1.622   2.081  19.971  0.00  0.00    +0.000 HD
ENDBRANCH  26  29
BRANCH  27  31
ATOM     31  O   UNL     1       2.557   1.787  17.674  0.00  0.00    +0.000 OA
ATOM     32  H   UNL     1       1.716   1.740  17.177  0.00  0.00    +0.000 HD
ENDBRANCH  27  31
ENDBRANCH  22  23
ENDBRANCH   1  22
TORSDOF 11
ENDMDL
MODEL 4
REMARK VINA RESULT:      -8.3      0.787      1.557
REMARK  Name = 
REMARK  12 active torsions:
REMARK  status: ('A' for Active; 'I' for Inactive)
REMARK    1  A    between atoms: C_1  and  O_2
REMARK    2  A    between atoms: O_2  and  C_3
REMARK    3  A    between atoms: C_3  and  C_5
REMARK    4  A    between atoms: C_5  and  C_6
REMARK    5  A    between atoms: C_5  and  N_15
REMARK    6  A    between atoms: C_6  and  C_7
REMARK    7  A    between atoms: C_10  and  O_11
REMARK    8  A    between atoms: C_12  and  O_13
REMARK    9  A    between atoms: C_16  and  C_18
REMARK   10  A    between atoms: C_19  and  C_20
REMARK   11  A    between atoms: C_23  and  O_24
REMARK   12  A    between atoms: C_25  and  O_26
REMARK                            x       y       z     vdW  Elec       q    Type
REMARK                         _______ _______ _______ _____ _____    ______ ____
ROOT
ATOM      1  C   UNL     1       6.155   5.543  16.424  0.00  0.00    +0.000 C 
ENDROOT
BRANCH   1   2
ATOM      2  N   UNL     1       6.767   6.868  16.521  0.00  0.00    +0.000 N 
ATOM      3  C   UNL     1       7.476   7.273  17.619  0.00  0.00    +0.000 C 
ATOM      4  O   UNL     1       7.658   6.583  18.611  0.00  0.00    +0.000 OA
ATOM      5  H   UNL     1       6.733   7.442  15.684  0.00  0.00    +0.000 HD
BRANCH   3   6
ATOM      6  C   UNL     1       7.971   8.666  17.503  0.00  0.00    +0.000 C 
ATOM      7  C   UNL     1       8.683   9.205  18.504  0.00  0.00    +0.000 C 
BRANCH   7   8
ATOM      8  C   UNL     1       9.168  10.593  18.522  0.00  0.00    +0.000 A 
ATOM      9  C   UNL     1       8.560  11.611  17.765  0.00  0.00    +0.000 A 
ATOM     10  C   UNL     1       9.015  12.932  17.833  0.00  0.00    +0.000 A 
ATOM     11  C   UNL     1      10.073  13.237  18.675  0.00  0.00    +0.000 A 
ATOM     12  C   UNL     1      10.669  12.244  19.444  0.00  0.00    +0.000 A 
ATOM     13  C   UNL     1      10.224  10.928  19.379  0.00  0.00    +0.000 A 
BRANCH  11  14
ATOM     14  O   UNL     1      10.559  14.512  18.791  0.00  0.00    +0.000 OA
ATOM     15  H   UNL     1      11.491  14.508  18.516  0.00  0.00    +0.000 HD
ENDBRANCH  11  14
BRANCH  12  16
ATOM     16  O   UNL     1      11.702  12.556  20.282  0.00  0.00    +0.000 OA
ATOM     17  H   UNL     1      11.358  13.291  20.830  0.00  0.00    +0.000 HD
ENDBRANCH  12  16
ENDBRANCH   7   8
ENDBRANCH   3   6
ENDBRANCH   1   2
BRANCH   1  18
ATOM     18  C   UNL     1       6.585   4.904  15.087  0.00  0.00    +0.000 C 
ATOM     19  O   UNL     1       5.941   4.026  14.518  0.00  0.00    +0.000 OA
BRANCH  18  21
ATOM     20  C   UNL     1       7.904   5.350  13.200  0.00  0.00    +0.000 C 
ATOM     21  O   UNL     1       7.711   5.489  14.611  0.00  0.00    +0.000 OA
ENDBRANCH  18  21
ENDBRANCH   1  18
BRANCH   1  22
ATOM     22  C   UNL     1       4.620   5.531  16.605  0.00  0.00    +0.000 C 
BRANCH  22  23
ATOM     23  C   UNL     1       4.114   4.829  17.847  0.00  0.00    +0.000 A 
ATOM     24  C   UNL     1       2.911   5.223  18.458  0.00  0.00    +0.000 A 
ATOM     25  C   UNL     1       2.419   4.545  19.580  0.00  0.00    +0.000 A 
ATOM     26  C   UNL     1       3.144   3.480  20.099  0.00  0.00    +0.000 A 
ATOM     27  C   UNL     1       4.360   3.116  19.529  0.00  0.00    +0.000 A 
ATOM     28  C   UNL     1       4.849   3.777  18.411  0.00  0.00    +0.000 A 
BRANCH  26  29
ATOM     29  O   UNL     1       2.702   2.755  21.172  0.00  0.00    +0.000 OA
ATOM     30  H   UNL     1       2.499   1.856  20.863  0.00  0.00    +0.000 HD
ENDBRANCH  26  29
BRANCH  27  31
ATOM     31  O   UNL     1       5.089   2.096  20.070  0.00  0.00    +0.000 OA
ATOM     32  H   UNL     1       5.881   2.534  20.441  0.00  0.00    +0.000 HD
ENDBRANCH  27  31
ENDBRANCH  22  23
ENDBRANCH   1  22
TORSDOF 11
ENDMDL
MODEL 5
REMARK VINA RESULT:      -8.2      1.588      1.828
REMARK  Name = 
REMARK  12 active torsions:
REMARK  status: ('A' for Active; 'I' for Inactive)
REMARK    1  A    between atoms: C_1  and  O_2
REMARK    2  A    between atoms: O_2  and  C_3
REMARK    3  A    between atoms: C_3  and  C_5
REMARK    4  A    between atoms: C_5  and  C_6
REMARK    5  A    between atoms: C_5  and  N_15
REMARK    6  A    between atoms: C_6  and  C_7
REMARK    7  A    between atoms: C_10  and  O_11
REMARK    8  A    between atoms: C_12  and  O_13
REMARK    9  A    between atoms: C_16  and  C_18
REMARK   10  A    between atoms: C_19  and  C_20
REMARK   11  A    between atoms: C_23  and  O_24
REMARK   12  A    between atoms: C_25  and  O_26
REMARK                            x       y       z     vdW  Elec       q    Type
REMARK                         _______ _______ _______ _____ _____    ______ ____
ROOT
ATOM      1  C   UNL     1       5.067   5.958  17.222  0.00  0.00    +0.000 C 
ENDROOT
BRANCH   1   2
ATOM      2  N   UNL     1       6.055   6.930  17.689  0.00  0.00    +0.000 N 
ATOM      3  C   UNL     1       7.385   6.633  17.800  0.00  0.00    +0.000 C 
ATOM      4  O   UNL     1       7.869   5.543  17.534  0.00  0.00    +0.000 OA
ATOM      5  H   UNL     1       5.721   7.880  17.825  0.00  0.00    +0.000 HD
BRANCH   3   6
ATOM      6  C   UNL     1       8.186   7.765  18.326  0.00  0.00    +0.000 C 
ATOM      7  C   UNL     1       7.910   9.016  17.931  0.00  0.00    +0.000 C 
BRANCH   7   8
ATOM      8  C   UNL     1       8.676  10.203  18.338  0.00  0.00    +0.000 A 
ATOM      9  C   UNL     1       9.574  10.182  19.421  0.00  0.00    +0.000 A 
ATOM     10  C   UNL     1      10.323  11.312  19.762  0.00  0.00    +0.000 A 
ATOM     11  C   UNL     1      10.183  12.465  19.004  0.00  0.00    +0.000 A 
ATOM     12  C   UNL     1       9.315  12.493  17.919  0.00  0.00    +0.000 A 
ATOM     13  C   UNL     1       8.565  11.374  17.577  0.00  0.00    +0.000 A 
BRANCH  11  14
ATOM     14  O   UNL     1      10.894  13.602  19.283  0.00  0.00    +0.000 OA
ATOM     15  H   UNL     1      11.717  13.581  18.766  0.00  0.00    +0.000 HD
ENDBRANCH  11  14
BRANCH  12  16
ATOM     16  O   UNL     1       9.194  13.629  17.170  0.00  0.00    +0.000 OA
ATOM     17  H   UNL     1       8.923  14.317  17.812  0.00  0.00    +0.000 HD
ENDBRANCH  12  16
ENDBRANCH   7   8
ENDBRANCH   3   6
ENDBRANCH   1   2
BRANCH   1  18
ATOM     18  C   UNL     1       5.304   5.703  15.719  0.00  0.00    +0.000 C 
ATOM     19  O   UNL     1       5.400   6.600  14.886  0.00  0.00    +0.000 OA
BRANCH  18  21
ATOM     20  C   UNL     1       5.718   4.055  14.103  0.00  0.00    +0.000 C 
ATOM     21  O   UNL     1       5.457   4.378  15.472  0.00  0.00    +0.000 OA
ENDBRANCH  18  21
ENDBRANCH   1  18
BRANCH   1  22
ATOM     22  C   UNL     1       3.599   6.341  17.520  0.00  0.00    +0.000 C 
BRANCH  22  23
ATOM     23  C   UNL     1       2.862   5.417  18.466  0.00  0.00    +0.000 A 
ATOM     24  C   UNL     1       2.925   5.610  19.857  0.00  0.00    +0.000 A 
ATOM     25  C   UNL     1       2.207   4.784  20.730  0.00  0.00    +0.000 A 
ATOM     26  C   UNL     1       1.435   3.755  20.207  0.00  0.00    +0.000 A 
ATOM     27  C   UNL     1       1.406   3.528  18.834  0.00  0.00    +0.000 A 
ATOM     28  C   UNL     1       2.108   4.347  17.962  0.00  0.00    +0.000 A 
BRANCH  26  29
ATOM     29  O   UNL     1       0.684   2.934  21.003  0.00  0.00    +0.000 OA
ATOM     30  H   UNL     1      -0.203   2.865  20.609  0.00  0.00    +0.000 HD
ENDBRANCH  26  29
BRANCH  27  31
ATOM     31  O   UNL     1       0.680   2.487  18.329  0.00  0.00    +0.000 OA
ATOM     32  H   UNL     1       1.273   2.076  17.668  0.00  0.00    +0.000 HD
ENDBRANCH  27  31
ENDBRANCH  22  23
ENDBRANCH   1  22
TORSDOF 11
ENDMDL
MODEL 6
REMARK VINA RESULT:      -8.2      1.421      1.652
REMARK  Name = 
REMARK  12 active torsions:
REMARK  status: ('A' for Active; 'I' for Inactive)
REMARK    1  A    between atoms: C_1  and  O_2
REMARK    2  A    between atoms: O_2  and  C_3
REMARK    3  A    between atoms: C_3  and  C_5
REMARK    4  A    between atoms: C_5  and  C_6
REMARK    5  A    between atoms: C_5  and  N_15
REMARK    6  A    between atoms: C_6  and  C_7
REMARK    7  A    between atoms: C_10  and  O_11
REMARK    8  A    between atoms: C_12  and  O_13
REMARK    9  A    between atoms: C_16  and  C_18
REMARK   10  A    between atoms: C_19  and  C_20
REMARK   11  A    between atoms: C_23  and  O_24
REMARK   12  A    between atoms: C_25  and  O_26
REMARK                            x       y       z     vdW  Elec       q    Type
REMARK                         _______ _______ _______ _____ _____    ______ ____
ROOT
ATOM      1  C   UNL     1       5.807   6.220  17.315  0.00  0.00    +0.000 C 
ENDROOT
BRANCH   1   2
ATOM      2  N   UNL     1       6.652   7.413  17.329  0.00  0.00    +0.000 N 
ATOM      3  C   UNL     1       7.776   7.510  18.102  0.00  0.00    +0.000 C 
ATOM      4  O   UNL     1       8.173   6.629  18.850  0.00  0.00    +0.000 OA
ATOM      5  H   UNL     1       6.424   8.134  16.650  0.00  0.00    +0.000 HD
BRANCH   3   6
ATOM      6  C   UNL     1       8.450   8.825  17.975  0.00  0.00    +0.000 C 
ATOM      7  C   UNL     1       8.942   9.429  19.067  0.00  0.00    +0.000 C 
BRANCH   7   8
ATOM      8  C   UNL     1       9.572  10.758  19.067  0.00  0.00    +0.000 A 
ATOM      9  C   UNL     1      10.334  11.227  20.152  0.00  0.00    +0.000 A 
ATOM     10  C   UNL     1      10.959  12.478  20.110  0.00  0.00    +0.000 A 
ATOM     11  C   UNL     1      10.831  13.255  18.969  0.00  0.00    +0.000 A 
ATOM     12  C   UNL     1      10.097  12.794  17.882  0.00  0.00    +0.000 A 
ATOM     13  C   UNL     1       9.471  11.553  17.918  0.00  0.00    +0.000 A 
BRANCH  11  14
ATOM     14  O   UNL     1      11.424  14.485  18.863  0.00  0.00    +0.000 OA
ATOM     15  H   UNL     1      12.365  14.389  19.087  0.00  0.00    +0.000 HD
ENDBRANCH  11  14
BRANCH  12  16
ATOM     16  O   UNL     1       9.989  13.561  16.756  0.00  0.00    +0.000 OA
ATOM     17  H   UNL     1      10.713  14.215  16.836  0.00  0.00    +0.000 HD
ENDBRANCH  12  16
ENDBRANCH   7   8
ENDBRANCH   3   6
ENDBRANCH   1   2
BRANCH   1  18
ATOM     18  C   UNL     1       6.379   5.227  16.282  0.00  0.00    +0.000 C 
ATOM     19  O   UNL     1       6.390   4.010  16.444  0.00  0.00    +0.000 OA
BRANCH  18  21
ATOM     20  C   UNL     1       7.042   5.028  14.041  0.00  0.00    +0.000 C 
ATOM     21  O   UNL     1       6.794   5.877  15.166  0.00  0.00    +0.000 OA
ENDBRANCH  18  21
ENDBRANCH   1  18
BRANCH   1  22
ATOM     22  C   UNL     1       4.305   6.500  17.078  0.00  0.00    +0.000 C 
BRANCH  22  23
ATOM     23  C   UNL     1       3.350   5.756  17.987  0.00  0.00    +0.000 A 
ATOM     24  C   UNL     1       3.014   6.268  19.253  0.00  0.00    +0.000 A 
ATOM     25  C   UNL     1       2.096   5.605  20.075  0.00  0.00    +0.000 A 
ATOM     26  C   UNL     1       1.525   4.418  19.633  0.00  0.00    +0.000 A 
ATOM     27  C   UNL     1       1.890   3.880  18.403  0.00  0.00    +0.000 A 
ATOM     28  C   UNL     1       2.792   4.537  17.578  0.00  0.00    +0.000 A 
BRANCH  26  29
ATOM     29  O   UNL     1       0.597   3.739  20.374  0.00  0.00    +0.000 OA
ATOM     30  H   UNL     1       0.432   4.247  21.186  0.00  0.00    +0.000 HD
ENDBRANCH  26  29
BRANCH  27  31
ATOM     31  O   UNL     1       1.359   2.691  17.993  0.00  0.00    +0.000 OA
ATOM     32  H   UNL     1       2.124   2.189  17.648  0.00  0.00    +0.000 HD
ENDBRANCH  27  31
ENDBRANCH  22  23
ENDBRANCH   1  22
TORSDOF 11
ENDMDL
MODEL 7
REMARK VINA RESULT:      -8.2      1.746      2.079
REMARK  Name = 
REMARK  12 active torsions:
REMARK  status: ('A' for Active; 'I' for Inactive)
REMARK    1  A    between atoms: C_1  and  O_2
REMARK    2  A    between atoms: O_2  and  C_3
REMARK    3  A    between atoms: C_3  and  C_5
REMARK    4  A    between atoms: C_5  and  C_6
REMARK    5  A    between atoms: C_5  and  N_15
REMARK    6  A    between atoms: C_6  and  C_7
REMARK    7  A    between atoms: C_10  and  O_11
REMARK    8  A    between atoms: C_12  and  O_13
REMARK    9  A    between atoms: C_16  and  C_18
REMARK   10  A    between atoms: C_19  and  C_20
REMARK   11  A    between atoms: C_23  and  O_24
REMARK   12  A    between atoms: C_25  and  O_26
REMARK                            x       y       z     vdW  Elec       q    Type
REMARK                         _______ _______ _______ _____ _____    ______ ____
ROOT
ATOM      1  C   UNL     1       6.183   5.187  18.047  0.00  0.00    +0.000 C 
ENDROOT
BRANCH   1   2
ATOM      2  N   UNL     1       7.077   6.251  18.503  0.00  0.00    +0.000 N 
ATOM      3  C   UNL     1       7.381   7.338  17.732  0.00  0.00    +0.000 C 
ATOM      4  O   UNL     1       6.951   7.520  16.602  0.00  0.00    +0.000 OA
ATOM      5  H   UNL     1       7.380   6.199  19.472  0.00  0.00    +0.000 HD
BRANCH   3   6
ATOM      6  C   UNL     1       8.332   8.265  18.392  0.00  0.00    +0.000 C 
ATOM      7  C   UNL     1       8.349   9.560  18.046  0.00  0.00    +0.000 C 
BRANCH   7   8
ATOM      8  C   UNL     1       9.290  10.552  18.589  0.00  0.00    +0.000 A 
ATOM      9  C   UNL     1      10.151  11.299  17.765  0.00  0.00    +0.000 A 
ATOM     10  C   UNL     1      11.007  12.266  18.302  0.00  0.00    +0.000 A 
ATOM     11  C   UNL     1      10.986  12.497  19.669  0.00  0.00    +0.000 A 
ATOM     12  C   UNL     1      10.125  11.780  20.491  0.00  0.00    +0.000 A 
ATOM     13  C   UNL     1       9.275  10.814  19.964  0.00  0.00    +0.000 A 
BRANCH  11  14
ATOM     14  O   UNL     1      11.794  13.436  20.254  0.00  0.00    +0.000 OA
ATOM     15  H   UNL     1      11.623  14.292  19.829  0.00  0.00    +0.000 HD
ENDBRANCH  11  14
BRANCH  12  16
ATOM     16  O   UNL     1      10.103  12.024  21.836  0.00  0.00    +0.000 OA
ATOM     17  H   UNL     1      10.679  11.332  22.219  0.00  0.00    +0.000 HD
ENDBRANCH  12  16
ENDBRANCH   7   8
ENDBRANCH   3   6
ENDBRANCH   1   2
BRANCH   1  18
ATOM     18  C   UNL     1       6.789   4.549  16.779  0.00  0.00    +0.000 C 
ATOM     19  O   UNL     1       7.917   4.063  16.737  0.00  0.00    +0.000 OA
BRANCH  18  21
ATOM     20  C   UNL     1       6.354   3.919  14.563  0.00  0.00    +0.000 C 
ATOM     21  O   UNL     1       5.889   4.541  15.765  0.00  0.00    +0.000 OA
ENDBRANCH  18  21
ENDBRANCH   1  18
BRANCH   1  22
ATOM     22  C   UNL     1       4.718   5.630  17.828  0.00  0.00    +0.000 C 
BRANCH  22  23
ATOM     23  C   UNL     1       3.689   4.929  18.689  0.00  0.00    +0.000 A 
ATOM     24  C   UNL     1       3.100   5.584  19.785  0.00  0.00    +0.000 A 
ATOM     25  C   UNL     1       2.115   4.953  20.554  0.00  0.00    +0.000 A 
ATOM     26  C   UNL     1       1.729   3.659  20.230  0.00  0.00    +0.000 A 
ATOM     27  C   UNL     1       2.342   2.987  19.177  0.00  0.00    +0.000 A 
ATOM     28  C   UNL     1       3.313   3.609  18.405  0.00  0.00    +0.000 A 
BRANCH  26  29
ATOM     29  O   UNL     1       0.749   2.999  20.920  0.00  0.00    +0.000 OA
ATOM     30  H   UNL     1       0.630   2.126  20.510  0.00  0.00    +0.000 HD
ENDBRANCH  26  29
BRANCH  27  31
ATOM     31  O   UNL     1       1.990   1.699  18.891  0.00  0.00    +0.000 OA
ATOM     32  H   UNL     1       1.119   1.777  18.453  0.00  0.00    +0.000 HD
ENDBRANCH  27  31
ENDBRANCH  22  23
ENDBRANCH   1  22
TORSDOF 11
ENDMDL
MODEL 8
REMARK VINA RESULT:      -8.2      1.969      2.275
REMARK  Name = 
REMARK  12 active torsions:
REMARK  status: ('A' for Active; 'I' for Inactive)
REMARK    1  A    between atoms: C_1  and  O_2
REMARK    2  A    between atoms: O_2  and  C_3
REMARK    3  A    between atoms: C_3  and  C_5
REMARK    4  A    between atoms: C_5  and  C_6
REMARK    5  A    between atoms: C_5  and  N_15
REMARK    6  A    between atoms: C_6  and  C_7
REMARK    7  A    between atoms: C_10  and  O_11
REMARK    8  A    between atoms: C_12  and  O_13
REMARK    9  A    between atoms: C_16  and  C_18
REMARK   10  A    between atoms: C_19  and  C_20
REMARK   11  A    between atoms: C_23  and  O_24
REMARK   12  A    between atoms: C_25  and  O_26
REMARK                            x       y       z     vdW  Elec       q    Type
REMARK                         _______ _______ _______ _____ _____    ______ ____
ROOT
ATOM      1  C   UNL     1       6.070   5.690  17.224  0.00  0.00    +0.000 C 
ENDROOT
BRANCH   1   2
ATOM      2  N   UNL     1       6.757   6.966  17.026  0.00  0.00    +0.000 N 
ATOM      3  C   UNL     1       7.732   7.416  17.873  0.00  0.00    +0.000 C 
ATOM      4  O   UNL     1       8.110   6.813  18.867  0.00  0.00    +0.000 OA
ATOM      5  H   UNL     1       6.553   7.457  16.160  0.00  0.00    +0.000 HD
BRANCH   3   6
ATOM      6  C   UNL     1       8.259   8.748  17.488  0.00  0.00    +0.000 C 
ATOM      7  C   UNL     1       8.696   9.591  18.436  0.00  0.00    +0.000 C 
BRANCH   7   8
ATOM      8  C   UNL     1       9.179  10.954  18.174  0.00  0.00    +0.000 A 
ATOM      9  C   UNL     1      10.548  11.279  18.176  0.00  0.00    +0.000 A 
ATOM     10  C   UNL     1      10.985  12.575  17.882  0.00  0.00    +0.000 A 
ATOM     11  C   UNL     1      10.046  13.546  17.568  0.00  0.00    +0.000 A 
ATOM     12  C   UNL     1       8.692  13.232  17.543  0.00  0.00    +0.000 A 
ATOM     13  C   UNL     1       8.251  11.947  17.837  0.00  0.00    +0.000 A 
BRANCH  11  14
ATOM     14  O   UNL     1      10.410  14.830  17.264  0.00  0.00    +0.000 OA
ATOM     15  H   UNL     1      10.751  15.249  18.072  0.00  0.00    +0.000 HD
ENDBRANCH  11  14
BRANCH  12  16
ATOM     16  O   UNL     1       7.775  14.193  17.219  0.00  0.00    +0.000 OA
ATOM     17  H   UNL     1       7.539  14.603  18.076  0.00  0.00    +0.000 HD
ENDBRANCH  12  16
ENDBRANCH   7   8
ENDBRANCH   3   6
ENDBRANCH   1   2
BRANCH   1  18
ATOM     18  C   UNL     1       6.825   4.599  16.438  0.00  0.00    +0.000 C 
ATOM     19  O   UNL     1       8.018   4.353  16.596  0.00  0.00    +0.000 OA
BRANCH  18  21
ATOM     20  C   UNL     1       6.292   4.030  14.226  0.00  0.00    +0.000 C 
ATOM     21  O   UNL     1       5.983   3.923  15.619  0.00  0.00    +0.000 OA
ENDBRANCH  18  21
ENDBRANCH   1  18
BRANCH   1  22
ATOM     22  C   UNL     1       4.562   5.714  16.879  0.00  0.00    +0.000 C 
BRANCH  22  23
ATOM     23  C   UNL     1       3.666   6.364  17.911  0.00  0.00    +0.000 A 
ATOM     24  C   UNL     1       3.115   7.638  17.687  0.00  0.00    +0.000 A 
ATOM     25  C   UNL     1       2.250   8.221  18.620  0.00  0.00    +0.000 A 
ATOM     26  C   UNL     1       1.947   7.530  19.787  0.00  0.00    +0.000 A 
ATOM     27  C   UNL     1       2.528   6.291  20.038  0.00  0.00    +0.000 A 
ATOM     28  C   UNL     1       3.379   5.703  19.114  0.00  0.00    +0.000 A 
BRANCH  26  29
ATOM     29  O   UNL     1       1.083   8.029  20.722  0.00  0.00    +0.000 OA
ATOM     30  H   UNL     1       1.047   8.994  20.612  0.00  0.00    +0.000 HD
ENDBRANCH  26  29
BRANCH  27  31
ATOM     31  O   UNL     1       2.261   5.636  21.206  0.00  0.00    +0.000 OA
ATOM     32  H   UNL     1       2.475   4.701  21.014  0.00  0.00    +0.000 HD
ENDBRANCH  27  31
ENDBRANCH  22  23
ENDBRANCH   1  22
TORSDOF 11
ENDMDL
MODEL 9
REMARK VINA RESULT:      -8.2      1.272      1.481
REMARK  Name = 
REMARK  12 active torsions:
REMARK  status: ('A' for Active; 'I' for Inactive)
REMARK    1  A    between atoms: C_1  and  O_2
REMARK    2  A    between atoms: O_2  and  C_3
REMARK    3  A    between atoms: C_3  and  C_5
REMARK    4  A    between atoms: C_5  and  C_6
REMARK    5  A    between atoms: C_5  and  N_15
REMARK    6  A    between atoms: C_6  and  C_7
REMARK    7  A    between atoms: C_10  and  O_11
REMARK    8  A    between atoms: C_12  and  O_13
REMARK    9  A    between atoms: C_16  and  C_18
REMARK   10  A    between atoms: C_19  and  C_20
REMARK   11  A    between atoms: C_23  and  O_24
REMARK   12  A    between atoms: C_25  and  O_26
REMARK                            x       y       z     vdW  Elec       q    Type
REMARK                         _______ _______ _______ _____ _____    ______ ____
ROOT
ATOM      1  C   UNL     1       6.411   6.197  16.803  0.00  0.00    +0.000 C 
ENDROOT
BRANCH   1   2
ATOM      2  N   UNL     1       7.010   7.528  16.908  0.00  0.00    +0.000 N 
ATOM      3  C   UNL     1       7.888   7.863  17.901  0.00  0.00    +0.000 C 
ATOM      4  O   UNL     1       8.246   7.102  18.788  0.00  0.00    +0.000 OA
ATOM      5  H   UNL     1       6.826   8.166  16.139  0.00  0.00    +0.000 HD
BRANCH   3   6
ATOM      6  C   UNL     1       8.335   9.275  17.822  0.00  0.00    +0.000 C 
ATOM      7  C   UNL     1       9.044   9.807  18.828  0.00  0.00    +0.000 C 
BRANCH   7   8
ATOM      8  C   UNL     1       9.484  11.209  18.882  0.00  0.00    +0.000 A 
ATOM      9  C   UNL     1      10.589  11.620  19.650  0.00  0.00    +0.000 A 
ATOM     10  C   UNL     1      11.013  12.953  19.651  0.00  0.00    +0.000 A 
ATOM     11  C   UNL     1      10.336  13.875  18.866  0.00  0.00    +0.000 A 
ATOM     12  C   UNL     1       9.255  13.477  18.088  0.00  0.00    +0.000 A 
ATOM     13  C   UNL     1       8.826  12.155  18.084  0.00  0.00    +0.000 A 
BRANCH  11  14
ATOM     14  O   UNL     1      10.707  15.192  18.819  0.00  0.00    +0.000 OA
ATOM     15  H   UNL     1      10.418  15.619  19.642  0.00  0.00    +0.000 HD
ENDBRANCH  11  14
BRANCH  12  16
ATOM     16  O   UNL     1       8.603  14.390  17.307  0.00  0.00    +0.000 OA
ATOM     17  H   UNL     1       8.128  14.961  17.945  0.00  0.00    +0.000 HD
ENDBRANCH  12  16
ENDBRANCH   7   8
ENDBRANCH   3   6
ENDBRANCH   1   2
BRANCH   1  18
ATOM     18  C   UNL     1       7.285   5.340  15.865  0.00  0.00    +0.000 C 
ATOM     19  O   UNL     1       7.520   5.638  14.696  0.00  0.00    +0.000 OA
BRANCH  18  21
ATOM     20  C   UNL     1       7.649   4.323  17.947  0.00  0.00    +0.000 C 
ATOM     21  O   UNL     1       7.800   4.273  16.525  0.00  0.00    +0.000 OA
ENDBRANCH  18  21
ENDBRANCH   1  18
BRANCH   1  22
ATOM     22  C   UNL     1       4.925   6.195  16.374  0.00  0.00    +0.000 C 
BRANCH  22  23
ATOM     23  C   UNL     1       3.991   5.398  17.260  0.00  0.00    +0.000 A 
ATOM     24  C   UNL     1       3.295   6.017  18.313  0.00  0.00    +0.000 A 
ATOM     25  C   UNL     1       2.396   5.291  19.104  0.00  0.00    +0.000 A 
ATOM     26  C   UNL     1       2.206   3.940  18.846  0.00  0.00    +0.000 A 
ATOM     27  C   UNL     1       2.928   3.310  17.837  0.00  0.00    +0.000 A 
ATOM     28  C   UNL     1       3.814   4.024  17.043  0.00  0.00    +0.000 A 
BRANCH  26  29
ATOM     29  O   UNL     1       1.318   3.182  19.560  0.00  0.00    +0.000 OA
ATOM     30  H   UNL     1       1.771   2.863  20.359  0.00  0.00    +0.000 HD
ENDBRANCH  26  29
BRANCH  27  31
ATOM     31  O   UNL     1       2.770   1.972  17.617  0.00  0.00    +0.000 OA
ATOM     32  H   UNL     1       2.374   1.918  16.724  0.00  0.00    +0.000 HD
ENDBRANCH  27  31
ENDBRANCH  22  23
ENDBRANCH   1  22
TORSDOF 11
ENDMDL
