MODEL 1
REMARK VINA RESULT:      -7.2      0.000      0.000
REMARK  Name = 
REMARK  6 active torsions:
REMARK  status: ('A' for Active; 'I' for Inactive)
REMARK    1  A    between atoms: C_1  and  C_2
REMARK    2  A    between atoms: C_2  and  N_3
REMARK    3  A    between atoms: C_6  and  N_7
REMARK    4  A    between atoms: C_8  and  C_10
REMARK    5  A    between atoms: C_10  and  N_11
REMARK    6  A    between atoms: C_13  and  C_14
REMARK                            x       y       z     vdW  Elec       q    Type
REMARK                         _______ _______ _______ _____ _____    ______ ____
ROOT
ATOM      1  N   UNL     1       1.235   9.111  19.226  0.00  0.00    +0.000 N 
ATOM      2  C   UNL     1       2.136   8.208  18.697  0.00  0.00    +0.000 C 
ATOM      3  O   UNL     1       2.584   8.295  17.554  0.00  0.00    +0.000 OA
ATOM      4  H   UNL     1       0.774   8.871  20.096  0.00  0.00    +0.000 HD
ENDROOT
BRANCH   1   8
ATOM      5  N   UNL     1      -0.240  12.185  20.445  0.00  0.00    +0.000 NA
ATOM      6  C   UNL     1       1.195  11.995  20.165  0.00  0.00    +0.000 C 
ATOM      7  C   UNL     1       1.445  11.539  18.731  0.00  0.00    +0.000 C 
ATOM      8  C   UNL     1       0.706  10.229  18.444  0.00  0.00    +0.000 C 
ATOM      9  C   UNL     1      -0.781  10.451  18.721  0.00  0.00    +0.000 C 
ATOM     10  C   UNL     1      -1.025  10.980  20.138  0.00  0.00    +0.000 C 
BRANCH   5  12
ATOM     11  C   UNL     1      -0.987  11.548  22.767  0.00  0.00    +0.000 C 
ATOM     12  C   UNL     1      -0.399  12.614  21.847  0.00  0.00    +0.000 C 
ENDBRANCH   5  12
ENDBRANCH   1   8
BRANCH   2  13
ATOM     13  C   UNL     1       2.559   7.098  19.636  0.00  0.00    +0.000 C 
BRANCH  13  14
ATOM     14  N   UNL     1       2.909   5.896  18.902  0.00  0.00    +0.000 N 
ATOM     15  C   UNL     1       3.925   5.840  17.982  0.00  0.00    +0.000 A 
ATOM     16  C   UNL     1       3.903   4.599  17.382  0.00  0.00    +0.000 A 
ATOM     17  C   UNL     1       4.779   4.141  16.274  0.00  0.00    +0.000 C 
ATOM     18  C   UNL     1       2.868   3.849  18.024  0.00  0.00    +0.000 A 
ATOM     19  C   UNL     1       2.385   2.536  17.864  0.00  0.00    +0.000 A 
ATOM     20  C   UNL     1       1.332   2.082  18.663  0.00  0.00    +0.000 A 
ATOM     21  C   UNL     1       0.762   2.915  19.619  0.00  0.00    +0.000 A 
ATOM     22  C   UNL     1       1.217   4.224  19.795  0.00  0.00    +0.000 A 
ATOM     23  C   UNL     1       2.271   4.677  18.982  0.00  0.00    +0.000 A 
ENDBRANCH  13  14
ENDBRANCH   2  13
TORSDOF 4
ENDMDL
MODEL 2
REMARK VINA RESULT:      -7.1      0.805      2.618
REMARK  Name = 
REMARK  6 active torsions:
REMARK  status: ('A' for Active; 'I' for Inactive)
REMARK    1  A    between atoms: C_1  and  C_2
REMARK    2  A    between atoms: C_2  and  N_3
REMARK    3  A    between atoms: C_6  and  N_7
REMARK    4  A    between atoms: C_8  and  C_10
REMARK    5  A    between atoms: C_10  and  N_11
REMARK    6  A    between atoms: C_13  and  C_14
REMARK                            x       y       z     vdW  Elec       q    Type
REMARK                         _______ _______ _______ _____ _____    ______ ____
ROOT
ATOM      1  N   UNL     1       1.402   9.219  19.133  0.00  0.00    +0.000 N 
ATOM      2  C   UNL     1       2.148   8.287  18.439  0.00  0.00    +0.000 C 
ATOM      3  O   UNL     1       2.329   8.341  17.223  0.00  0.00    +0.000 OA
ATOM      4  H   UNL     1       1.145   9.007  20.091  0.00  0.00    +0.000 HD
ENDROOT
BRANCH   1   8
ATOM      5  N   UNL     1      -0.284  12.046  20.642  0.00  0.00    +0.000 NA
ATOM      6  C   UNL     1       1.144  12.017  20.277  0.00  0.00    +0.000 C 
ATOM      7  C   UNL     1       1.353  11.683  18.804  0.00  0.00    +0.000 C 
ATOM      8  C   UNL     1       0.726  10.330  18.461  0.00  0.00    +0.000 C 
ATOM      9  C   UNL     1      -0.757  10.385  18.829  0.00  0.00    +0.000 C 
ATOM     10  C   UNL     1      -0.968  10.793  20.290  0.00  0.00    +0.000 C 
BRANCH   5  12
ATOM     11  C   UNL     1      -1.181  11.331  22.887  0.00  0.00    +0.000 C 
ATOM     12  C   UNL     1      -0.402  12.363  22.078  0.00  0.00    +0.000 C 
ENDBRANCH   5  12
ENDBRANCH   1   8
BRANCH   2  13
ATOM     13  C   UNL     1       2.757   7.191  19.288  0.00  0.00    +0.000 C 
BRANCH  13  14
ATOM     14  N   UNL     1       3.019   6.002  18.498  0.00  0.00    +0.000 N 
ATOM     15  C   UNL     1       2.196   4.905  18.484  0.00  0.00    +0.000 A 
ATOM     16  C   UNL     1       2.799   3.915  17.739  0.00  0.00    +0.000 A 
ATOM     17  C   UNL     1       2.290   2.536  17.530  0.00  0.00    +0.000 C 
ATOM     18  C   UNL     1       4.012   4.471  17.221  0.00  0.00    +0.000 A 
ATOM     19  C   UNL     1       5.030   3.962  16.392  0.00  0.00    +0.000 A 
ATOM     20  C   UNL     1       6.118   4.772  16.053  0.00  0.00    +0.000 A 
ATOM     21  C   UNL     1       6.199   6.077  16.525  0.00  0.00    +0.000 A 
ATOM     22  C   UNL     1       5.206   6.606  17.354  0.00  0.00    +0.000 A 
ATOM     23  C   UNL     1       4.119   5.783  17.697  0.00  0.00    +0.000 A 
ENDBRANCH  13  14
ENDBRANCH   2  13
TORSDOF 4
ENDMDL
MODEL 3
REMARK VINA RESULT:      -6.9      1.718      7.765
REMARK  Name = 
REMARK  6 active torsions:
REMARK  status: ('A' for Active; 'I' for Inactive)
REMARK    1  A    between atoms: C_1  and  C_2
REMARK    2  A    between atoms: C_2  and  N_3
REMARK    3  A    between atoms: C_6  and  N_7
REMARK    4  A    between atoms: C_8  and  C_10
REMARK    5  A    between atoms: C_10  and  N_11
REMARK    6  A    between atoms: C_13  and  C_14
REMARK                            x       y       z     vdW  Elec       q    Type
REMARK                         _______ _______ _______ _____ _____    ______ ____
ROOT
ATOM      1  N   UNL     1       2.453   6.954  18.184  0.00  0.00    +0.000 N 
ATOM      2  C   UNL     1       2.001   8.096  18.815  0.00  0.00    +0.000 C 
ATOM      3  O   UNL     1       1.706   8.133  20.010  0.00  0.00    +0.000 OA
ATOM      4  H   UNL     1       2.496   6.953  17.171  0.00  0.00    +0.000 HD
ENDROOT
BRANCH   1   8
ATOM      5  N   UNL     1       4.962   4.384  17.720  0.00  0.00    +0.000 NA
ATOM      6  C   UNL     1       5.073   5.505  18.671  0.00  0.00    +0.000 C 
ATOM      7  C   UNL     1       3.900   5.553  19.643  0.00  0.00    +0.000 C 
ATOM      8  C   UNL     1       2.575   5.675  18.886  0.00  0.00    +0.000 C 
ATOM      9  C   UNL     1       2.468   4.495  17.919  0.00  0.00    +0.000 C 
ATOM     10  C   UNL     1       3.684   4.405  16.993  0.00  0.00    +0.000 C 
BRANCH   5  12
ATOM     11  C   UNL     1       7.456   4.681  17.503  0.00  0.00    +0.000 C 
ATOM     12  C   UNL     1       6.123   4.413  16.811  0.00  0.00    +0.000 C 
ENDBRANCH   5  12
ENDBRANCH   1   8
BRANCH   2  13
ATOM     13  C   UNL     1       1.913   9.324  17.934  0.00  0.00    +0.000 C 
BRANCH  13  14
ATOM     14  N   UNL     1       0.986  10.296  18.483  0.00  0.00    +0.000 N 
ATOM     15  C   UNL     1       1.345  11.252  19.398  0.00  0.00    +0.000 A 
ATOM     16  C   UNL     1       0.210  11.919  19.803  0.00  0.00    +0.000 A 
ATOM     17  C   UNL     1       0.133  12.978  20.841  0.00  0.00    +0.000 C 
ATOM     18  C   UNL     1      -0.876  11.385  19.040  0.00  0.00    +0.000 A 
ATOM     19  C   UNL     1      -2.255  11.667  18.993  0.00  0.00    +0.000 A 
ATOM     20  C   UNL     1      -3.080  10.954  18.119  0.00  0.00    +0.000 A 
ATOM     21  C   UNL     1      -2.548   9.971  17.293  0.00  0.00    +0.000 A 
ATOM     22  C   UNL     1      -1.185   9.665  17.322  0.00  0.00    +0.000 A 
ATOM     23  C   UNL     1      -0.362  10.382  18.210  0.00  0.00    +0.000 A 
ENDBRANCH  13  14
ENDBRANCH   2  13
TORSDOF 4
ENDMDL
MODEL 4
REMARK VINA RESULT:      -6.8      3.796      6.956
REMARK  Name = 
REMARK  6 active torsions:
REMARK  status: ('A' for Active; 'I' for Inactive)
REMARK    1  A    between atoms: C_1  and  C_2
REMARK    2  A    between atoms: C_2  and  N_3
REMARK    3  A    between atoms: C_6  and  N_7
REMARK    4  A    between atoms: C_8  and  C_10
REMARK    5  A    between atoms: C_10  and  N_11
REMARK    6  A    between atoms: C_13  and  C_14
REMARK                            x       y       z     vdW  Elec       q    Type
REMARK                         _______ _______ _______ _____ _____    ______ ____
ROOT
ATOM      1  N   UNL     1       5.139   4.375  16.857  0.00  0.00    +0.000 N 
ATOM      2  C   UNL     1       4.292   3.289  16.961  0.00  0.00    +0.000 C 
ATOM      3  O   UNL     1       4.689   2.125  16.980  0.00  0.00    +0.000 OA
ATOM      4  H   UNL     1       4.732   5.282  16.661  0.00  0.00    +0.000 HD
ENDROOT
BRANCH   1   8
ATOM      5  N   UNL     1       7.696   6.924  17.139  0.00  0.00    +0.000 NA
ATOM      6  C   UNL     1       7.196   6.108  18.260  0.00  0.00    +0.000 C 
ATOM      7  C   UNL     1       7.340   4.614  17.992  0.00  0.00    +0.000 C 
ATOM      8  C   UNL     1       6.589   4.219  16.717  0.00  0.00    +0.000 C 
ATOM      9  C   UNL     1       7.132   5.061  15.563  0.00  0.00    +0.000 C 
ATOM     10  C   UNL     1       7.056   6.560  15.866  0.00  0.00    +0.000 C 
BRANCH   5  12
ATOM     11  C   UNL     1       8.551   8.908  18.438  0.00  0.00    +0.000 C 
ATOM     12  C   UNL     1       7.514   8.350  17.469  0.00  0.00    +0.000 C 
ENDBRANCH   5  12
ENDBRANCH   1   8
BRANCH   2  13
ATOM     13  C   UNL     1       2.822   3.632  17.072  0.00  0.00    +0.000 C 
BRANCH  13  14
ATOM     14  N   UNL     1       2.461   3.951  18.441  0.00  0.00    +0.000 N 
ATOM     15  C   UNL     1       2.207   3.002  19.398  0.00  0.00    +0.000 A 
ATOM     16  C   UNL     1       1.772   3.637  20.541  0.00  0.00    +0.000 A 
ATOM     17  C   UNL     1       1.313   2.984  21.793  0.00  0.00    +0.000 C 
ATOM     18  C   UNL     1       1.837   5.042  20.280  0.00  0.00    +0.000 A 
ATOM     19  C   UNL     1       1.543   6.183  21.052  0.00  0.00    +0.000 A 
ATOM     20  C   UNL     1       1.712   7.456  20.502  0.00  0.00    +0.000 A 
ATOM     21  C   UNL     1       2.173   7.605  19.198  0.00  0.00    +0.000 A 
ATOM     22  C   UNL     1       2.466   6.492  18.407  0.00  0.00    +0.000 A 
ATOM     23  C   UNL     1       2.286   5.214  18.965  0.00  0.00    +0.000 A 
ENDBRANCH  13  14
ENDBRANCH   2  13
TORSDOF 4
ENDMDL
MODEL 5
REMARK VINA RESULT:      -6.8      2.062      7.963
REMARK  Name = 
REMARK  6 active torsions:
REMARK  status: ('A' for Active; 'I' for Inactive)
REMARK    1  A    between atoms: C_1  and  C_2
REMARK    2  A    between atoms: C_2  and  N_3
REMARK    3  A    between atoms: C_6  and  N_7
REMARK    4  A    between atoms: C_8  and  C_10
REMARK    5  A    between atoms: C_10  and  N_11
REMARK    6  A    between atoms: C_13  and  C_14
REMARK                            x       y       z     vdW  Elec       q    Type
REMARK                         _______ _______ _______ _____ _____    ______ ____
ROOT
ATOM      1  N   UNL     1       3.772   6.319  18.718  0.00  0.00    +0.000 N 
ATOM      2  C   UNL     1       2.561   6.746  19.225  0.00  0.00    +0.000 C 
ATOM      3  O   UNL     1       1.931   6.123  20.080  0.00  0.00    +0.000 OA
ATOM      4  H   UNL     1       4.134   6.782  17.892  0.00  0.00    +0.000 HD
ENDROOT
BRANCH   1   8
ATOM      5  N   UNL     1       6.164   4.299  16.899  0.00  0.00    +0.000 NA
ATOM      6  C   UNL     1       6.518   5.376  17.842  0.00  0.00    +0.000 C 
ATOM      7  C   UNL     1       5.910   5.154  19.222  0.00  0.00    +0.000 C 
ATOM      8  C   UNL     1       4.385   5.056  19.132  0.00  0.00    +0.000 C 
ATOM      9  C   UNL     1       4.037   3.923  18.166  0.00  0.00    +0.000 C 
ATOM     10  C   UNL     1       4.710   4.110  16.802  0.00  0.00    +0.000 C 
BRANCH   5  12
ATOM     11  C   UNL     1       5.910   4.220  14.392  0.00  0.00    +0.000 C 
ATOM     12  C   UNL     1       6.778   4.591  15.590  0.00  0.00    +0.000 C 
ENDBRANCH   5  12
ENDBRANCH   1   8
BRANCH   2  13
ATOM     13  C   UNL     1       2.060   8.063  18.669  0.00  0.00    +0.000 C 
BRANCH  13  14
ATOM     14  N   UNL     1       1.337   8.815  19.677  0.00  0.00    +0.000 N 
ATOM     15  C   UNL     1       1.460   8.589  21.024  0.00  0.00    +0.000 A 
ATOM     16  C   UNL     1       0.547   9.381  21.686  0.00  0.00    +0.000 A 
ATOM     17  C   UNL     1       0.288   9.394  23.148  0.00  0.00    +0.000 C 
ATOM     18  C   UNL     1      -0.106  10.175  20.691  0.00  0.00    +0.000 A 
ATOM     19  C   UNL     1      -1.106  11.166  20.749  0.00  0.00    +0.000 A 
ATOM     20  C   UNL     1      -1.549  11.774  19.572  0.00  0.00    +0.000 A 
ATOM     21  C   UNL     1      -1.007  11.411  18.344  0.00  0.00    +0.000 A 
ATOM     22  C   UNL     1      -0.019  10.427  18.256  0.00  0.00    +0.000 A 
ATOM     23  C   UNL     1       0.416   9.814  19.444  0.00  0.00    +0.000 A 
ENDBRANCH  13  14
ENDBRANCH   2  13
TORSDOF 4
ENDMDL
MODEL 6
REMARK VINA RESULT:      -6.7      1.791      7.898
REMARK  Name = 
REMARK  6 active torsions:
REMARK  status: ('A' for Active; 'I' for Inactive)
REMARK    1  A    between atoms: C_1  and  C_2
REMARK    2  A    between atoms: C_2  and  N_3
REMARK    3  A    between atoms: C_6  and  N_7
REMARK    4  A    between atoms: C_8  and  C_10
REMARK    5  A    between atoms: C_10  and  N_11
REMARK    6  A    between atoms: C_13  and  C_14
REMARK                            x       y       z     vdW  Elec       q    Type
REMARK                         _______ _______ _______ _____ _____    ______ ____
ROOT
ATOM      1  N   UNL     1       2.166   7.168  18.921  0.00  0.00    +0.000 N 
ATOM      2  C   UNL     1       1.912   8.493  18.628  0.00  0.00    +0.000 C 
ATOM      3  O   UNL     1       2.131   8.992  17.524  0.00  0.00    +0.000 OA
ATOM      4  H   UNL     1       2.137   6.880  19.893  0.00  0.00    +0.000 HD
ENDROOT
BRANCH   1   8
ATOM      5  N   UNL     1       3.246   3.749  19.427  0.00  0.00    +0.000 NA
ATOM      6  C   UNL     1       1.893   4.148  19.001  0.00  0.00    +0.000 C 
ATOM      7  C   UNL     1       1.916   4.997  17.734  0.00  0.00    +0.000 C 
ATOM      8  C   UNL     1       2.762   6.256  17.943  0.00  0.00    +0.000 C 
ATOM      9  C   UNL     1       4.165   5.823  18.366  0.00  0.00    +0.000 C 
ATOM     10  C   UNL     1       4.134   4.908  19.595  0.00  0.00    +0.000 C 
BRANCH   5  12
ATOM     11  C   UNL     1       2.005   3.364  21.587  0.00  0.00    +0.000 C 
ATOM     12  C   UNL     1       3.140   2.943  20.658  0.00  0.00    +0.000 C 
ENDBRANCH   5  12
ENDBRANCH   1   8
BRANCH   2  13
ATOM     13  C   UNL     1       1.318   9.299  19.764  0.00  0.00    +0.000 C 
BRANCH  13  14
ATOM     14  N   UNL     1       0.425  10.328  19.263  0.00  0.00    +0.000 N 
ATOM     15  C   UNL     1      -0.792  10.061  18.690  0.00  0.00    +0.000 A 
ATOM     16  C   UNL     1      -1.319  11.241  18.212  0.00  0.00    +0.000 A 
ATOM     17  C   UNL     1      -2.584  11.397  17.451  0.00  0.00    +0.000 C 
ATOM     18  C   UNL     1      -0.405  12.279  18.580  0.00  0.00    +0.000 A 
ATOM     19  C   UNL     1      -0.401  13.675  18.391  0.00  0.00    +0.000 A 
ATOM     20  C   UNL     1       0.663  14.438  18.880  0.00  0.00    +0.000 A 
ATOM     21  C   UNL     1       1.714  13.829  19.555  0.00  0.00    +0.000 A 
ATOM     22  C   UNL     1       1.740  12.447  19.752  0.00  0.00    +0.000 A 
ATOM     23  C   UNL     1       0.670  11.684  19.251  0.00  0.00    +0.000 A 
ENDBRANCH  13  14
ENDBRANCH   2  13
TORSDOF 4
ENDMDL
MODEL 7
REMARK VINA RESULT:      -6.7      1.746      7.871
REMARK  Name = 
REMARK  6 active torsions:
REMARK  status: ('A' for Active; 'I' for Inactive)
REMARK    1  A    between atoms: C_1  and  C_2
REMARK    2  A    between atoms: C_2  and  N_3
REMARK    3  A    between atoms: C_6  and  N_7
REMARK    4  A    between atoms: C_8  and  C_10
REMARK    5  A    between atoms: C_10  and  N_11
REMARK    6  A    between atoms: C_13  and  C_14
REMARK                            x       y       z     vdW  Elec       q    Type
REMARK                         _______ _______ _______ _____ _____    ______ ____
ROOT
ATOM      1  N   UNL     1       2.733   6.734  18.206  0.00  0.00    +0.000 N 
ATOM      2  C   UNL     1       2.210   7.788  18.928  0.00  0.00    +0.000 C 
ATOM      3  O   UNL     1       1.890   7.699  20.113  0.00  0.00    +0.000 OA
ATOM      4  H   UNL     1       2.796   6.829  17.199  0.00  0.00    +0.000 HD
ENDROOT
BRANCH   1   8
ATOM      5  N   UNL     1       5.343   4.320  17.515  0.00  0.00    +0.000 NA
ATOM      6  C   UNL     1       5.411   5.354  18.563  0.00  0.00    +0.000 C 
ATOM      7  C   UNL     1       4.239   5.267  19.535  0.00  0.00    +0.000 C 
ATOM      8  C   UNL     1       2.908   5.403  18.790  0.00  0.00    +0.000 C 
ATOM      9  C   UNL     1       2.847   4.311  17.721  0.00  0.00    +0.000 C 
ATOM     10  C   UNL     1       4.063   4.354  16.792  0.00  0.00    +0.000 C 
BRANCH   5  12
ATOM     11  C   UNL     1       6.148   4.439  15.130  0.00  0.00    +0.000 C 
ATOM     12  C   UNL     1       6.499   4.477  16.614  0.00  0.00    +0.000 C 
ENDBRANCH   5  12
ENDBRANCH   1   8
BRANCH   2  13
ATOM     13  C   UNL     1       2.074   9.086  18.161  0.00  0.00    +0.000 C 
BRANCH  13  14
ATOM     14  N   UNL     1       0.730   9.622  18.274  0.00  0.00    +0.000 N 
ATOM     15  C   UNL     1      -0.303   9.254  17.450  0.00  0.00    +0.000 A 
ATOM     16  C   UNL     1      -1.397  10.039  17.743  0.00  0.00    +0.000 A 
ATOM     17  C   UNL     1      -2.704  10.029  17.037  0.00  0.00    +0.000 C 
ATOM     18  C   UNL     1      -1.024  10.871  18.845  0.00  0.00    +0.000 A 
ATOM     19  C   UNL     1      -1.706  11.853  19.589  0.00  0.00    +0.000 A 
ATOM     20  C   UNL     1      -1.053  12.509  20.636  0.00  0.00    +0.000 A 
ATOM     21  C   UNL     1       0.265  12.195  20.951  0.00  0.00    +0.000 A 
ATOM     22  C   UNL     1       0.968  11.230  20.226  0.00  0.00    +0.000 A 
ATOM     23  C   UNL     1       0.307  10.580  19.169  0.00  0.00    +0.000 A 
ENDBRANCH  13  14
ENDBRANCH   2  13
TORSDOF 4
ENDMDL
MODEL 8
REMARK VINA RESULT:      -6.7      2.273      7.125
REMARK  Name = 
REMARK  6 active torsions:
REMARK  status: ('A' for Active; 'I' for Inactive)
REMARK    1  A    between atoms: C_1  and  C_2
REMARK    2  A    between atoms: C_2  and  N_3
REMARK    3  A    between atoms: C_6  and  N_7
REMARK    4  A    between atoms: C_8  and  C_10
REMARK    5  A    between atoms: C_10  and  N_11
REMARK    6  A    between atoms: C_13  and  C_14
REMARK                            x       y       z     vdW  Elec       q    Type
REMARK                         _______ _______ _______ _____ _____    ______ ____
ROOT
ATOM      1  N   UNL     1       3.232   5.456  19.887  0.00  0.00    +0.000 N 
ATOM      2  C   UNL     1       1.933   5.460  20.356  0.00  0.00    +0.000 C 
ATOM      3  O   UNL     1       1.090   4.632  20.012  0.00  0.00    +0.000 OA
ATOM      4  H   UNL     1       3.808   6.270  20.069  0.00  0.00    +0.000 HD
ENDROOT
BRANCH   1   8
ATOM      5  N   UNL     1       5.930   5.813  17.499  0.00  0.00    +0.000 NA
ATOM      6  C   UNL     1       6.082   5.277  18.864  0.00  0.00    +0.000 C 
ATOM      7  C   UNL     1       5.163   4.088  19.120  0.00  0.00    +0.000 C 
ATOM      8  C   UNL     1       3.699   4.479  18.901  0.00  0.00    +0.000 C 
ATOM      9  C   UNL     1       3.557   5.014  17.476  0.00  0.00    +0.000 C 
ATOM     10  C   UNL     1       4.534   6.160  17.196  0.00  0.00    +0.000 C 
BRANCH   5  12
ATOM     11  C   UNL     1       7.951   7.038  18.376  0.00  0.00    +0.000 C 
ATOM     12  C   UNL     1       6.841   6.961  17.333  0.00  0.00    +0.000 C 
ENDBRANCH   5  12
ENDBRANCH   1   8
BRANCH   2  13
ATOM     13  C   UNL     1       1.615   6.555  21.352  0.00  0.00    +0.000 C 
BRANCH  13  14
ATOM     14  N   UNL     1       1.342   7.811  20.679  0.00  0.00    +0.000 N 
ATOM     15  C   UNL     1       1.766   8.097  19.407  0.00  0.00    +0.000 A 
ATOM     16  C   UNL     1       1.453   9.408  19.125  0.00  0.00    +0.000 A 
ATOM     17  C   UNL     1       1.801  10.151  17.887  0.00  0.00    +0.000 C 
ATOM     18  C   UNL     1       0.741   9.914  20.258  0.00  0.00    +0.000 A 
ATOM     19  C   UNL     1       0.157  11.162  20.554  0.00  0.00    +0.000 A 
ATOM     20  C   UNL     1      -0.485  11.353  21.780  0.00  0.00    +0.000 A 
ATOM     21  C   UNL     1      -0.556  10.320  22.708  0.00  0.00    +0.000 A 
ATOM     22  C   UNL     1       0.019   9.074  22.444  0.00  0.00    +0.000 A 
ATOM     23  C   UNL     1       0.671   8.891  21.211  0.00  0.00    +0.000 A 
ENDBRANCH  13  14
ENDBRANCH   2  13
TORSDOF 4
ENDMDL
MODEL 9
REMARK VINA RESULT:      -6.6      1.574      2.385
REMARK  Name = 
REMARK  6 active torsions:
REMARK  status: ('A' for Active; 'I' for Inactive)
REMARK    1  A    between atoms: C_1  and  C_2
REMARK    2  A    between atoms: C_2  and  N_3
REMARK    3  A    between atoms: C_6  and  N_7
REMARK    4  A    between atoms: C_8  and  C_10
REMARK    5  A    between atoms: C_10  and  N_11
REMARK    6  A    between atoms: C_13  and  C_14
REMARK                            x       y       z     vdW  Elec       q    Type
REMARK                         _______ _______ _______ _____ _____    ______ ____
ROOT
ATOM      1  N   UNL     1       1.587   9.409  18.820  0.00  0.00    +0.000 N 
ATOM      2  C   UNL     1       2.165   8.157  18.886  0.00  0.00    +0.000 C 
ATOM      3  O   UNL     1       2.255   7.511  19.930  0.00  0.00    +0.000 OA
ATOM      4  H   UNL     1       1.716   9.950  17.973  0.00  0.00    +0.000 HD
ENDROOT
BRANCH   1   8
ATOM      5  N   UNL     1      -1.292  11.592  19.067  0.00  0.00    +0.000 NA
ATOM      6  C   UNL     1      -1.327  10.131  19.255  0.00  0.00    +0.000 C 
ATOM      7  C   UNL     1      -0.363   9.668  20.342  0.00  0.00    +0.000 C 
ATOM      8  C   UNL     1       1.071  10.090  20.009  0.00  0.00    +0.000 C 
ATOM      9  C   UNL     1       1.092  11.609  19.836  0.00  0.00    +0.000 C 
ATOM     10  C   UNL     1       0.069  12.079  18.797  0.00  0.00    +0.000 C 
BRANCH   5  12
ATOM     11  C   UNL     1      -3.291  10.895  17.699  0.00  0.00    +0.000 C 
ATOM     12  C   UNL     1      -2.239  11.958  17.998  0.00  0.00    +0.000 C 
ENDBRANCH   5  12
ENDBRANCH   1   8
BRANCH   2  13
ATOM     13  C   UNL     1       2.668   7.612  17.566  0.00  0.00    +0.000 C 
BRANCH  13  14
ATOM     14  N   UNL     1       3.466   6.416  17.763  0.00  0.00    +0.000 N 
ATOM     15  C   UNL     1       4.836   6.421  17.824  0.00  0.00    +0.000 A 
ATOM     16  C   UNL     1       5.276   5.117  17.889  0.00  0.00    +0.000 A 
ATOM     17  C   UNL     1       6.690   4.663  17.890  0.00  0.00    +0.000 C 
ATOM     18  C   UNL     1       4.110   4.291  17.941  0.00  0.00    +0.000 A 
ATOM     19  C   UNL     1       3.914   2.899  18.030  0.00  0.00    +0.000 A 
ATOM     20  C   UNL     1       2.617   2.381  18.062  0.00  0.00    +0.000 A 
ATOM     21  C   UNL     1       1.518   3.230  18.011  0.00  0.00    +0.000 A 
ATOM     22  C   UNL     1       1.681   4.614  17.916  0.00  0.00    +0.000 A 
ATOM     23  C   UNL     1       2.990   5.128  17.877  0.00  0.00    +0.000 A 
ENDBRANCH  13  14
ENDBRANCH   2  13
TORSDOF 4
ENDMDL
