MODEL 1
REMARK VINA RESULT:      -7.6      0.000      0.000
REMARK  Name = 
REMARK  11 active torsions:
REMARK  status: ('A' for Active; 'I' for Inactive)
REMARK    1  A    between atoms: C_1  and  O_2
REMARK    2  A    between atoms: O_2  and  C_3
REMARK    3  A    between atoms: C_3  and  C_5
REMARK    4  A    between atoms: C_5  and  C_6
REMARK    5  A    between atoms: C_5  and  N_10
REMARK    6  A    between atoms: C_6  and  C_7
REMARK    7  A    between atoms: C_7  and  C_8
REMARK    8  A    between atoms: C_7  and  C_9
REMARK    9  A    between atoms: N_10  and  C_11
REMARK   10  A    between atoms: C_17  and  O_18
REMARK   11  A    between atoms: C_21  and  O_22
REMARK                            x       y       z     vdW  Elec       q    Type
REMARK                         _______ _______ _______ _____ _____    ______ ____
ROOT
ATOM      1  C   UNL     1       4.178   5.168  17.015  0.00  0.00    +0.000 C 
ATOM      2  C   UNL     1       3.781   6.261  17.689  0.00  0.00    +0.000 C 
ATOM      3 CL   UNL     1       4.382   7.846  17.337  0.00  0.00    +0.000 Cl
ATOM      4  C   UNL     1       2.713   6.207  18.718  0.00  0.00    +0.000 C 
ATOM      5  O   UNL     1       2.132   7.205  19.132  0.00  0.00    +0.000 OA
ATOM      6  C   UNL     1       2.351   4.896  19.275  0.00  0.00    +0.000 A 
ATOM      7  C   UNL     1       1.551   4.822  20.426  0.00  0.00    +0.000 A 
ATOM      8  C   UNL     1       1.251   3.597  21.005  0.00  0.00    +0.000 A 
ATOM      9  C   UNL     1       1.742   2.426  20.437  0.00  0.00    +0.000 A 
ATOM     10  C   UNL     1       2.515   2.491  19.276  0.00  0.00    +0.000 A 
ATOM     11  C   UNL     1       2.818   3.730  18.674  0.00  0.00    +0.000 A 
ATOM     12  C   UNL     1       3.586   3.832  17.412  0.00  0.00    +0.000 C 
ATOM     13  O   UNL     1       3.787   2.869  16.675  0.00  0.00    +0.000 OA
ENDROOT
BRANCH   1  14
ATOM     14  N   UNL     1       5.021   5.088  15.898  0.00  0.00    +0.000 N 
ATOM     15  H   UNL     1       4.830   4.206  15.396  0.00  0.00    +0.000 HD
BRANCH  14  16
ATOM     16  C   UNL     1       6.472   5.389  15.839  0.00  0.00    +0.000 C 
BRANCH  16  17
ATOM     17  C   UNL     1       7.049   4.909  14.486  0.00  0.00    +0.000 C 
ATOM     18  O   UNL     1       7.990   5.444  13.913  0.00  0.00    +0.000 OA
BRANCH  17  20
ATOM     19  C   UNL     1       6.364   3.628  12.629  0.00  0.00    +0.000 C 
ATOM     20  O   UNL     1       6.419   3.777  14.050  0.00  0.00    +0.000 OA
ENDBRANCH  17  20
ENDBRANCH  16  17
BRANCH  16  21
ATOM     21  C   UNL     1       7.198   4.693  17.008  0.00  0.00    +0.000 C 
BRANCH  21  22
ATOM     22  C   UNL     1       7.698   5.615  18.143  0.00  0.00    +0.000 C 
ATOM     23  C   UNL     1       7.688   7.099  17.775  0.00  0.00    +0.000 C 
ATOM     24  C   UNL     1       6.845   5.411  19.401  0.00  0.00    +0.000 C 
ENDBRANCH  21  22
ENDBRANCH  16  21
ENDBRANCH  14  16
ENDBRANCH   1  14
BRANCH   7  25
ATOM     25  O   UNL     1       1.023   5.921  21.048  0.00  0.00    +0.000 OA
ATOM     26  H   UNL     1       0.519   5.628  21.842  0.00  0.00    +0.000 HD
ENDBRANCH   7  25
BRANCH  10  27
ATOM     27  O   UNL     1       3.006   1.328  18.760  0.00  0.00    +0.000 OA
ATOM     28  H   UNL     1       3.976   1.319  18.806  0.00  0.00    +0.000 HD
ENDBRANCH  10  27
TORSDOF 8
ENDMDL
MODEL 2
REMARK VINA RESULT:      -7.2      0.811      1.060
REMARK  Name = 
REMARK  11 active torsions:
REMARK  status: ('A' for Active; 'I' for Inactive)
REMARK    1  A    between atoms: C_1  and  O_2
REMARK    2  A    between atoms: O_2  and  C_3
REMARK    3  A    between atoms: C_3  and  C_5
REMARK    4  A    between atoms: C_5  and  C_6
REMARK    5  A    between atoms: C_5  and  N_10
REMARK    6  A    between atoms: C_6  and  C_7
REMARK    7  A    between atoms: C_7  and  C_8
REMARK    8  A    between atoms: C_7  and  C_9
REMARK    9  A    between atoms: N_10  and  C_11
REMARK   10  A    between atoms: C_17  and  O_18
REMARK   11  A    between atoms: C_21  and  O_22
REMARK                            x       y       z     vdW  Elec       q    Type
REMARK                         _______ _______ _______ _____ _____    ______ ____
ROOT
ATOM      1  C   UNL     1       4.337   5.318  17.134  0.00  0.00    +0.000 C 
ATOM      2  C   UNL     1       3.755   6.393  17.693  0.00  0.00    +0.000 C 
ATOM      3 CL   UNL     1       3.939   7.992  17.058  0.00  0.00    +0.000 Cl
ATOM      4  C   UNL     1       2.820   6.275  18.839  0.00  0.00    +0.000 C 
ATOM      5  O   UNL     1       2.059   7.176  19.178  0.00  0.00    +0.000 OA
ATOM      6  C   UNL     1       2.822   5.023  19.610  0.00  0.00    +0.000 A 
ATOM      7  C   UNL     1       2.161   4.964  20.848  0.00  0.00    +0.000 A 
ATOM      8  C   UNL     1       2.204   3.812  21.621  0.00  0.00    +0.000 A 
ATOM      9  C   UNL     1       2.905   2.700  21.166  0.00  0.00    +0.000 A 
ATOM     10  C   UNL     1       3.541   2.744  19.924  0.00  0.00    +0.000 A 
ATOM     11  C   UNL     1       3.495   3.905  19.124  0.00  0.00    +0.000 A 
ATOM     12  C   UNL     1       4.109   3.968  17.778  0.00  0.00    +0.000 C 
ATOM     13  O   UNL     1       4.466   2.965  17.163  0.00  0.00    +0.000 OA
ENDROOT
BRANCH   1  14
ATOM     14  N   UNL     1       5.079   5.245  15.947  0.00  0.00    +0.000 N 
ATOM     15  H   UNL     1       4.805   4.391  15.433  0.00  0.00    +0.000 HD
BRANCH  14  16
ATOM     16  C   UNL     1       6.531   5.485  15.773  0.00  0.00    +0.000 C 
BRANCH  16  17
ATOM     17  C   UNL     1       7.009   4.853  14.444  0.00  0.00    +0.000 C 
ATOM     18  O   UNL     1       6.507   3.858  13.937  0.00  0.00    +0.000 OA
BRANCH  17  20
ATOM     19  C   UNL     1       7.995   5.637  12.450  0.00  0.00    +0.000 C 
ATOM     20  O   UNL     1       8.017   5.585  13.879  0.00  0.00    +0.000 OA
ENDBRANCH  17  20
ENDBRANCH  16  17
BRANCH  16  21
ATOM     21  C   UNL     1       7.307   4.882  16.962  0.00  0.00    +0.000 C 
BRANCH  21  22
ATOM     22  C   UNL     1       7.742   5.873  18.064  0.00  0.00    +0.000 C 
ATOM     23  C   UNL     1       7.506   7.339  17.695  0.00  0.00    +0.000 C 
ATOM     24  C   UNL     1       7.002   5.566  19.371  0.00  0.00    +0.000 C 
ENDBRANCH  21  22
ENDBRANCH  16  21
ENDBRANCH  14  16
ENDBRANCH   1  14
BRANCH   7  25
ATOM     25  O   UNL     1       1.446   6.007  21.370  0.00  0.00    +0.000 OA
ATOM     26  H   UNL     1       1.685   6.832  20.888  0.00  0.00    +0.000 HD
ENDBRANCH   7  25
BRANCH  10  27
ATOM     27  O   UNL     1       4.244   1.648  19.517  0.00  0.00    +0.000 OA
ATOM     28  H   UNL     1       4.059   1.453  18.585  0.00  0.00    +0.000 HD
ENDBRANCH  10  27
TORSDOF 8
ENDMDL
MODEL 3
REMARK VINA RESULT:      -7.2      1.283      3.002
REMARK  Name = 
REMARK  11 active torsions:
REMARK  status: ('A' for Active; 'I' for Inactive)
REMARK    1  A    between atoms: C_1  and  O_2
REMARK    2  A    between atoms: O_2  and  C_3
REMARK    3  A    between atoms: C_3  and  C_5
REMARK    4  A    between atoms: C_5  and  C_6
REMARK    5  A    between atoms: C_5  and  N_10
REMARK    6  A    between atoms: C_6  and  C_7
REMARK    7  A    between atoms: C_7  and  C_8
REMARK    8  A    between atoms: C_7  and  C_9
REMARK    9  A    between atoms: N_10  and  C_11
REMARK   10  A    between atoms: C_17  and  O_18
REMARK   11  A    between atoms: C_21  and  O_22
REMARK                            x       y       z     vdW  Elec       q    Type
REMARK                         _______ _______ _______ _____ _____    ______ ____
ROOT
ATOM      1  C   UNL     1       4.294   4.954  16.987  0.00  0.00    +0.000 C 
ATOM      2  C   UNL     1       3.878   6.104  17.545  0.00  0.00    +0.000 C 
ATOM      3 CL   UNL     1       4.220   7.655  16.855  0.00  0.00    +0.000 Cl
ATOM      4  C   UNL     1       2.999   6.128  18.740  0.00  0.00    +0.000 C 
ATOM      5  O   UNL     1       2.373   7.123  19.091  0.00  0.00    +0.000 OA
ATOM      6  C   UNL     1       2.891   4.903  19.546  0.00  0.00    +0.000 A 
ATOM      7  C   UNL     1       2.296   4.953  20.817  0.00  0.00    +0.000 A 
ATOM      8  C   UNL     1       2.241   3.822  21.620  0.00  0.00    +0.000 A 
ATOM      9  C   UNL     1       2.775   2.623  21.161  0.00  0.00    +0.000 A 
ATOM     10  C   UNL     1       3.344   2.560  19.887  0.00  0.00    +0.000 A 
ATOM     11  C   UNL     1       3.395   3.701  19.058  0.00  0.00    +0.000 A 
ATOM     12  C   UNL     1       3.938   3.657  17.681  0.00  0.00    +0.000 C 
ATOM     13  O   UNL     1       4.137   2.605  17.077  0.00  0.00    +0.000 OA
ENDROOT
BRANCH   1  14
ATOM     14  N   UNL     1       4.955   4.764  15.766  0.00  0.00    +0.000 N 
ATOM     15  H   UNL     1       4.341   4.226  15.133  0.00  0.00    +0.000 HD
BRANCH  14  16
ATOM     16  C   UNL     1       6.365   4.356  15.557  0.00  0.00    +0.000 C 
BRANCH  16  17
ATOM     17  C   UNL     1       7.267   5.034  16.616  0.00  0.00    +0.000 C 
ATOM     18  O   UNL     1       7.830   4.435  17.524  0.00  0.00    +0.000 OA
BRANCH  17  20
ATOM     19  C   UNL     1       7.604   7.182  17.527  0.00  0.00    +0.000 C 
ATOM     20  O   UNL     1       7.407   6.371  16.367  0.00  0.00    +0.000 OA
ENDBRANCH  17  20
ENDBRANCH  16  17
BRANCH  16  21
ATOM     21  C   UNL     1       6.818   4.749  14.137  0.00  0.00    +0.000 C 
BRANCH  21  22
ATOM     22  C   UNL     1       6.512   3.728  13.018  0.00  0.00    +0.000 C 
ATOM     23  C   UNL     1       5.029   3.652  12.650  0.00  0.00    +0.000 C 
ATOM     24  C   UNL     1       7.319   4.068  11.759  0.00  0.00    +0.000 C 
ENDBRANCH  21  22
ENDBRANCH  16  21
ENDBRANCH  14  16
ENDBRANCH   1  14
BRANCH   7  25
ATOM     25  O   UNL     1       1.742   6.088  21.345  0.00  0.00    +0.000 OA
ATOM     26  H   UNL     1       1.203   6.533  20.651  0.00  0.00    +0.000 HD
ENDBRANCH   7  25
BRANCH  10  27
ATOM     27  O   UNL     1       3.885   1.378  19.477  0.00  0.00    +0.000 OA
ATOM     28  H   UNL     1       3.541   1.132  18.603  0.00  0.00    +0.000 HD
ENDBRANCH  10  27
TORSDOF 8
ENDMDL
MODEL 4
REMARK VINA RESULT:      -7.2      1.083      3.019
REMARK  Name = 
REMARK  11 active torsions:
REMARK  status: ('A' for Active; 'I' for Inactive)
REMARK    1  A    between atoms: C_1  and  O_2
REMARK    2  A    between atoms: O_2  and  C_3
REMARK    3  A    between atoms: C_3  and  C_5
REMARK    4  A    between atoms: C_5  and  C_6
REMARK    5  A    between atoms: C_5  and  N_10
REMARK    6  A    between atoms: C_6  and  C_7
REMARK    7  A    between atoms: C_7  and  C_8
REMARK    8  A    between atoms: C_7  and  C_9
REMARK    9  A    between atoms: N_10  and  C_11
REMARK   10  A    between atoms: C_17  and  O_18
REMARK   11  A    between atoms: C_21  and  O_22
REMARK                            x       y       z     vdW  Elec       q    Type
REMARK                         _______ _______ _______ _____ _____    ______ ____
ROOT
ATOM      1  C   UNL     1       4.147   4.872  16.760  0.00  0.00    +0.000 C 
ATOM      2  C   UNL     1       4.060   6.002  17.482  0.00  0.00    +0.000 C 
ATOM      3 CL   UNL     1       4.863   7.466  17.028  0.00  0.00    +0.000 Cl
ATOM      4  C   UNL     1       3.179   6.111  18.671  0.00  0.00    +0.000 C 
ATOM      5  O   UNL     1       2.854   7.185  19.168  0.00  0.00    +0.000 OA
ATOM      6  C   UNL     1       2.689   4.869  19.288  0.00  0.00    +0.000 A 
ATOM      7  C   UNL     1       2.084   4.909  20.555  0.00  0.00    +0.000 A 
ATOM      8  C   UNL     1       1.672   3.742  21.182  0.00  0.00    +0.000 A 
ATOM      9  C   UNL     1       1.854   2.517  20.549  0.00  0.00    +0.000 A 
ATOM     10  C   UNL     1       2.430   2.473  19.278  0.00  0.00    +0.000 A 
ATOM     11  C   UNL     1       2.843   3.654  18.626  0.00  0.00    +0.000 A 
ATOM     12  C   UNL     1       3.403   3.650  17.256  0.00  0.00    +0.000 C 
ATOM     13  O   UNL     1       3.313   2.683  16.502  0.00  0.00    +0.000 OA
ENDROOT
BRANCH   1  14
ATOM     14  N   UNL     1       4.772   4.673  15.522  0.00  0.00    +0.000 N 
ATOM     15  H   UNL     1       4.120   4.177  14.892  0.00  0.00    +0.000 HD
BRANCH  14  16
ATOM     16  C   UNL     1       6.156   4.201  15.275  0.00  0.00    +0.000 C 
BRANCH  16  17
ATOM     17  C   UNL     1       7.143   4.988  16.170  0.00  0.00    +0.000 C 
ATOM     18  O   UNL     1       7.593   6.092  15.889  0.00  0.00    +0.000 OA
BRANCH  17  20
ATOM     19  C   UNL     1       7.579   5.164  18.480  0.00  0.00    +0.000 C 
ATOM     20  O   UNL     1       7.393   4.324  17.338  0.00  0.00    +0.000 OA
ENDBRANCH  17  20
ENDBRANCH  16  17
BRANCH  16  21
ATOM     21  C   UNL     1       6.516   4.390  13.787  0.00  0.00    +0.000 C 
BRANCH  21  22
ATOM     22  C   UNL     1       6.045   3.275  12.827  0.00  0.00    +0.000 C 
ATOM     23  C   UNL     1       4.711   3.580  12.143  0.00  0.00    +0.000 C 
ATOM     24  C   UNL     1       7.107   3.022  11.751  0.00  0.00    +0.000 C 
ENDBRANCH  21  22
ENDBRANCH  16  21
ENDBRANCH  14  16
ENDBRANCH   1  14
BRANCH   7  25
ATOM     25  O   UNL     1       1.862   6.069  21.247  0.00  0.00    +0.000 OA
ATOM     26  H   UNL     1       0.919   6.332  21.136  0.00  0.00    +0.000 HD
ENDBRANCH   7  25
BRANCH  10  27
ATOM     27  O   UNL     1       2.622   1.255  18.696  0.00  0.00    +0.000 OA
ATOM     28  H   UNL     1       1.997   0.604  19.055  0.00  0.00    +0.000 HD
ENDBRANCH  10  27
TORSDOF 8
ENDMDL
MODEL 5
REMARK VINA RESULT:      -7.1      2.029      4.219
REMARK  Name = 
REMARK  11 active torsions:
REMARK  status: ('A' for Active; 'I' for Inactive)
REMARK    1  A    between atoms: C_1  and  O_2
REMARK    2  A    between atoms: O_2  and  C_3
REMARK    3  A    between atoms: C_3  and  C_5
REMARK    4  A    between atoms: C_5  and  C_6
REMARK    5  A    between atoms: C_5  and  N_10
REMARK    6  A    between atoms: C_6  and  C_7
REMARK    7  A    between atoms: C_7  and  C_8
REMARK    8  A    between atoms: C_7  and  C_9
REMARK    9  A    between atoms: N_10  and  C_11
REMARK   10  A    between atoms: C_17  and  O_18
REMARK   11  A    between atoms: C_21  and  O_22
REMARK                            x       y       z     vdW  Elec       q    Type
REMARK                         _______ _______ _______ _____ _____    ______ ____
ROOT
ATOM      1  C   UNL     1       4.314   4.537  16.682  0.00  0.00    +0.000 C 
ATOM      2  C   UNL     1       4.042   3.528  17.527  0.00  0.00    +0.000 C 
ATOM      3 CL   UNL     1       4.317   1.868  17.121  0.00  0.00    +0.000 Cl
ATOM      4  C   UNL     1       3.583   3.767  18.918  0.00  0.00    +0.000 C 
ATOM      5  O   UNL     1       3.609   2.904  19.790  0.00  0.00    +0.000 OA
ATOM      6  C   UNL     1       3.060   5.099  19.257  0.00  0.00    +0.000 A 
ATOM      7  C   UNL     1       2.374   5.293  20.466  0.00  0.00    +0.000 A 
ATOM      8  C   UNL     1       1.816   6.526  20.776  0.00  0.00    +0.000 A 
ATOM      9  C   UNL     1       1.943   7.585  19.884  0.00  0.00    +0.000 A 
ATOM     10  C   UNL     1       2.647   7.406  18.692  0.00  0.00    +0.000 A 
ATOM     11  C   UNL     1       3.227   6.160  18.371  0.00  0.00    +0.000 A 
ATOM     12  C   UNL     1       4.030   5.950  17.145  0.00  0.00    +0.000 C 
ATOM     13  O   UNL     1       4.461   6.879  16.464  0.00  0.00    +0.000 OA
ENDROOT
BRANCH   1  14
ATOM     14  N   UNL     1       4.929   4.481  15.424  0.00  0.00    +0.000 N 
ATOM     15  H   UNL     1       4.278   4.043  14.752  0.00  0.00    +0.000 HD
BRANCH  14  16
ATOM     16  C   UNL     1       6.317   4.062  15.116  0.00  0.00    +0.000 C 
BRANCH  16  17
ATOM     17  C   UNL     1       7.314   4.917  15.935  0.00  0.00    +0.000 C 
ATOM     18  O   UNL     1       7.524   6.107  15.734  0.00  0.00    +0.000 OA
BRANCH  17  20
ATOM     19  C   UNL     1       7.683   4.737  18.257  0.00  0.00    +0.000 C 
ATOM     20  O   UNL     1       7.875   4.192  16.949  0.00  0.00    +0.000 OA
ENDBRANCH  17  20
ENDBRANCH  16  17
BRANCH  16  21
ATOM     21  C   UNL     1       6.590   4.223  13.606  0.00  0.00    +0.000 C 
BRANCH  21  22
ATOM     22  C   UNL     1       5.995   3.132  12.688  0.00  0.00    +0.000 C 
ATOM     23  C   UNL     1       4.721   3.570  11.963  0.00  0.00    +0.000 C 
ATOM     24  C   UNL     1       7.033   2.696  11.647  0.00  0.00    +0.000 C 
ENDBRANCH  21  22
ENDBRANCH  16  21
ENDBRANCH  14  16
ENDBRANCH   1  14
BRANCH   7  25
ATOM     25  O   UNL     1       2.206   4.309  21.403  0.00  0.00    +0.000 OA
ATOM     26  H   UNL     1       2.491   3.449  21.018  0.00  0.00    +0.000 HD
ENDBRANCH   7  25
BRANCH  10  27
ATOM     27  O   UNL     1       2.729   8.454  17.824  0.00  0.00    +0.000 OA
ATOM     28  H   UNL     1       2.276   8.242  16.991  0.00  0.00    +0.000 HD
ENDBRANCH  10  27
TORSDOF 8
ENDMDL
MODEL 6
REMARK VINA RESULT:      -7.0      1.634      2.936
REMARK  Name = 
REMARK  11 active torsions:
REMARK  status: ('A' for Active; 'I' for Inactive)
REMARK    1  A    between atoms: C_1  and  O_2
REMARK    2  A    between atoms: O_2  and  C_3
REMARK    3  A    between atoms: C_3  and  C_5
REMARK    4  A    between atoms: C_5  and  C_6
REMARK    5  A    between atoms: C_5  and  N_10
REMARK    6  A    between atoms: C_6  and  C_7
REMARK    7  A    between atoms: C_7  and  C_8
REMARK    8  A    between atoms: C_7  and  C_9
REMARK    9  A    between atoms: N_10  and  C_11
REMARK   10  A    between atoms: C_17  and  O_18
REMARK   11  A    between atoms: C_21  and  O_22
REMARK                            x       y       z     vdW  Elec       q    Type
REMARK                         _______ _______ _______ _____ _____    ______ ____
ROOT
ATOM      1  C   UNL     1       4.250   4.941  17.103  0.00  0.00    +0.000 C 
ATOM      2  C   UNL     1       3.917   3.842  17.802  0.00  0.00    +0.000 C 
ATOM      3 CL   UNL     1       4.287   2.241  17.258  0.00  0.00    +0.000 Cl
ATOM      4  C   UNL     1       3.300   3.922  19.149  0.00  0.00    +0.000 C 
ATOM      5  O   UNL     1       3.256   2.971  19.923  0.00  0.00    +0.000 OA
ATOM      6  C   UNL     1       2.702   5.199  19.564  0.00  0.00    +0.000 A 
ATOM      7  C   UNL     1       1.879   5.250  20.701  0.00  0.00    +0.000 A 
ATOM      8  C   UNL     1       1.253   6.431  21.073  0.00  0.00    +0.000 A 
ATOM      9  C   UNL     1       1.445   7.582  20.316  0.00  0.00    +0.000 A 
ATOM     10  C   UNL     1       2.283   7.545  19.199  0.00  0.00    +0.000 A 
ATOM     11  C   UNL     1       2.933   6.352  18.818  0.00  0.00    +0.000 A 
ATOM     12  C   UNL     1       3.872   6.291  17.676  0.00  0.00    +0.000 C 
ATOM     13  O   UNL     1       4.348   7.295  17.150  0.00  0.00    +0.000 OA
ENDROOT
BRANCH   1  14
ATOM     14  N   UNL     1       5.002   5.032  15.924  0.00  0.00    +0.000 N 
ATOM     15  H   UNL     1       4.789   4.217  15.327  0.00  0.00    +0.000 HD
BRANCH  14  16
ATOM     16  C   UNL     1       6.437   5.382  15.794  0.00  0.00    +0.000 C 
BRANCH  16  17
ATOM     17  C   UNL     1       6.976   4.873  14.436  0.00  0.00    +0.000 C 
ATOM     18  O   UNL     1       7.904   5.392  13.827  0.00  0.00    +0.000 OA
BRANCH  17  20
ATOM     19  C   UNL     1       6.245   3.555  12.623  0.00  0.00    +0.000 C 
ATOM     20  O   UNL     1       6.330   3.735  14.038  0.00  0.00    +0.000 OA
ENDBRANCH  17  20
ENDBRANCH  16  17
BRANCH  16  21
ATOM     21  C   UNL     1       7.236   4.756  16.955  0.00  0.00    +0.000 C 
BRANCH  21  22
ATOM     22  C   UNL     1       7.739   5.735  18.039  0.00  0.00    +0.000 C 
ATOM     23  C   UNL     1       7.611   7.206  17.642  0.00  0.00    +0.000 C 
ATOM     24  C   UNL     1       6.976   5.507  19.350  0.00  0.00    +0.000 C 
ENDBRANCH  21  22
ENDBRANCH  16  21
ENDBRANCH  14  16
ENDBRANCH   1  14
BRANCH   7  25
ATOM     25  O   UNL     1       1.639   4.168  21.505  0.00  0.00    +0.000 OA
ATOM     26  H   UNL     1       0.835   4.344  22.046  0.00  0.00    +0.000 HD
ENDBRANCH   7  25
BRANCH  10  27
ATOM     27  O   UNL     1       2.427   8.682  18.461  0.00  0.00    +0.000 OA
ATOM     28  H   UNL     1       1.569   8.971  18.111  0.00  0.00    +0.000 HD
ENDBRANCH  10  27
TORSDOF 8
ENDMDL
MODEL 7
REMARK VINA RESULT:      -6.9      2.118      4.275
REMARK  Name = 
REMARK  11 active torsions:
REMARK  status: ('A' for Active; 'I' for Inactive)
REMARK    1  A    between atoms: C_1  and  O_2
REMARK    2  A    between atoms: O_2  and  C_3
REMARK    3  A    between atoms: C_3  and  C_5
REMARK    4  A    between atoms: C_5  and  C_6
REMARK    5  A    between atoms: C_5  and  N_10
REMARK    6  A    between atoms: C_6  and  C_7
REMARK    7  A    between atoms: C_7  and  C_8
REMARK    8  A    between atoms: C_7  and  C_9
REMARK    9  A    between atoms: N_10  and  C_11
REMARK   10  A    between atoms: C_17  and  O_18
REMARK   11  A    between atoms: C_21  and  O_22
REMARK                            x       y       z     vdW  Elec       q    Type
REMARK                         _______ _______ _______ _____ _____    ______ ____
ROOT
ATOM      1  C   UNL     1       4.278   5.108  16.837  0.00  0.00    +0.000 C 
ATOM      2  C   UNL     1       4.015   4.160  17.752  0.00  0.00    +0.000 C 
ATOM      3 CL   UNL     1       4.389   2.489  17.501  0.00  0.00    +0.000 Cl
ATOM      4  C   UNL     1       3.480   4.490  19.096  0.00  0.00    +0.000 C 
ATOM      5  O   UNL     1       3.506   3.704  20.039  0.00  0.00    +0.000 OA
ATOM      6  C   UNL     1       2.877   5.816  19.297  0.00  0.00    +0.000 A 
ATOM      7  C   UNL     1       2.125   6.074  20.455  0.00  0.00    +0.000 A 
ATOM      8  C   UNL     1       1.495   7.297  20.634  0.00  0.00    +0.000 A 
ATOM      9  C   UNL     1       1.612   8.284  19.660  0.00  0.00    +0.000 A 
ATOM     10  C   UNL     1       2.381   8.043  18.520  0.00  0.00    +0.000 A 
ATOM     11  C   UNL     1       3.035   6.807  18.332  0.00  0.00    +0.000 A 
ATOM     12  C   UNL     1       3.904   6.538  17.164  0.00  0.00    +0.000 C 
ATOM     13  O   UNL     1       4.322   7.428  16.427  0.00  0.00    +0.000 OA
ENDROOT
BRANCH   1  14
ATOM     14  N   UNL     1       4.955   4.980  15.616  0.00  0.00    +0.000 N 
ATOM     15  H   UNL     1       4.276   4.719  14.882  0.00  0.00    +0.000 HD
BRANCH  14  16
ATOM     16  C   UNL     1       6.245   4.293  15.366  0.00  0.00    +0.000 C 
BRANCH  16  17
ATOM     17  C   UNL     1       7.330   4.864  16.310  0.00  0.00    +0.000 C 
ATOM     18  O   UNL     1       8.040   4.177  17.034  0.00  0.00    +0.000 OA
BRANCH  17  20
ATOM     19  C   UNL     1       7.561   6.935  17.412  0.00  0.00    +0.000 C 
ATOM     20  O   UNL     1       7.440   6.221  16.180  0.00  0.00    +0.000 OA
ENDBRANCH  17  20
ENDBRANCH  16  17
BRANCH  16  21
ATOM     21  C   UNL     1       6.662   4.483  13.894  0.00  0.00    +0.000 C 
BRANCH  21  22
ATOM     22  C   UNL     1       6.196   3.387  12.909  0.00  0.00    +0.000 C 
ATOM     23  C   UNL     1       4.795   3.629  12.344  0.00  0.00    +0.000 C 
ATOM     24  C   UNL     1       7.187   3.269  11.745  0.00  0.00    +0.000 C 
ENDBRANCH  21  22
ENDBRANCH  16  21
ENDBRANCH  14  16
ENDBRANCH   1  14
BRANCH   7  25
ATOM     25  O   UNL     1       1.961   5.164  21.464  0.00  0.00    +0.000 OA
ATOM     26  H   UNL     1       2.751   4.577  21.497  0.00  0.00    +0.000 HD
ENDBRANCH   7  25
BRANCH  10  27
ATOM     27  O   UNL     1       2.453   9.019  17.570  0.00  0.00    +0.000 OA
ATOM     28  H   UNL     1       1.592   9.456  17.466  0.00  0.00    +0.000 HD
ENDBRANCH  10  27
TORSDOF 8
ENDMDL
MODEL 8
REMARK VINA RESULT:      -6.7      1.210      2.842
REMARK  Name = 
REMARK  11 active torsions:
REMARK  status: ('A' for Active; 'I' for Inactive)
REMARK    1  A    between atoms: C_1  and  O_2
REMARK    2  A    between atoms: O_2  and  C_3
REMARK    3  A    between atoms: C_3  and  C_5
REMARK    4  A    between atoms: C_5  and  C_6
REMARK    5  A    between atoms: C_5  and  N_10
REMARK    6  A    between atoms: C_6  and  C_7
REMARK    7  A    between atoms: C_7  and  C_8
REMARK    8  A    between atoms: C_7  and  C_9
REMARK    9  A    between atoms: N_10  and  C_11
REMARK   10  A    between atoms: C_17  and  O_18
REMARK   11  A    between atoms: C_21  and  O_22
REMARK                            x       y       z     vdW  Elec       q    Type
REMARK                         _______ _______ _______ _____ _____    ______ ____
ROOT
ATOM      1  C   UNL     1       4.327   5.093  17.015  0.00  0.00    +0.000 C 
ATOM      2  C   UNL     1       3.953   6.198  17.682  0.00  0.00    +0.000 C 
ATOM      3 CL   UNL     1       4.624   7.760  17.356  0.00  0.00    +0.000 Cl
ATOM      4  C   UNL     1       2.854   6.181  18.679  0.00  0.00    +0.000 C 
ATOM      5  O   UNL     1       2.298   7.199  19.080  0.00  0.00    +0.000 OA
ATOM      6  C   UNL     1       2.426   4.883  19.218  0.00  0.00    +0.000 A 
ATOM      7  C   UNL     1       1.589   4.835  20.345  0.00  0.00    +0.000 A 
ATOM      8  C   UNL     1       1.226   3.620  20.909  0.00  0.00    +0.000 A 
ATOM      9  C   UNL     1       1.688   2.434  20.350  0.00  0.00    +0.000 A 
ATOM     10  C   UNL     1       2.498   2.473  19.213  0.00  0.00    +0.000 A 
ATOM     11  C   UNL     1       2.865   3.702  18.625  0.00  0.00    +0.000 A 
ATOM     12  C   UNL     1       3.673   3.780  17.387  0.00  0.00    +0.000 C 
ATOM     13  O   UNL     1       3.859   2.812  16.652  0.00  0.00    +0.000 OA
ENDROOT
BRANCH   1  14
ATOM     14  N   UNL     1       5.200   4.985  15.923  0.00  0.00    +0.000 N 
ATOM     15  H   UNL     1       4.684   4.590  15.120  0.00  0.00    +0.000 HD
BRANCH  14  16
ATOM     16  C   UNL     1       6.589   4.468  15.925  0.00  0.00    +0.000 C 
BRANCH  16  17
ATOM     17  C   UNL     1       7.327   4.961  17.192  0.00  0.00    +0.000 C 
ATOM     18  O   UNL     1       7.604   4.246  18.148  0.00  0.00    +0.000 OA
BRANCH  17  20
ATOM     19  C   UNL     1       7.910   6.948  18.320  0.00  0.00    +0.000 C 
ATOM     20  O   UNL     1       7.688   6.275  17.079  0.00  0.00    +0.000 OA
ENDBRANCH  17  20
ENDBRANCH  16  17
BRANCH  16  21
ATOM     21  C   UNL     1       7.327   4.943  14.657  0.00  0.00    +0.000 C 
BRANCH  21  22
ATOM     22  C   UNL     1       6.602   4.696  13.315  0.00  0.00    +0.000 C 
ATOM     23  C   UNL     1       7.463   5.002  12.089  0.00  0.00    +0.000 C 
ATOM     24  C   UNL     1       6.123   3.241  13.235  0.00  0.00    +0.000 C 
ENDBRANCH  21  22
ENDBRANCH  16  21
ENDBRANCH  14  16
ENDBRANCH   1  14
BRANCH   7  25
ATOM     25  O   UNL     1       1.085   5.952  20.957  0.00  0.00    +0.000 OA
ATOM     26  H   UNL     1       0.968   6.660  20.282  0.00  0.00    +0.000 HD
ENDBRANCH   7  25
BRANCH  10  27
ATOM     27  O   UNL     1       2.959   1.295  18.705  0.00  0.00    +0.000 OA
ATOM     28  H   UNL     1       3.929   1.299  18.666  0.00  0.00    +0.000 HD
ENDBRANCH  10  27
TORSDOF 8
ENDMDL
MODEL 9
REMARK VINA RESULT:      -6.6      2.043      3.443
REMARK  Name = 
REMARK  11 active torsions:
REMARK  status: ('A' for Active; 'I' for Inactive)
REMARK    1  A    between atoms: C_1  and  O_2
REMARK    2  A    between atoms: O_2  and  C_3
REMARK    3  A    between atoms: C_3  and  C_5
REMARK    4  A    between atoms: C_5  and  C_6
REMARK    5  A    between atoms: C_5  and  N_10
REMARK    6  A    between atoms: C_6  and  C_7
REMARK    7  A    between atoms: C_7  and  C_8
REMARK    8  A    between atoms: C_7  and  C_9
REMARK    9  A    between atoms: N_10  and  C_11
REMARK   10  A    between atoms: C_17  and  O_18
REMARK   11  A    between atoms: C_21  and  O_22
REMARK                            x       y       z     vdW  Elec       q    Type
REMARK                         _______ _______ _______ _____ _____    ______ ____
ROOT
ATOM      1  C   UNL     1       4.085   5.564  17.276  0.00  0.00    +0.000 C 
ATOM      2  C   UNL     1       3.733   4.812  18.332  0.00  0.00    +0.000 C 
ATOM      3 CL   UNL     1       4.080   3.120  18.432  0.00  0.00    +0.000 Cl
ATOM      4  C   UNL     1       3.113   5.400  19.545  0.00  0.00    +0.000 C 
ATOM      5  O   UNL     1       3.052   4.809  20.619  0.00  0.00    +0.000 OA
ATOM      6  C   UNL     1       2.532   6.747  19.445  0.00  0.00    +0.000 A 
ATOM      7  C   UNL     1       1.707   7.231  20.473  0.00  0.00    +0.000 A 
ATOM      8  C   UNL     1       1.098   8.474  20.369  0.00  0.00    +0.000 A 
ATOM      9  C   UNL     1       1.310   9.254  19.237  0.00  0.00    +0.000 A 
ATOM     10  C   UNL     1       2.150   8.790  18.224  0.00  0.00    +0.000 A 
ATOM     11  C   UNL     1       2.783   7.533  18.324  0.00  0.00    +0.000 A 
ATOM     12  C   UNL     1       3.726   7.035  17.296  0.00  0.00    +0.000 C 
ATOM     13  O   UNL     1       4.218   7.762  16.436  0.00  0.00    +0.000 OA
ENDROOT
BRANCH   1  14
ATOM     14  N   UNL     1       4.842   5.197  16.155  0.00  0.00    +0.000 N 
ATOM     15  H   UNL     1       4.587   4.234  15.879  0.00  0.00    +0.000 HD
BRANCH  14  16
ATOM     16  C   UNL     1       6.294   5.408  15.938  0.00  0.00    +0.000 C 
BRANCH  16  17
ATOM     17  C   UNL     1       6.715   4.782  14.587  0.00  0.00    +0.000 C 
ATOM     18  O   UNL     1       6.186   3.794  14.092  0.00  0.00    +0.000 OA
BRANCH  17  20
ATOM     19  C   UNL     1       7.922   5.212  12.607  0.00  0.00    +0.000 C 
ATOM     20  O   UNL     1       7.705   5.511  13.988  0.00  0.00    +0.000 OA
ENDBRANCH  17  20
ENDBRANCH  16  17
BRANCH  16  21
ATOM     21  C   UNL     1       7.093   4.773  17.093  0.00  0.00    +0.000 C 
BRANCH  21  22
ATOM     22  C   UNL     1       7.702   5.756  18.119  0.00  0.00    +0.000 C 
ATOM     23  C   UNL     1       7.570   7.224  17.712  0.00  0.00    +0.000 C 
ATOM     24  C   UNL     1       7.046   5.560  19.491  0.00  0.00    +0.000 C 
ENDBRANCH  21  22
ENDBRANCH  16  21
ENDBRANCH  14  16
ENDBRANCH   1  14
BRANCH   7  25
ATOM     25  O   UNL     1       1.448   6.534  21.622  0.00  0.00    +0.000 OA
ATOM     26  H   UNL     1       2.276   6.089  21.920  0.00  0.00    +0.000 HD
ENDBRANCH   7  25
BRANCH  10  27
ATOM     27  O   UNL     1       2.315   9.564  17.114  0.00  0.00    +0.000 OA
ATOM     28  H   UNL     1       1.772   9.228  16.382  0.00  0.00    +0.000 HD
ENDBRANCH  10  27
TORSDOF 8
ENDMDL
