MODEL 1
REMARK VINA RESULT:      -8.1      0.000      0.000
REMARK  Name = 
REMARK  4 active torsions:
REMARK  status: ('A' for Active; 'I' for Inactive)
REMARK    1  A    between atoms: N_1  and  C_2
REMARK    2  A    between atoms: C_3  and  C_4
REMARK    3  A    between atoms: C_4  and  C_6
REMARK    4  A    between atoms: N_14  and  C_15
REMARK                            x       y       z     vdW  Elec       q    Type
REMARK                         _______ _______ _______ _____ _____    ______ ____
ROOT
ATOM      1  C   UNL     1       4.812   4.696  17.502  0.00  0.00    +0.000 A 
ATOM      2  C   UNL     1       5.350   5.721  16.742  0.00  0.00    +0.000 A 
ATOM      3  C   UNL     1       4.402   6.759  16.843  0.00  0.00    +0.000 A 
ATOM      4  N   UNL     1       3.330   6.425  17.563  0.00  0.00    +0.000 NA
ATOM      5  N   UNL     1       3.610   5.175  18.032  0.00  0.00    +0.000 N 
ENDROOT
BRANCH   5   6
ATOM      6  C   UNL     1       2.706   4.521  18.913  0.00  0.00    +0.000 A 
ATOM      7  C   UNL     1       1.741   3.649  18.385  0.00  0.00    +0.000 A 
ATOM      8  C   UNL     1       0.892   2.948  19.244  0.00  0.00    +0.000 A 
ATOM      9  C   UNL     1       0.972   3.143  20.623  0.00  0.00    +0.000 A 
ATOM     10  C   UNL     1       1.897   4.044  21.147  0.00  0.00    +0.000 A 
ATOM     11  C   UNL     1       2.767   4.729  20.297  0.00  0.00    +0.000 A 
ENDBRANCH   5   6
BRANCH   1  12
ATOM     12  N   UNL     1       5.287   3.430  17.660  0.00  0.00    +0.000 N 
ATOM     13  H   UNL     1       5.525   2.926  16.798  0.00  0.00    +0.000 HD
ATOM     14  H   UNL     1       4.824   2.805  18.321  0.00  0.00    +0.000 HD
ENDBRANCH   1  12
BRANCH   2  15
ATOM     15  C   UNL     1       6.568   5.631  15.956  0.00  0.00    +0.000 C 
ATOM     16  O   UNL     1       7.630   6.112  16.349  0.00  0.00    +0.000 OA
BRANCH  15  17
ATOM     17  C   UNL     1       6.554   4.941  14.642  0.00  0.00    +0.000 A 
ATOM     18  C   UNL     1       7.570   5.242  13.724  0.00  0.00    +0.000 A 
ATOM     19  C   UNL     1       7.555   4.671  12.452  0.00  0.00    +0.000 A 
ATOM     20  C   UNL     1       6.523   3.806  12.091  0.00  0.00    +0.000 A 
ATOM     21  C   UNL     1       5.503   3.511  12.998  0.00  0.00    +0.000 A 
ATOM     22  C   UNL     1       5.514   4.080  14.274  0.00  0.00    +0.000 A 
ENDBRANCH  15  17
ENDBRANCH   2  15
TORSDOF 4
ENDMDL
MODEL 2
REMARK VINA RESULT:      -8.0      0.657      1.251
REMARK  Name = 
REMARK  4 active torsions:
REMARK  status: ('A' for Active; 'I' for Inactive)
REMARK    1  A    between atoms: N_1  and  C_2
REMARK    2  A    between atoms: C_3  and  C_4
REMARK    3  A    between atoms: C_4  and  C_6
REMARK    4  A    between atoms: N_14  and  C_15
REMARK                            x       y       z     vdW  Elec       q    Type
REMARK                         _______ _______ _______ _____ _____    ______ ____
ROOT
ATOM      1  C   UNL     1       4.839   4.233  17.346  0.00  0.00    +0.000 A 
ATOM      2  C   UNL     1       5.659   5.136  16.690  0.00  0.00    +0.000 A 
ATOM      3  C   UNL     1       4.980   6.366  16.808  0.00  0.00    +0.000 A 
ATOM      4  N   UNL     1       3.810   6.264  17.440  0.00  0.00    +0.000 NA
ATOM      5  N   UNL     1       3.750   4.960  17.838  0.00  0.00    +0.000 N 
ENDROOT
BRANCH   5   6
ATOM      6  C   UNL     1       2.655   4.498  18.618  0.00  0.00    +0.000 A 
ATOM      7  C   UNL     1       1.785   3.537  18.081  0.00  0.00    +0.000 A 
ATOM      8  C   UNL     1       0.746   3.025  18.861  0.00  0.00    +0.000 A 
ATOM      9  C   UNL     1       0.545   3.497  20.159  0.00  0.00    +0.000 A 
ATOM     10  C   UNL     1       1.379   4.486  20.679  0.00  0.00    +0.000 A 
ATOM     11  C   UNL     1       2.436   4.984  19.914  0.00  0.00    +0.000 A 
ENDBRANCH   5   6
BRANCH   1  12
ATOM     12  N   UNL     1       4.987   2.884  17.444  0.00  0.00    +0.000 N 
ATOM     13  H   UNL     1       4.381   2.412  18.125  0.00  0.00    +0.000 HD
ATOM     14  H   UNL     1       5.928   2.488  17.471  0.00  0.00    +0.000 HD
ENDBRANCH   1  12
BRANCH   2  15
ATOM     15  C   UNL     1       6.874   4.796  15.971  0.00  0.00    +0.000 C 
ATOM     16  O   UNL     1       7.946   4.633  16.552  0.00  0.00    +0.000 OA
BRANCH  15  17
ATOM     17  C   UNL     1       6.843   4.632  14.496  0.00  0.00    +0.000 A 
ATOM     18  C   UNL     1       5.967   3.683  13.952  0.00  0.00    +0.000 A 
ATOM     19  C   UNL     1       5.957   3.446  12.579  0.00  0.00    +0.000 A 
ATOM     20  C   UNL     1       6.828   4.148  11.746  0.00  0.00    +0.000 A 
ATOM     21  C   UNL     1       7.711   5.087  12.285  0.00  0.00    +0.000 A 
ATOM     22  C   UNL     1       7.723   5.328  13.661  0.00  0.00    +0.000 A 
ENDBRANCH  15  17
ENDBRANCH   2  15
TORSDOF 4
ENDMDL
MODEL 3
REMARK VINA RESULT:      -8.0      0.096      1.086
REMARK  Name = 
REMARK  4 active torsions:
REMARK  status: ('A' for Active; 'I' for Inactive)
REMARK    1  A    between atoms: N_1  and  C_2
REMARK    2  A    between atoms: C_3  and  C_4
REMARK    3  A    between atoms: C_4  and  C_6
REMARK    4  A    between atoms: N_14  and  C_15
REMARK                            x       y       z     vdW  Elec       q    Type
REMARK                         _______ _______ _______ _____ _____    ______ ____
ROOT
ATOM      1  C   UNL     1       4.844   4.717  17.538  0.00  0.00    +0.000 A 
ATOM      2  C   UNL     1       5.347   5.763  16.783  0.00  0.00    +0.000 A 
ATOM      3  C   UNL     1       4.377   6.777  16.910  0.00  0.00    +0.000 A 
ATOM      4  N   UNL     1       3.323   6.410  17.640  0.00  0.00    +0.000 NA
ATOM      5  N   UNL     1       3.638   5.161  18.090  0.00  0.00    +0.000 N 
ENDROOT
BRANCH   5   6
ATOM      6  C   UNL     1       2.763   4.476  18.976  0.00  0.00    +0.000 A 
ATOM      7  C   UNL     1       2.886   4.680  20.359  0.00  0.00    +0.000 A 
ATOM      8  C   UNL     1       1.989   4.067  21.237  0.00  0.00    +0.000 A 
ATOM      9  C   UNL     1       0.997   3.218  20.745  0.00  0.00    +0.000 A 
ATOM     10  C   UNL     1       0.901   2.976  19.375  0.00  0.00    +0.000 A 
ATOM     11  C   UNL     1       1.778   3.606  18.490  0.00  0.00    +0.000 A 
ENDBRANCH   5   6
BRANCH   1  12
ATOM     12  N   UNL     1       5.351   3.461  17.675  0.00  0.00    +0.000 N 
ATOM     13  H   UNL     1       6.374   3.387  17.700  0.00  0.00    +0.000 HD
ATOM     14  H   UNL     1       4.952   2.702  17.121  0.00  0.00    +0.000 HD
ENDBRANCH   1  12
BRANCH   2  15
ATOM     15  C   UNL     1       6.555   5.711  15.980  0.00  0.00    +0.000 C 
ATOM     16  O   UNL     1       7.602   6.241  16.349  0.00  0.00    +0.000 OA
BRANCH  15  17
ATOM     17  C   UNL     1       6.551   5.000  14.676  0.00  0.00    +0.000 A 
ATOM     18  C   UNL     1       7.598   5.251  13.779  0.00  0.00    +0.000 A 
ATOM     19  C   UNL     1       7.595   4.661  12.517  0.00  0.00    +0.000 A 
ATOM     20  C   UNL     1       6.543   3.826  12.143  0.00  0.00    +0.000 A 
ATOM     21  C   UNL     1       5.492   3.581  13.029  0.00  0.00    +0.000 A 
ATOM     22  C   UNL     1       5.491   4.170  14.295  0.00  0.00    +0.000 A 
ENDBRANCH  15  17
ENDBRANCH   2  15
TORSDOF 4
ENDMDL
MODEL 4
REMARK VINA RESULT:      -8.0      0.111      1.535
REMARK  Name = 
REMARK  4 active torsions:
REMARK  status: ('A' for Active; 'I' for Inactive)
REMARK    1  A    between atoms: N_1  and  C_2
REMARK    2  A    between atoms: C_3  and  C_4
REMARK    3  A    between atoms: C_4  and  C_6
REMARK    4  A    between atoms: N_14  and  C_15
REMARK                            x       y       z     vdW  Elec       q    Type
REMARK                         _______ _______ _______ _____ _____    ______ ____
ROOT
ATOM      1  C   UNL     1       4.845   4.645  17.406  0.00  0.00    +0.000 A 
ATOM      2  C   UNL     1       5.407   5.687  16.687  0.00  0.00    +0.000 A 
ATOM      3  C   UNL     1       4.487   6.744  16.837  0.00  0.00    +0.000 A 
ATOM      4  N   UNL     1       3.410   6.407  17.548  0.00  0.00    +0.000 NA
ATOM      5  N   UNL     1       3.659   5.132  17.963  0.00  0.00    +0.000 N 
ENDROOT
BRANCH   5   6
ATOM      6  C   UNL     1       2.742   4.464  18.820  0.00  0.00    +0.000 A 
ATOM      7  C   UNL     1       2.803   4.694  20.203  0.00  0.00    +0.000 A 
ATOM      8  C   UNL     1       1.866   4.099  21.051  0.00  0.00    +0.000 A 
ATOM      9  C   UNL     1       0.895   3.242  20.531  0.00  0.00    +0.000 A 
ATOM     10  C   UNL     1       0.862   2.975  19.163  0.00  0.00    +0.000 A 
ATOM     11  C   UNL     1       1.779   3.587  18.307  0.00  0.00    +0.000 A 
ENDBRANCH   5   6
BRANCH   1  12
ATOM     12  N   UNL     1       5.288   3.362  17.508  0.00  0.00    +0.000 N 
ATOM     13  H   UNL     1       6.071   3.104  16.896  0.00  0.00    +0.000 HD
ATOM     14  H   UNL     1       4.606   2.603  17.552  0.00  0.00    +0.000 HD
ENDBRANCH   1  12
BRANCH   2  15
ATOM     15  C   UNL     1       6.618   5.598  15.891  0.00  0.00    +0.000 C 
ATOM     16  O   UNL     1       7.701   6.004  16.312  0.00  0.00    +0.000 OA
BRANCH  15  17
ATOM     17  C   UNL     1       6.572   5.002  14.532  0.00  0.00    +0.000 A 
ATOM     18  C   UNL     1       5.518   4.131  14.225  0.00  0.00    +0.000 A 
ATOM     19  C   UNL     1       5.476   3.494  12.986  0.00  0.00    +0.000 A 
ATOM     20  C   UNL     1       6.490   3.716  12.055  0.00  0.00    +0.000 A 
ATOM     21  C   UNL     1       7.548   4.574  12.361  0.00  0.00    +0.000 A 
ATOM     22  C   UNL     1       7.594   5.216  13.601  0.00  0.00    +0.000 A 
ENDBRANCH  15  17
ENDBRANCH   2  15
TORSDOF 4
ENDMDL
MODEL 5
REMARK VINA RESULT:      -7.9      1.508      6.596
REMARK  Name = 
REMARK  4 active torsions:
REMARK  status: ('A' for Active; 'I' for Inactive)
REMARK    1  A    between atoms: N_1  and  C_2
REMARK    2  A    between atoms: C_3  and  C_4
REMARK    3  A    between atoms: C_4  and  C_6
REMARK    4  A    between atoms: N_14  and  C_15
REMARK                            x       y       z     vdW  Elec       q    Type
REMARK                         _______ _______ _______ _____ _____    ______ ____
ROOT
ATOM      1  C   UNL     1       5.236   4.587  16.590  0.00  0.00    +0.000 A 
ATOM      2  C   UNL     1       4.677   5.504  17.464  0.00  0.00    +0.000 A 
ATOM      3  C   UNL     1       4.672   6.712  16.738  0.00  0.00    +0.000 A 
ATOM      4  N   UNL     1       5.216   6.601  15.525  0.00  0.00    +0.000 NA
ATOM      5  N   UNL     1       5.502   5.273  15.401  0.00  0.00    +0.000 N 
ENDROOT
BRANCH   5   6
ATOM      6  C   UNL     1       6.035   4.765  14.184  0.00  0.00    +0.000 A 
ATOM      7  C   UNL     1       5.309   3.804  13.464  0.00  0.00    +0.000 A 
ATOM      8  C   UNL     1       5.787   3.347  12.234  0.00  0.00    +0.000 A 
ATOM      9  C   UNL     1       7.006   3.812  11.739  0.00  0.00    +0.000 A 
ATOM     10  C   UNL     1       7.753   4.731  12.475  0.00  0.00    +0.000 A 
ATOM     11  C   UNL     1       7.268   5.212  13.693  0.00  0.00    +0.000 A 
ENDBRANCH   5   6
BRANCH   1  12
ATOM     12  N   UNL     1       5.554   3.285  16.830  0.00  0.00    +0.000 N 
ATOM     13  H   UNL     1       5.937   2.760  16.036  0.00  0.00    +0.000 HD
ATOM     14  H   UNL     1       4.903   2.704  17.360  0.00  0.00    +0.000 HD
ENDBRANCH   1  12
BRANCH   2  15
ATOM     15  C   UNL     1       4.308   5.232  18.841  0.00  0.00    +0.000 C 
ATOM     16  O   UNL     1       5.044   5.531  19.781  0.00  0.00    +0.000 OA
BRANCH  15  17
ATOM     17  C   UNL     1       3.011   4.578  19.147  0.00  0.00    +0.000 A 
ATOM     18  C   UNL     1       2.561   4.585  20.475  0.00  0.00    +0.000 A 
ATOM     19  C   UNL     1       1.384   3.921  20.818  0.00  0.00    +0.000 A 
ATOM     20  C   UNL     1       0.659   3.242  19.841  0.00  0.00    +0.000 A 
ATOM     21  C   UNL     1       1.108   3.223  18.519  0.00  0.00    +0.000 A 
ATOM     22  C   UNL     1       2.287   3.887  18.170  0.00  0.00    +0.000 A 
ENDBRANCH  15  17
ENDBRANCH   2  15
TORSDOF 4
ENDMDL
MODEL 6
REMARK VINA RESULT:      -7.8      1.509      6.655
REMARK  Name = 
REMARK  4 active torsions:
REMARK  status: ('A' for Active; 'I' for Inactive)
REMARK    1  A    between atoms: N_1  and  C_2
REMARK    2  A    between atoms: C_3  and  C_4
REMARK    3  A    between atoms: C_4  and  C_6
REMARK    4  A    between atoms: N_14  and  C_15
REMARK                            x       y       z     vdW  Elec       q    Type
REMARK                         _______ _______ _______ _____ _____    ______ ____
ROOT
ATOM      1  C   UNL     1       5.230   4.551  16.551  0.00  0.00    +0.000 A 
ATOM      2  C   UNL     1       4.726   5.472  17.455  0.00  0.00    +0.000 A 
ATOM      3  C   UNL     1       4.755   6.694  16.753  0.00  0.00    +0.000 A 
ATOM      4  N   UNL     1       5.269   6.585  15.528  0.00  0.00    +0.000 NA
ATOM      5  N   UNL     1       5.500   5.250  15.371  0.00  0.00    +0.000 N 
ENDROOT
BRANCH   5   6
ATOM      6  C   UNL     1       5.987   4.747  14.134  0.00  0.00    +0.000 A 
ATOM      7  C   UNL     1       7.223   5.199  13.647  0.00  0.00    +0.000 A 
ATOM      8  C   UNL     1       7.746   4.663  12.468  0.00  0.00    +0.000 A 
ATOM      9  C   UNL     1       7.022   3.710  11.750  0.00  0.00    +0.000 A 
ATOM     10  C   UNL     1       5.772   3.294  12.205  0.00  0.00    +0.000 A 
ATOM     11  C   UNL     1       5.255   3.806  13.397  0.00  0.00    +0.000 A 
ENDBRANCH   5   6
BRANCH   1  12
ATOM     12  N   UNL     1       5.501   3.233  16.759  0.00  0.00    +0.000 N 
ATOM     13  H   UNL     1       5.843   2.709  15.946  0.00  0.00    +0.000 HD
ATOM     14  H   UNL     1       4.839   2.668  17.294  0.00  0.00    +0.000 HD
ENDBRANCH   1  12
BRANCH   2  15
ATOM     15  C   UNL     1       4.374   5.185  18.834  0.00  0.00    +0.000 C 
ATOM     16  O   UNL     1       5.136   5.446  19.765  0.00  0.00    +0.000 OA
BRANCH  15  17
ATOM     17  C   UNL     1       3.064   4.565  19.153  0.00  0.00    +0.000 A 
ATOM     18  C   UNL     1       2.609   4.620  20.478  0.00  0.00    +0.000 A 
ATOM     19  C   UNL     1       1.419   3.988  20.835  0.00  0.00    +0.000 A 
ATOM     20  C   UNL     1       0.685   3.293  19.875  0.00  0.00    +0.000 A 
ATOM     21  C   UNL     1       1.140   3.226  18.556  0.00  0.00    +0.000 A 
ATOM     22  C   UNL     1       2.332   3.858  18.193  0.00  0.00    +0.000 A 
ENDBRANCH  15  17
ENDBRANCH   2  15
TORSDOF 4
ENDMDL
MODEL 7
REMARK VINA RESULT:      -7.7      1.504      6.570
REMARK  Name = 
REMARK  4 active torsions:
REMARK  status: ('A' for Active; 'I' for Inactive)
REMARK    1  A    between atoms: N_1  and  C_2
REMARK    2  A    between atoms: C_3  and  C_4
REMARK    3  A    between atoms: C_4  and  C_6
REMARK    4  A    between atoms: N_14  and  C_15
REMARK                            x       y       z     vdW  Elec       q    Type
REMARK                         _______ _______ _______ _____ _____    ______ ____
ROOT
ATOM      1  C   UNL     1       5.297   4.592  16.595  0.00  0.00    +0.000 A 
ATOM      2  C   UNL     1       4.742   5.513  17.467  0.00  0.00    +0.000 A 
ATOM      3  C   UNL     1       4.703   6.710  16.724  0.00  0.00    +0.000 A 
ATOM      4  N   UNL     1       5.224   6.589  15.502  0.00  0.00    +0.000 NA
ATOM      5  N   UNL     1       5.528   5.264  15.390  0.00  0.00    +0.000 N 
ENDROOT
BRANCH   5   6
ATOM      6  C   UNL     1       6.043   4.747  14.170  0.00  0.00    +0.000 A 
ATOM      7  C   UNL     1       5.303   3.787  13.464  0.00  0.00    +0.000 A 
ATOM      8  C   UNL     1       5.764   3.321  12.230  0.00  0.00    +0.000 A 
ATOM      9  C   UNL     1       6.980   3.776  11.719  0.00  0.00    +0.000 A 
ATOM     10  C   UNL     1       7.741   4.694  12.442  0.00  0.00    +0.000 A 
ATOM     11  C   UNL     1       7.274   5.184  13.662  0.00  0.00    +0.000 A 
ENDBRANCH   5   6
BRANCH   1  12
ATOM     12  N   UNL     1       5.641   3.299  16.847  0.00  0.00    +0.000 N 
ATOM     13  H   UNL     1       5.264   2.892  17.710  0.00  0.00    +0.000 HD
ATOM     14  H   UNL     1       6.610   3.007  16.709  0.00  0.00    +0.000 HD
ENDBRANCH   1  12
BRANCH   2  15
ATOM     15  C   UNL     1       4.406   5.255  18.855  0.00  0.00    +0.000 C 
ATOM     16  O   UNL     1       5.144   5.604  19.776  0.00  0.00    +0.000 OA
BRANCH  15  17
ATOM     17  C   UNL     1       3.141   4.557  19.196  0.00  0.00    +0.000 A 
ATOM     18  C   UNL     1       2.376   4.021  18.151  0.00  0.00    +0.000 A 
ATOM     19  C   UNL     1       1.147   3.421  18.419  0.00  0.00    +0.000 A 
ATOM     20  C   UNL     1       0.674   3.363  19.730  0.00  0.00    +0.000 A 
ATOM     21  C   UNL     1       1.427   3.905  20.773  0.00  0.00    +0.000 A 
ATOM     22  C   UNL     1       2.660   4.507  20.509  0.00  0.00    +0.000 A 
ENDBRANCH  15  17
ENDBRANCH   2  15
TORSDOF 4
ENDMDL
MODEL 8
REMARK VINA RESULT:      -7.7      1.505      6.631
REMARK  Name = 
REMARK  4 active torsions:
REMARK  status: ('A' for Active; 'I' for Inactive)
REMARK    1  A    between atoms: N_1  and  C_2
REMARK    2  A    between atoms: C_3  and  C_4
REMARK    3  A    between atoms: C_4  and  C_6
REMARK    4  A    between atoms: N_14  and  C_15
REMARK                            x       y       z     vdW  Elec       q    Type
REMARK                         _______ _______ _______ _____ _____    ______ ____
ROOT
ATOM      1  C   UNL     1       5.269   4.560  16.556  0.00  0.00    +0.000 A 
ATOM      2  C   UNL     1       4.758   5.479  17.457  0.00  0.00    +0.000 A 
ATOM      3  C   UNL     1       4.737   6.691  16.737  0.00  0.00    +0.000 A 
ATOM      4  N   UNL     1       5.228   6.578  15.502  0.00  0.00    +0.000 NA
ATOM      5  N   UNL     1       5.493   5.248  15.360  0.00  0.00    +0.000 N 
ENDROOT
BRANCH   5   6
ATOM      6  C   UNL     1       5.968   4.740  14.120  0.00  0.00    +0.000 A 
ATOM      7  C   UNL     1       7.209   5.173  13.630  0.00  0.00    +0.000 A 
ATOM      8  C   UNL     1       7.720   4.632  12.448  0.00  0.00    +0.000 A 
ATOM      9  C   UNL     1       6.979   3.692  11.730  0.00  0.00    +0.000 A 
ATOM     10  C   UNL     1       5.724   3.295  12.190  0.00  0.00    +0.000 A 
ATOM     11  C   UNL     1       5.219   3.812  13.384  0.00  0.00    +0.000 A 
ENDBRANCH   5   6
BRANCH   1  12
ATOM     12  N   UNL     1       5.581   3.253  16.777  0.00  0.00    +0.000 N 
ATOM     13  H   UNL     1       5.075   2.791  17.540  0.00  0.00    +0.000 HD
ATOM     14  H   UNL     1       6.563   2.971  16.779  0.00  0.00    +0.000 HD
ENDBRANCH   1  12
BRANCH   2  15
ATOM     15  C   UNL     1       4.444   5.204  18.847  0.00  0.00    +0.000 C 
ATOM     16  O   UNL     1       5.211   5.514  19.758  0.00  0.00    +0.000 OA
BRANCH  15  17
ATOM     17  C   UNL     1       3.166   4.537  19.202  0.00  0.00    +0.000 A 
ATOM     18  C   UNL     1       2.366   4.041  18.164  0.00  0.00    +0.000 A 
ATOM     19  C   UNL     1       1.126   3.472  18.448  0.00  0.00    +0.000 A 
ATOM     20  C   UNL     1       0.677   3.404  19.766  0.00  0.00    +0.000 A 
ATOM     21  C   UNL     1       1.466   3.907  20.803  0.00  0.00    +0.000 A 
ATOM     22  C   UNL     1       2.710   4.477  20.524  0.00  0.00    +0.000 A 
ENDBRANCH  15  17
ENDBRANCH   2  15
TORSDOF 4
ENDMDL
MODEL 9
REMARK VINA RESULT:      -7.6      1.395      1.882
REMARK  Name = 
REMARK  4 active torsions:
REMARK  status: ('A' for Active; 'I' for Inactive)
REMARK    1  A    between atoms: N_1  and  C_2
REMARK    2  A    between atoms: C_3  and  C_4
REMARK    3  A    between atoms: C_4  and  C_6
REMARK    4  A    between atoms: N_14  and  C_15
REMARK                            x       y       z     vdW  Elec       q    Type
REMARK                         _______ _______ _______ _____ _____    ______ ____
ROOT
ATOM      1  C   UNL     1       5.249   4.118  18.013  0.00  0.00    +0.000 A 
ATOM      2  C   UNL     1       5.463   4.258  16.652  0.00  0.00    +0.000 A 
ATOM      3  C   UNL     1       4.201   4.006  16.077  0.00  0.00    +0.000 A 
ATOM      4  N   UNL     1       3.267   3.688  16.975  0.00  0.00    +0.000 NA
ATOM      5  N   UNL     1       3.892   3.825  18.180  0.00  0.00    +0.000 N 
ENDROOT
BRANCH   5   6
ATOM      6  C   UNL     1       3.167   3.635  19.389  0.00  0.00    +0.000 A 
ATOM      7  C   UNL     1       2.095   4.489  19.688  0.00  0.00    +0.000 A 
ATOM      8  C   UNL     1       1.332   4.272  20.838  0.00  0.00    +0.000 A 
ATOM      9  C   UNL     1       1.660   3.234  21.712  0.00  0.00    +0.000 A 
ATOM     10  C   UNL     1       2.754   2.414  21.441  0.00  0.00    +0.000 A 
ATOM     11  C   UNL     1       3.505   2.609  20.280  0.00  0.00    +0.000 A 
ENDBRANCH   5   6
BRANCH   1  12
ATOM     12  N   UNL     1       6.167   4.167  19.016  0.00  0.00    +0.000 N 
ATOM     13  H   UNL     1       5.799   4.351  19.957  0.00  0.00    +0.000 HD
ATOM     14  H   UNL     1       7.038   4.680  18.868  0.00  0.00    +0.000 HD
ENDBRANCH   1  12
BRANCH   2  15
ATOM     15  C   UNL     1       6.751   4.501  16.027  0.00  0.00    +0.000 C 
ATOM     16  O   UNL     1       7.768   4.691  16.693  0.00  0.00    +0.000 OA
BRANCH  15  17
ATOM     17  C   UNL     1       6.866   4.522  14.548  0.00  0.00    +0.000 A 
ATOM     18  C   UNL     1       6.163   3.557  13.813  0.00  0.00    +0.000 A 
ATOM     19  C   UNL     1       6.300   3.496  12.428  0.00  0.00    +0.000 A 
ATOM     20  C   UNL     1       7.146   4.389  11.772  0.00  0.00    +0.000 A 
ATOM     21  C   UNL     1       7.858   5.345  12.500  0.00  0.00    +0.000 A 
ATOM     22  C   UNL     1       7.723   5.411  13.889  0.00  0.00    +0.000 A 
ENDBRANCH  15  17
ENDBRANCH   2  15
TORSDOF 4
ENDMDL
