MODEL 1
REMARK VINA RESULT:      -7.2      0.000      0.000
REMARK  Name = 
REMARK  11 active torsions:
REMARK  status: ('A' for Active; 'I' for Inactive)
REMARK    1  A    between atoms: C_1  and  C_2
REMARK    2  A    between atoms: N_4  and  C_5
REMARK    3  A    between atoms: C_5  and  C_6
REMARK    4  A    between atoms: C_6  and  O_8
REMARK    5  A    between atoms: C_17  and  N_18
REMARK    6  A    between atoms: N_18  and  C_19
REMARK    7  A    between atoms: C_19  and  C_20
REMARK    8  A    between atoms: C_20  and  C_21
REMARK    9  A    between atoms: C_21  and  N_22
REMARK   10  A    between atoms: N_22  and  C_23
REMARK   11  A    between atoms: N_22  and  C_24
REMARK                            x       y       z     vdW  Elec       q    Type
REMARK                         _______ _______ _______ _____ _____    ______ ____
ROOT
ATOM      1  C   UNL     1       4.711   2.642  19.659  0.00  0.00    +0.000 C 
ATOM      2  C   UNL     1       4.778   3.968  18.985  0.00  0.00    +0.000 A 
ATOM      3  N   UNL     1       5.684   4.023  17.990  0.00  0.00    +0.000 NA
ATOM      4  N   UNL     1       5.554   5.272  17.517  0.00  0.00    +0.000 N 
ATOM      5  C   UNL     1       4.476   5.933  18.020  0.00  0.00    +0.000 A 
ATOM      6  N   UNL     1       4.018   7.083  17.524  0.00  0.00    +0.000 NA
ATOM      7  C   UNL     1       3.006   7.614  18.192  0.00  0.00    +0.000 A 
ATOM      8  C   UNL     1       2.425   8.731  17.605  0.00  0.00    +0.000 A 
ATOM      9  C   UNL     1       1.402   9.448  18.222  0.00  0.00    +0.000 A 
ATOM     10  C   UNL     1       0.953   9.042  19.458  0.00  0.00    +0.000 A 
ATOM     11  C   UNL     1       1.499   7.890  20.045  0.00  0.00    +0.000 A 
ATOM     12  C   UNL     1       2.529   7.119  19.431  0.00  0.00    +0.000 A 
ATOM     13  C   UNL     1       3.115   5.891  19.982  0.00  0.00    +0.000 A 
ATOM     14  C   UNL     1       4.063   5.218  19.137  0.00  0.00    +0.000 A 
ENDROOT
BRANCH  13  15
ATOM     15  N   UNL     1       2.601   5.444  21.231  0.00  0.00    +0.000 N 
ATOM     16  H   UNL     1       3.351   5.483  21.914  0.00  0.00    +0.000 HD
BRANCH  15  17
ATOM     17  C   UNL     1       2.019   4.110  21.401  0.00  0.00    +0.000 C 
BRANCH  17  18
ATOM     18  C   UNL     1       0.928   3.965  20.331  0.00  0.00    +0.000 C 
BRANCH  18  19
ATOM     19  C   UNL     1       0.960   2.638  19.567  0.00  0.00    +0.000 C 
BRANCH  19  20
ATOM     20  N   UNL     1       1.089   2.750  18.104  0.00  0.00    +0.000 NA
ATOM     21  C   UNL     1       1.226   4.142  17.663  0.00  0.00    +0.000 C 
ATOM     22  C   UNL     1       2.266   1.991  17.660  0.00  0.00    +0.000 C 
ENDBRANCH  19  20
ENDBRANCH  18  19
ENDBRANCH  17  18
ENDBRANCH  15  17
ENDBRANCH  13  15
BRANCH   4  23
ATOM     23  C   UNL     1       6.698   5.884  16.884  0.00  0.00    +0.000 C 
BRANCH  23  24
ATOM     24  C   UNL     1       6.840   5.319  15.489  0.00  0.00    +0.000 C 
ATOM     25  O   UNL     1       7.831   5.475  14.786  0.00  0.00    +0.000 OA
BRANCH  24  26
ATOM     26  O   UNL     1       5.745   4.650  15.040  0.00  0.00    +0.000 OA
ATOM     27  H   UNL     1       5.289   5.141  14.309  0.00  0.00    +0.000 HD
ENDBRANCH  24  26
ENDBRANCH  23  24
ENDBRANCH   4  23
TORSDOF 8
ENDMDL
MODEL 2
REMARK VINA RESULT:      -7.1      1.250      1.338
REMARK  Name = 
REMARK  11 active torsions:
REMARK  status: ('A' for Active; 'I' for Inactive)
REMARK    1  A    between atoms: C_1  and  C_2
REMARK    2  A    between atoms: N_4  and  C_5
REMARK    3  A    between atoms: C_5  and  C_6
REMARK    4  A    between atoms: C_6  and  O_8
REMARK    5  A    between atoms: C_17  and  N_18
REMARK    6  A    between atoms: N_18  and  C_19
REMARK    7  A    between atoms: C_19  and  C_20
REMARK    8  A    between atoms: C_20  and  C_21
REMARK    9  A    between atoms: C_21  and  N_22
REMARK   10  A    between atoms: N_22  and  C_23
REMARK   11  A    between atoms: N_22  and  C_24
REMARK                            x       y       z     vdW  Elec       q    Type
REMARK                         _______ _______ _______ _____ _____    ______ ____
ROOT
ATOM      1  C   UNL     1       4.789   2.883  19.414  0.00  0.00    +0.000 C 
ATOM      2  C   UNL     1       4.802   4.221  18.762  0.00  0.00    +0.000 A 
ATOM      3  N   UNL     1       5.677   4.319  17.743  0.00  0.00    +0.000 NA
ATOM      4  N   UNL     1       5.500   5.572  17.296  0.00  0.00    +0.000 N 
ATOM      5  C   UNL     1       4.419   6.194  17.842  0.00  0.00    +0.000 A 
ATOM      6  N   UNL     1       3.917   7.340  17.380  0.00  0.00    +0.000 NA
ATOM      7  C   UNL     1       2.911   7.832  18.086  0.00  0.00    +0.000 A 
ATOM      8  C   UNL     1       2.284   8.943  17.536  0.00  0.00    +0.000 A 
ATOM      9  C   UNL     1       1.261   9.620  18.195  0.00  0.00    +0.000 A 
ATOM     10  C   UNL     1       0.858   9.181  19.435  0.00  0.00    +0.000 A 
ATOM     11  C   UNL     1       1.451   8.034  19.986  0.00  0.00    +0.000 A 
ATOM     12  C   UNL     1       2.483   7.302  19.329  0.00  0.00    +0.000 A 
ATOM     13  C   UNL     1       3.117   6.081  19.840  0.00  0.00    +0.000 A 
ATOM     14  C   UNL     1       4.058   5.449  18.957  0.00  0.00    +0.000 A 
ENDROOT
BRANCH  13  15
ATOM     15  N   UNL     1       2.651   5.599  21.095  0.00  0.00    +0.000 N 
ATOM     16  H   UNL     1       3.413   5.666  21.762  0.00  0.00    +0.000 HD
BRANCH  15  17
ATOM     17  C   UNL     1       2.135   4.238  21.263  0.00  0.00    +0.000 C 
BRANCH  17  18
ATOM     18  C   UNL     1       0.965   4.085  20.282  0.00  0.00    +0.000 C 
BRANCH  18  19
ATOM     19  C   UNL     1       0.901   2.728  19.575  0.00  0.00    +0.000 C 
BRANCH  19  20
ATOM     20  N   UNL     1       1.056   2.765  18.111  0.00  0.00    +0.000 NA
ATOM     21  C   UNL     1       1.238   4.130  17.606  0.00  0.00    +0.000 C 
ATOM     22  C   UNL     1       2.220   1.955  17.725  0.00  0.00    +0.000 C 
ENDBRANCH  19  20
ENDBRANCH  18  19
ENDBRANCH  17  18
ENDBRANCH  15  17
ENDBRANCH  13  15
BRANCH   4  23
ATOM     23  C   UNL     1       6.609   6.226  16.643  0.00  0.00    +0.000 C 
BRANCH  23  24
ATOM     24  C   UNL     1       7.401   6.988  17.681  0.00  0.00    +0.000 C 
ATOM     25  O   UNL     1       7.747   8.157  17.554  0.00  0.00    +0.000 OA
BRANCH  24  26
ATOM     26  O   UNL     1       7.754   6.253  18.769  0.00  0.00    +0.000 OA
ATOM     27  H   UNL     1       7.022   6.208  19.435  0.00  0.00    +0.000 HD
ENDBRANCH  24  26
ENDBRANCH  23  24
ENDBRANCH   4  23
TORSDOF 8
ENDMDL
MODEL 3
REMARK VINA RESULT:      -6.9      1.794      4.796
REMARK  Name = 
REMARK  11 active torsions:
REMARK  status: ('A' for Active; 'I' for Inactive)
REMARK    1  A    between atoms: C_1  and  C_2
REMARK    2  A    between atoms: N_4  and  C_5
REMARK    3  A    between atoms: C_5  and  C_6
REMARK    4  A    between atoms: C_6  and  O_8
REMARK    5  A    between atoms: C_17  and  N_18
REMARK    6  A    between atoms: N_18  and  C_19
REMARK    7  A    between atoms: C_19  and  C_20
REMARK    8  A    between atoms: C_20  and  C_21
REMARK    9  A    between atoms: C_21  and  N_22
REMARK   10  A    between atoms: N_22  and  C_23
REMARK   11  A    between atoms: N_22  and  C_24
REMARK                            x       y       z     vdW  Elec       q    Type
REMARK                         _______ _______ _______ _____ _____    ______ ____
ROOT
ATOM      1  C   UNL     1       6.813   7.630  17.582  0.00  0.00    +0.000 C 
ATOM      2  C   UNL     1       6.223   6.297  17.276  0.00  0.00    +0.000 A 
ATOM      3  N   UNL     1       7.035   5.497  16.559  0.00  0.00    +0.000 NA
ATOM      4  N   UNL     1       6.326   4.366  16.429  0.00  0.00    +0.000 N 
ATOM      5  C   UNL     1       5.205   4.338  17.200  0.00  0.00    +0.000 A 
ATOM      6  N   UNL     1       4.482   3.237  17.411  0.00  0.00    +0.000 NA
ATOM      7  C   UNL     1       3.384   3.420  18.127  0.00  0.00    +0.000 A 
ATOM      8  C   UNL     1       2.702   2.261  18.478  0.00  0.00    +0.000 A 
ATOM      9  C   UNL     1       1.490   2.293  19.163  0.00  0.00    +0.000 A 
ATOM     10  C   UNL     1       0.943   3.510  19.500  0.00  0.00    +0.000 A 
ATOM     11  C   UNL     1       1.640   4.687  19.191  0.00  0.00    +0.000 A 
ATOM     12  C   UNL     1       2.894   4.692  18.513  0.00  0.00    +0.000 A 
ATOM     13  C   UNL     1       3.683   5.887  18.191  0.00  0.00    +0.000 A 
ATOM     14  C   UNL     1       4.971   5.646  17.602  0.00  0.00    +0.000 A 
ENDROOT
BRANCH  13  15
ATOM     15  N   UNL     1       3.140   7.138  18.599  0.00  0.00    +0.000 N 
ATOM     16  H   UNL     1       2.214   6.972  18.979  0.00  0.00    +0.000 HD
BRANCH  15  17
ATOM     17  C   UNL     1       2.958   8.250  17.662  0.00  0.00    +0.000 C 
BRANCH  17  18
ATOM     18  C   UNL     1       1.556   8.819  17.920  0.00  0.00    +0.000 C 
BRANCH  18  19
ATOM     19  C   UNL     1       1.311   9.280  19.360  0.00  0.00    +0.000 C 
BRANCH  19  20
ATOM     20  N   UNL     1      -0.019   9.851  19.628  0.00  0.00    +0.000 NA
ATOM     21  C   UNL     1      -0.124  10.405  20.982  0.00  0.00    +0.000 C 
ATOM     22  C   UNL     1      -0.295  10.917  18.655  0.00  0.00    +0.000 C 
ENDBRANCH  19  20
ENDBRANCH  18  19
ENDBRANCH  17  18
ENDBRANCH  15  17
ENDBRANCH  13  15
BRANCH   4  23
ATOM     23  C   UNL     1       6.581   3.530  15.280  0.00  0.00    +0.000 C 
BRANCH  23  24
ATOM     24  C   UNL     1       6.273   4.320  14.028  0.00  0.00    +0.000 C 
ATOM     25  O   UNL     1       5.306   4.107  13.306  0.00  0.00    +0.000 OA
BRANCH  24  26
ATOM     26  O   UNL     1       7.194   5.273  13.725  0.00  0.00    +0.000 OA
ATOM     27  H   UNL     1       8.089   4.880  13.560  0.00  0.00    +0.000 HD
ENDBRANCH  24  26
ENDBRANCH  23  24
ENDBRANCH   4  23
TORSDOF 8
ENDMDL
MODEL 4
REMARK VINA RESULT:      -6.9      3.676      6.741
REMARK  Name = 
REMARK  11 active torsions:
REMARK  status: ('A' for Active; 'I' for Inactive)
REMARK    1  A    between atoms: C_1  and  C_2
REMARK    2  A    between atoms: N_4  and  C_5
REMARK    3  A    between atoms: C_5  and  C_6
REMARK    4  A    between atoms: C_6  and  O_8
REMARK    5  A    between atoms: C_17  and  N_18
REMARK    6  A    between atoms: N_18  and  C_19
REMARK    7  A    between atoms: C_19  and  C_20
REMARK    8  A    between atoms: C_20  and  C_21
REMARK    9  A    between atoms: C_21  and  N_22
REMARK   10  A    between atoms: N_22  and  C_23
REMARK   11  A    between atoms: N_22  and  C_24
REMARK                            x       y       z     vdW  Elec       q    Type
REMARK                         _______ _______ _______ _____ _____    ______ ____
ROOT
ATOM      1  C   UNL     1       1.902   9.634  17.698  0.00  0.00    +0.000 C 
ATOM      2  C   UNL     1       1.827   8.781  18.916  0.00  0.00    +0.000 A 
ATOM      3  N   UNL     1       1.308   9.410  19.987  0.00  0.00    +0.000 NA
ATOM      4  N   UNL     1       1.309   8.464  20.938  0.00  0.00    +0.000 N 
ATOM      5  C   UNL     1       1.604   7.222  20.466  0.00  0.00    +0.000 A 
ATOM      6  N   UNL     1       1.435   6.105  21.174  0.00  0.00    +0.000 NA
ATOM      7  C   UNL     1       1.848   4.998  20.576  0.00  0.00    +0.000 A 
ATOM      8  C   UNL     1       1.544   3.814  21.238  0.00  0.00    +0.000 A 
ATOM      9  C   UNL     1       1.977   2.574  20.776  0.00  0.00    +0.000 A 
ATOM     10  C   UNL     1       2.737   2.514  19.630  0.00  0.00    +0.000 A 
ATOM     11  C   UNL     1       3.015   3.696  18.926  0.00  0.00    +0.000 A 
ATOM     12  C   UNL     1       2.568   4.980  19.356  0.00  0.00    +0.000 A 
ATOM     13  C   UNL     1       2.801   6.243  18.647  0.00  0.00    +0.000 A 
ATOM     14  C   UNL     1       2.162   7.401  19.207  0.00  0.00    +0.000 A 
ENDROOT
BRANCH  13  15
ATOM     15  N   UNL     1       3.534   6.165  17.430  0.00  0.00    +0.000 N 
ATOM     16  H   UNL     1       3.878   5.216  17.328  0.00  0.00    +0.000 HD
BRANCH  15  17
ATOM     17  C   UNL     1       4.704   7.009  17.169  0.00  0.00    +0.000 C 
BRANCH  17  18
ATOM     18  C   UNL     1       5.395   6.434  15.926  0.00  0.00    +0.000 C 
BRANCH  18  19
ATOM     19  C   UNL     1       6.906   6.237  16.072  0.00  0.00    +0.000 C 
BRANCH  19  20
ATOM     20  N   UNL     1       7.348   4.850  16.299  0.00  0.00    +0.000 NA
ATOM     21  C   UNL     1       7.541   4.555  17.723  0.00  0.00    +0.000 C 
ATOM     22  C   UNL     1       6.346   3.925  15.753  0.00  0.00    +0.000 C 
ENDBRANCH  19  20
ENDBRANCH  18  19
ENDBRANCH  17  18
ENDBRANCH  15  17
ENDBRANCH  13  15
BRANCH   4  23
ATOM     23  C   UNL     1       1.389   8.884  22.317  0.00  0.00    +0.000 C 
BRANCH  23  24
ATOM     24  C   UNL     1       0.059   9.478  22.720  0.00  0.00    +0.000 C 
ATOM     25  O   UNL     1      -0.107  10.660  22.995  0.00  0.00    +0.000 OA
BRANCH  24  26
ATOM     26  O   UNL     1      -0.955   8.576  22.809  0.00  0.00    +0.000 OA
ATOM     27  H   UNL     1      -0.662   7.735  23.244  0.00  0.00    +0.000 HD
ENDBRANCH  24  26
ENDBRANCH  23  24
ENDBRANCH   4  23
TORSDOF 8
ENDMDL
MODEL 5
REMARK VINA RESULT:      -6.8      1.560      4.481
REMARK  Name = 
REMARK  11 active torsions:
REMARK  status: ('A' for Active; 'I' for Inactive)
REMARK    1  A    between atoms: C_1  and  C_2
REMARK    2  A    between atoms: N_4  and  C_5
REMARK    3  A    between atoms: C_5  and  C_6
REMARK    4  A    between atoms: C_6  and  O_8
REMARK    5  A    between atoms: C_17  and  N_18
REMARK    6  A    between atoms: N_18  and  C_19
REMARK    7  A    between atoms: C_19  and  C_20
REMARK    8  A    between atoms: C_20  and  C_21
REMARK    9  A    between atoms: C_21  and  N_22
REMARK   10  A    between atoms: N_22  and  C_23
REMARK   11  A    between atoms: N_22  and  C_24
REMARK                            x       y       z     vdW  Elec       q    Type
REMARK                         _______ _______ _______ _____ _____    ______ ____
ROOT
ATOM      1  C   UNL     1       7.284   6.395  19.019  0.00  0.00    +0.000 C 
ATOM      2  C   UNL     1       6.435   5.449  18.243  0.00  0.00    +0.000 A 
ATOM      3  N   UNL     1       7.081   4.856  17.221  0.00  0.00    +0.000 NA
ATOM      4  N   UNL     1       6.152   4.044  16.693  0.00  0.00    +0.000 N 
ATOM      5  C   UNL     1       5.028   3.940  17.453  0.00  0.00    +0.000 A 
ATOM      6  N   UNL     1       4.083   3.020  17.250  0.00  0.00    +0.000 NA
ATOM      7  C   UNL     1       3.027   3.122  18.042  0.00  0.00    +0.000 A 
ATOM      8  C   UNL     1       2.106   2.087  17.943  0.00  0.00    +0.000 A 
ATOM      9  C   UNL     1       0.908   2.089  18.653  0.00  0.00    +0.000 A 
ATOM     10  C   UNL     1       0.621   3.153  19.478  0.00  0.00    +0.000 A 
ATOM     11  C   UNL     1       1.560   4.185  19.623  0.00  0.00    +0.000 A 
ATOM     12  C   UNL     1       2.807   4.204  18.930  0.00  0.00    +0.000 A 
ATOM     13  C   UNL     1       3.839   5.238  19.066  0.00  0.00    +0.000 A 
ATOM     14  C   UNL     1       5.064   4.994  18.356  0.00  0.00    +0.000 A 
ENDROOT
BRANCH  13  15
ATOM     15  N   UNL     1       3.561   6.302  19.968  0.00  0.00    +0.000 N 
ATOM     16  H   UNL     1       3.293   5.900  20.860  0.00  0.00    +0.000 HD
BRANCH  15  17
ATOM     17  C   UNL     1       2.529   7.306  19.693  0.00  0.00    +0.000 C 
BRANCH  17  18
ATOM     18  C   UNL     1       2.816   7.863  18.292  0.00  0.00    +0.000 C 
BRANCH  18  19
ATOM     19  C   UNL     1       1.711   8.758  17.725  0.00  0.00    +0.000 C 
BRANCH  19  20
ATOM     20  N   UNL     1       1.355   9.927  18.546  0.00  0.00    +0.000 NA
ATOM     21  C   UNL     1       2.119  11.122  18.173  0.00  0.00    +0.000 C 
ATOM     22  C   UNL     1      -0.079  10.212  18.392  0.00  0.00    +0.000 C 
ENDBRANCH  19  20
ENDBRANCH  18  19
ENDBRANCH  17  18
ENDBRANCH  15  17
ENDBRANCH  13  15
BRANCH   4  23
ATOM     23  C   UNL     1       6.259   3.706  15.294  0.00  0.00    +0.000 C 
BRANCH  23  24
ATOM     24  C   UNL     1       6.494   4.974  14.505  0.00  0.00    +0.000 C 
ATOM     25  O   UNL     1       7.390   5.111  13.682  0.00  0.00    +0.000 OA
BRANCH  24  26
ATOM     26  O   UNL     1       5.651   5.994  14.819  0.00  0.00    +0.000 OA
ATOM     27  H   UNL     1       6.115   6.870  14.813  0.00  0.00    +0.000 HD
ENDBRANCH  24  26
ENDBRANCH  23  24
ENDBRANCH   4  23
TORSDOF 8
ENDMDL
MODEL 6
REMARK VINA RESULT:      -6.7      2.746      5.869
REMARK  Name = 
REMARK  11 active torsions:
REMARK  status: ('A' for Active; 'I' for Inactive)
REMARK    1  A    between atoms: C_1  and  C_2
REMARK    2  A    between atoms: N_4  and  C_5
REMARK    3  A    between atoms: C_5  and  C_6
REMARK    4  A    between atoms: C_6  and  O_8
REMARK    5  A    between atoms: C_17  and  N_18
REMARK    6  A    between atoms: N_18  and  C_19
REMARK    7  A    between atoms: C_19  and  C_20
REMARK    8  A    between atoms: C_20  and  C_21
REMARK    9  A    between atoms: C_21  and  N_22
REMARK   10  A    between atoms: N_22  and  C_23
REMARK   11  A    between atoms: N_22  and  C_24
REMARK                            x       y       z     vdW  Elec       q    Type
REMARK                         _______ _______ _______ _____ _____    ______ ____
ROOT
ATOM      1  C   UNL     1       4.801   6.958  15.827  0.00  0.00    +0.000 C 
ATOM      2  C   UNL     1       3.916   6.918  17.024  0.00  0.00    +0.000 A 
ATOM      3  N   UNL     1       3.171   8.028  17.185  0.00  0.00    +0.000 NA
ATOM      4  N   UNL     1       2.447   7.763  18.282  0.00  0.00    +0.000 N 
ATOM      5  C   UNL     1       2.543   6.470  18.696  0.00  0.00    +0.000 A 
ATOM      6  N   UNL     1       1.739   5.926  19.611  0.00  0.00    +0.000 NA
ATOM      7  C   UNL     1       2.032   4.678  19.940  0.00  0.00    +0.000 A 
ATOM      8  C   UNL     1       1.118   4.052  20.778  0.00  0.00    +0.000 A 
ATOM      9  C   UNL     1       1.325   2.767  21.275  0.00  0.00    +0.000 A 
ATOM     10  C   UNL     1       2.475   2.094  20.930  0.00  0.00    +0.000 A 
ATOM     11  C   UNL     1       3.387   2.695  20.049  0.00  0.00    +0.000 A 
ATOM     12  C   UNL     1       3.196   3.998  19.503  0.00  0.00    +0.000 A 
ATOM     13  C   UNL     1       4.098   4.663  18.555  0.00  0.00    +0.000 A 
ATOM     14  C   UNL     1       3.649   5.931  18.051  0.00  0.00    +0.000 A 
ENDROOT
BRANCH  13  15
ATOM     15  N   UNL     1       5.253   3.935  18.156  0.00  0.00    +0.000 N 
ATOM     16  H   UNL     1       6.071   4.413  18.521  0.00  0.00    +0.000 HD
BRANCH  15  17
ATOM     17  C   UNL     1       5.570   3.688  16.747  0.00  0.00    +0.000 C 
BRANCH  17  18
ATOM     18  C   UNL     1       6.873   4.443  16.449  0.00  0.00    +0.000 C 
BRANCH  18  19
ATOM     19  C   UNL     1       7.771   4.668  17.669  0.00  0.00    +0.000 C 
BRANCH  19  20
ATOM     20  N   UNL     1       7.407   5.810  18.525  0.00  0.00    +0.000 NA
ATOM     21  C   UNL     1       8.058   5.750  19.838  0.00  0.00    +0.000 C 
ATOM     22  C   UNL     1       7.797   7.060  17.858  0.00  0.00    +0.000 C 
ENDBRANCH  19  20
ENDBRANCH  18  19
ENDBRANCH  17  18
ENDBRANCH  15  17
ENDBRANCH  13  15
BRANCH   4  23
ATOM     23  C   UNL     1       1.995   8.874  19.086  0.00  0.00    +0.000 C 
BRANCH  23  24
ATOM     24  C   UNL     1       1.245   9.840  18.198  0.00  0.00    +0.000 C 
ATOM     25  O   UNL     1       0.023   9.897  18.127  0.00  0.00    +0.000 OA
BRANCH  24  26
ATOM     26  O   UNL     1       2.040  10.627  17.425  0.00  0.00    +0.000 OA
ATOM     27  H   UNL     1       2.917  10.797  17.856  0.00  0.00    +0.000 HD
ENDBRANCH  24  26
ENDBRANCH  23  24
ENDBRANCH   4  23
TORSDOF 8
ENDMDL
MODEL 7
REMARK VINA RESULT:      -6.6      1.839      4.752
REMARK  Name = 
REMARK  11 active torsions:
REMARK  status: ('A' for Active; 'I' for Inactive)
REMARK    1  A    between atoms: C_1  and  C_2
REMARK    2  A    between atoms: N_4  and  C_5
REMARK    3  A    between atoms: C_5  and  C_6
REMARK    4  A    between atoms: C_6  and  O_8
REMARK    5  A    between atoms: C_17  and  N_18
REMARK    6  A    between atoms: N_18  and  C_19
REMARK    7  A    between atoms: C_19  and  C_20
REMARK    8  A    between atoms: C_20  and  C_21
REMARK    9  A    between atoms: C_21  and  N_22
REMARK   10  A    between atoms: N_22  and  C_23
REMARK   11  A    between atoms: N_22  and  C_24
REMARK                            x       y       z     vdW  Elec       q    Type
REMARK                         _______ _______ _______ _____ _____    ______ ____
ROOT
ATOM      1  C   UNL     1       6.569   7.511  17.684  0.00  0.00    +0.000 C 
ATOM      2  C   UNL     1       5.744   6.387  17.159  0.00  0.00    +0.000 A 
ATOM      3  N   UNL     1       6.205   5.873  16.002  0.00  0.00    +0.000 NA
ATOM      4  N   UNL     1       5.344   4.879  15.738  0.00  0.00    +0.000 N 
ATOM      5  C   UNL     1       4.496   4.608  16.766  0.00  0.00    +0.000 A 
ATOM      6  N   UNL     1       3.723   3.521  16.819  0.00  0.00    +0.000 NA
ATOM      7  C   UNL     1       2.909   3.466  17.862  0.00  0.00    +0.000 A 
ATOM      8  C   UNL     1       2.208   2.276  18.008  0.00  0.00    +0.000 A 
ATOM      9  C   UNL     1       1.257   2.093  19.009  0.00  0.00    +0.000 A 
ATOM     10  C   UNL     1       0.995   3.126  19.880  0.00  0.00    +0.000 A 
ATOM     11  C   UNL     1       1.726   4.319  19.773  0.00  0.00    +0.000 A 
ATOM     12  C   UNL     1       2.723   4.532  18.777  0.00  0.00    +0.000 A 
ATOM     13  C   UNL     1       3.539   5.744  18.636  0.00  0.00    +0.000 A 
ATOM     14  C   UNL     1       4.562   5.694  17.628  0.00  0.00    +0.000 A 
ENDROOT
BRANCH  13  15
ATOM     15  N   UNL     1       3.306   6.782  19.580  0.00  0.00    +0.000 N 
ATOM     16  H   UNL     1       3.258   6.366  20.504  0.00  0.00    +0.000 HD
BRANCH  15  17
ATOM     17  C   UNL     1       2.128   7.651  19.507  0.00  0.00    +0.000 C 
BRANCH  17  18
ATOM     18  C   UNL     1       2.236   8.431  18.190  0.00  0.00    +0.000 C 
BRANCH  18  19
ATOM     19  C   UNL     1       1.197   9.545  18.024  0.00  0.00    +0.000 C 
BRANCH  19  20
ATOM     20  N   UNL     1       0.952  10.369  19.219  0.00  0.00    +0.000 NA
ATOM     21  C   UNL     1       1.424  11.748  19.049  0.00  0.00    +0.000 C 
ATOM     22  C   UNL     1      -0.488  10.391  19.508  0.00  0.00    +0.000 C 
ENDBRANCH  19  20
ENDBRANCH  18  19
ENDBRANCH  17  18
ENDBRANCH  15  17
ENDBRANCH  13  15
BRANCH   4  23
ATOM     23  C   UNL     1       5.147   4.496  14.359  0.00  0.00    +0.000 C 
BRANCH  23  24
ATOM     24  C   UNL     1       6.500   4.288  13.717  0.00  0.00    +0.000 C 
ATOM     25  O   UNL     1       7.390   5.130  13.706  0.00  0.00    +0.000 OA
BRANCH  24  26
ATOM     26  O   UNL     1       6.646   3.088  13.093  0.00  0.00    +0.000 OA
ATOM     27  H   UNL     1       5.931   2.933  12.423  0.00  0.00    +0.000 HD
ENDBRANCH  24  26
ENDBRANCH  23  24
ENDBRANCH   4  23
TORSDOF 8
ENDMDL
MODEL 8
REMARK VINA RESULT:      -6.6      3.595      6.662
REMARK  Name = 
REMARK  11 active torsions:
REMARK  status: ('A' for Active; 'I' for Inactive)
REMARK    1  A    between atoms: C_1  and  C_2
REMARK    2  A    between atoms: N_4  and  C_5
REMARK    3  A    between atoms: C_5  and  C_6
REMARK    4  A    between atoms: C_6  and  O_8
REMARK    5  A    between atoms: C_17  and  N_18
REMARK    6  A    between atoms: N_18  and  C_19
REMARK    7  A    between atoms: C_19  and  C_20
REMARK    8  A    between atoms: C_20  and  C_21
REMARK    9  A    between atoms: C_21  and  N_22
REMARK   10  A    between atoms: N_22  and  C_23
REMARK   11  A    between atoms: N_22  and  C_24
REMARK                            x       y       z     vdW  Elec       q    Type
REMARK                         _______ _______ _______ _____ _____    ______ ____
ROOT
ATOM      1  C   UNL     1       2.012   9.450  17.557  0.00  0.00    +0.000 C 
ATOM      2  C   UNL     1       1.939   8.619  18.791  0.00  0.00    +0.000 A 
ATOM      3  N   UNL     1       1.438   9.275  19.856  0.00  0.00    +0.000 NA
ATOM      4  N   UNL     1       1.437   8.346  20.823  0.00  0.00    +0.000 N 
ATOM      5  C   UNL     1       1.713   7.092  20.371  0.00  0.00    +0.000 A 
ATOM      6  N   UNL     1       1.537   5.989  21.101  0.00  0.00    +0.000 NA
ATOM      7  C   UNL     1       1.930   4.867  20.519  0.00  0.00    +0.000 A 
ATOM      8  C   UNL     1       1.618   3.700  21.205  0.00  0.00    +0.000 A 
ATOM      9  C   UNL     1       2.031   2.446  20.761  0.00  0.00    +0.000 A 
ATOM     10  C   UNL     1       2.779   2.356  19.609  0.00  0.00    +0.000 A 
ATOM     11  C   UNL     1       3.065   3.521  18.882  0.00  0.00    +0.000 A 
ATOM     12  C   UNL     1       2.637   4.818  19.293  0.00  0.00    +0.000 A 
ATOM     13  C   UNL     1       2.879   6.066  18.558  0.00  0.00    +0.000 A 
ATOM     14  C   UNL     1       2.260   7.242  19.104  0.00  0.00    +0.000 A 
ENDROOT
BRANCH  13  15
ATOM     15  N   UNL     1       3.599   5.957  17.336  0.00  0.00    +0.000 N 
ATOM     16  H   UNL     1       4.173   5.120  17.380  0.00  0.00    +0.000 HD
BRANCH  15  17
ATOM     17  C   UNL     1       4.513   7.005  16.874  0.00  0.00    +0.000 C 
BRANCH  17  18
ATOM     18  C   UNL     1       5.729   6.293  16.265  0.00  0.00    +0.000 C 
BRANCH  18  19
ATOM     19  C   UNL     1       6.246   5.105  17.082  0.00  0.00    +0.000 C 
BRANCH  19  20
ATOM     20  N   UNL     1       7.204   5.436  18.150  0.00  0.00    +0.000 NA
ATOM     21  C   UNL     1       7.763   6.784  17.997  0.00  0.00    +0.000 C 
ATOM     22  C   UNL     1       6.530   5.345  19.453  0.00  0.00    +0.000 C 
ENDBRANCH  19  20
ENDBRANCH  18  19
ENDBRANCH  17  18
ENDBRANCH  15  17
ENDBRANCH  13  15
BRANCH   4  23
ATOM     23  C   UNL     1       1.537   8.789  22.194  0.00  0.00    +0.000 C 
BRANCH  23  24
ATOM     24  C   UNL     1       0.233   9.445  22.586  0.00  0.00    +0.000 C 
ATOM     25  O   UNL     1       0.024   9.950  23.683  0.00  0.00    +0.000 OA
BRANCH  24  26
ATOM     26  O   UNL     1      -0.734   9.390  21.631  0.00  0.00    +0.000 OA
ATOM     27  H   UNL     1      -0.911  10.282  21.236  0.00  0.00    +0.000 HD
ENDBRANCH  24  26
ENDBRANCH  23  24
ENDBRANCH   4  23
TORSDOF 8
ENDMDL
MODEL 9
REMARK VINA RESULT:      -6.5      3.655      6.643
REMARK  Name = 
REMARK  11 active torsions:
REMARK  status: ('A' for Active; 'I' for Inactive)
REMARK    1  A    between atoms: C_1  and  C_2
REMARK    2  A    between atoms: N_4  and  C_5
REMARK    3  A    between atoms: C_5  and  C_6
REMARK    4  A    between atoms: C_6  and  O_8
REMARK    5  A    between atoms: C_17  and  N_18
REMARK    6  A    between atoms: N_18  and  C_19
REMARK    7  A    between atoms: C_19  and  C_20
REMARK    8  A    between atoms: C_20  and  C_21
REMARK    9  A    between atoms: C_21  and  N_22
REMARK   10  A    between atoms: N_22  and  C_23
REMARK   11  A    between atoms: N_22  and  C_24
REMARK                            x       y       z     vdW  Elec       q    Type
REMARK                         _______ _______ _______ _____ _____    ______ ____
ROOT
ATOM      1  C   UNL     1       1.860   9.609  17.594  0.00  0.00    +0.000 C 
ATOM      2  C   UNL     1       1.822   8.771  18.824  0.00  0.00    +0.000 A 
ATOM      3  N   UNL     1       1.254   9.384  19.880  0.00  0.00    +0.000 NA
ATOM      4  N   UNL     1       1.302   8.454  20.845  0.00  0.00    +0.000 N 
ATOM      5  C   UNL     1       1.677   7.226  20.396  0.00  0.00    +0.000 A 
ATOM      6  N   UNL     1       1.567   6.111  21.120  0.00  0.00    +0.000 NA
ATOM      7  C   UNL     1       2.053   5.022  20.544  0.00  0.00    +0.000 A 
ATOM      8  C   UNL     1       1.813   3.832  21.221  0.00  0.00    +0.000 A 
ATOM      9  C   UNL     1       2.326   2.613  20.783  0.00  0.00    +0.000 A 
ATOM     10  C   UNL     1       3.101   2.583  19.646  0.00  0.00    +0.000 A 
ATOM     11  C   UNL     1       3.315   3.768  18.927  0.00  0.00    +0.000 A 
ATOM     12  C   UNL     1       2.786   5.029  19.332  0.00  0.00    +0.000 A 
ATOM     13  C   UNL     1       2.951   6.294  18.605  0.00  0.00    +0.000 A 
ATOM     14  C   UNL     1       2.237   7.419  19.140  0.00  0.00    +0.000 A 
ENDROOT
BRANCH  13  15
ATOM     15  N   UNL     1       3.702   6.241  17.398  0.00  0.00    +0.000 N 
ATOM     16  H   UNL     1       3.761   5.272  17.103  0.00  0.00    +0.000 HD
BRANCH  15  17
ATOM     17  C   UNL     1       5.079   6.736  17.314  0.00  0.00    +0.000 C 
BRANCH  17  18
ATOM     18  C   UNL     1       5.946   5.551  16.867  0.00  0.00    +0.000 C 
BRANCH  18  19
ATOM     19  C   UNL     1       5.264   4.599  15.881  0.00  0.00    +0.000 C 
BRANCH  19  20
ATOM     20  N   UNL     1       6.138   4.022  14.846  0.00  0.00    +0.000 NA
ATOM     21  C   UNL     1       5.449   3.870  13.559  0.00  0.00    +0.000 C 
ATOM     22  C   UNL     1       7.309   4.889  14.659  0.00  0.00    +0.000 C 
ENDBRANCH  19  20
ENDBRANCH  18  19
ENDBRANCH  17  18
ENDBRANCH  15  17
ENDBRANCH  13  15
BRANCH   4  23
ATOM     23  C   UNL     1       1.341   8.899  22.218  0.00  0.00    +0.000 C 
BRANCH  23  24
ATOM     24  C   UNL     1       0.221   9.890  22.439  0.00  0.00    +0.000 C 
ATOM     25  O   UNL     1      -0.854   9.604  22.953  0.00  0.00    +0.000 OA
BRANCH  24  26
ATOM     26  O   UNL     1       0.477  11.140  21.970  0.00  0.00    +0.000 OA
ATOM     27  H   UNL     1       0.470  11.170  20.979  0.00  0.00    +0.000 HD
ENDBRANCH  24  26
ENDBRANCH  23  24
ENDBRANCH   4  23
TORSDOF 8
ENDMDL
