MODEL 1
REMARK VINA RESULT:      -7.5      0.000      0.000
REMARK  Name = 
REMARK  5 active torsions:
REMARK  status: ('A' for Active; 'I' for Inactive)
REMARK    1  A    between atoms: C_2  and  C_14
REMARK    2  A    between atoms: N_3  and  C_4
REMARK    3  A    between atoms: C_10  and  C_11
REMARK    4  A    between atoms: C_11  and  O_13
REMARK    5  A    between atoms: C_18  and  N_19
REMARK                            x       y       z     vdW  Elec       q    Type
REMARK                         _______ _______ _______ _____ _____    ______ ____
ROOT
ATOM      1  O   UNL     1       6.976   4.445  16.835  0.00  0.00    +0.000 OA
ATOM      2  C   UNL     1       6.047   4.371  16.038  0.00  0.00    +0.000 C 
ATOM      3  N   UNL     1       4.704   4.223  16.342  0.00  0.00    +0.000 N 
ATOM      4  H   UNL     1       4.084   3.940  15.581  0.00  0.00    +0.000 HD
ENDROOT
BRANCH   3   5
ATOM      5  C   UNL     1       4.153   4.130  17.653  0.00  0.00    +0.000 A 
ATOM      6  C   UNL     1       3.929   2.890  18.266  0.00  0.00    +0.000 A 
ATOM      7  C   UNL     1       3.329   2.796  19.524  0.00  0.00    +0.000 A 
ATOM      8  C   UNL     1       2.945   3.949  20.194  0.00  0.00    +0.000 A 
ATOM      9 CL   UNL     1       2.182   3.832  21.730  0.00  0.00    +0.000 Cl
ATOM     10  C   UNL     1       3.179   5.200  19.629  0.00  0.00    +0.000 A 
ATOM     11  C   UNL     1       3.811   5.297  18.375  0.00  0.00    +0.000 A 
BRANCH  11  12
ATOM     12  C   UNL     1       4.064   6.640  17.795  0.00  0.00    +0.000 C 
ATOM     13  O   UNL     1       3.162   7.394  17.463  0.00  0.00    +0.000 OA
BRANCH  12  14
ATOM     14  O   UNL     1       5.367   6.922  17.586  0.00  0.00    +0.000 OA
ATOM     15  H   UNL     1       5.610   7.207  16.685  0.00  0.00    +0.000 HD
ENDBRANCH  12  14
ENDBRANCH  11  12
ENDBRANCH   3   5
BRANCH   2  16
ATOM     16  C   UNL     1       6.401   4.374  14.597  0.00  0.00    +0.000 A 
ATOM     17  C   UNL     1       7.426   5.177  14.085  0.00  0.00    +0.000 A 
ATOM     18  C   UNL     1       7.754   5.106  12.727  0.00  0.00    +0.000 A 
ATOM     19  C   UNL     1       7.059   4.239  11.879  0.00  0.00    +0.000 A 
ATOM     20  C   UNL     1       6.043   3.427  12.401  0.00  0.00    +0.000 A 
ATOM     21  C   UNL     1       5.716   3.483  13.759  0.00  0.00    +0.000 A 
BRANCH  20  22
ATOM     22  N   UNL     1       5.315   2.509  11.516  0.00  0.00    +0.000 N 
ATOM     23  O   UNL     1       4.189   2.855  11.131  0.00  0.00    +0.000 OA
ATOM     24  O   UNL     1       5.862   1.442  11.213  0.00  0.00    +0.000 OA
ENDBRANCH  20  22
ENDBRANCH   2  16
TORSDOF 5
ENDMDL
MODEL 2
REMARK VINA RESULT:      -7.5      3.994      6.146
REMARK  Name = 
REMARK  5 active torsions:
REMARK  status: ('A' for Active; 'I' for Inactive)
REMARK    1  A    between atoms: C_2  and  C_14
REMARK    2  A    between atoms: N_3  and  C_4
REMARK    3  A    between atoms: C_10  and  C_11
REMARK    4  A    between atoms: C_11  and  O_13
REMARK    5  A    between atoms: C_18  and  N_19
REMARK                            x       y       z     vdW  Elec       q    Type
REMARK                         _______ _______ _______ _____ _____    ______ ____
ROOT
ATOM      1  O   UNL     1       1.585   5.603  20.514  0.00  0.00    +0.000 OA
ATOM      2  C   UNL     1       2.226   6.249  19.693  0.00  0.00    +0.000 C 
ATOM      3  N   UNL     1       2.220   7.624  19.533  0.00  0.00    +0.000 N 
ATOM      4  H   UNL     1       2.613   7.994  18.665  0.00  0.00    +0.000 HD
ENDROOT
BRANCH   3   5
ATOM      5  C   UNL     1       1.457   8.548  20.305  0.00  0.00    +0.000 A 
ATOM      6  C   UNL     1       1.388   8.452  21.702  0.00  0.00    +0.000 A 
ATOM      7  C   UNL     1       0.589   9.317  22.454  0.00  0.00    +0.000 A 
ATOM      8  C   UNL     1      -0.155  10.299  21.816  0.00  0.00    +0.000 A 
ATOM      9 CL   UNL     1      -1.158  11.346  22.740  0.00  0.00    +0.000 Cl
ATOM     10  C   UNL     1      -0.088  10.443  20.433  0.00  0.00    +0.000 A 
ATOM     11  C   UNL     1       0.739   9.592  19.677  0.00  0.00    +0.000 A 
BRANCH  11  12
ATOM     12  C   UNL     1       0.807   9.769  18.204  0.00  0.00    +0.000 C 
ATOM     13  O   UNL     1       1.847   9.655  17.575  0.00  0.00    +0.000 OA
BRANCH  12  14
ATOM     14  O   UNL     1      -0.355  10.149  17.634  0.00  0.00    +0.000 OA
ATOM     15  H   UNL     1      -0.463   9.938  16.687  0.00  0.00    +0.000 HD
ENDBRANCH  12  14
ENDBRANCH  11  12
ENDBRANCH   3   5
BRANCH   2  16
ATOM     16  C   UNL     1       3.044   5.476  18.725  0.00  0.00    +0.000 A 
ATOM     17  C   UNL     1       2.915   4.090  18.584  0.00  0.00    +0.000 A 
ATOM     18  C   UNL     1       3.674   3.415  17.622  0.00  0.00    +0.000 A 
ATOM     19  C   UNL     1       4.563   4.120  16.804  0.00  0.00    +0.000 A 
ATOM     20  C   UNL     1       4.677   5.509  16.942  0.00  0.00    +0.000 A 
ATOM     21  C   UNL     1       3.914   6.193  17.892  0.00  0.00    +0.000 A 
BRANCH  20  22
ATOM     22  N   UNL     1       5.604   6.255  16.081  0.00  0.00    +0.000 N 
ATOM     23  O   UNL     1       6.810   6.202  16.355  0.00  0.00    +0.000 OA
ATOM     24  O   UNL     1       5.125   6.899  15.138  0.00  0.00    +0.000 OA
ENDBRANCH  20  22
ENDBRANCH   2  16
TORSDOF 5
ENDMDL
MODEL 3
REMARK VINA RESULT:      -7.4      4.702      8.724
REMARK  Name = 
REMARK  5 active torsions:
REMARK  status: ('A' for Active; 'I' for Inactive)
REMARK    1  A    between atoms: C_2  and  C_14
REMARK    2  A    between atoms: N_3  and  C_4
REMARK    3  A    between atoms: C_10  and  C_11
REMARK    4  A    between atoms: C_11  and  O_13
REMARK    5  A    between atoms: C_18  and  N_19
REMARK                            x       y       z     vdW  Elec       q    Type
REMARK                         _______ _______ _______ _____ _____    ______ ____
ROOT
ATOM      1  O   UNL     1       2.259   8.998  17.058  0.00  0.00    +0.000 OA
ATOM      2  C   UNL     1       2.087   8.517  18.172  0.00  0.00    +0.000 C 
ATOM      3  N   UNL     1       2.618   7.332  18.654  0.00  0.00    +0.000 N 
ATOM      4  H   UNL     1       2.201   6.946  19.503  0.00  0.00    +0.000 HD
ENDROOT
BRANCH   3   5
ATOM      5  C   UNL     1       3.472   6.448  17.931  0.00  0.00    +0.000 A 
ATOM      6  C   UNL     1       4.673   6.894  17.362  0.00  0.00    +0.000 A 
ATOM      7  C   UNL     1       5.478   6.044  16.599  0.00  0.00    +0.000 A 
ATOM      8  C   UNL     1       5.092   4.727  16.394  0.00  0.00    +0.000 A 
ATOM      9 CL   UNL     1       6.068   3.690  15.432  0.00  0.00    +0.000 Cl
ATOM     10  C   UNL     1       3.920   4.242  16.968  0.00  0.00    +0.000 A 
ATOM     11  C   UNL     1       3.124   5.088  17.762  0.00  0.00    +0.000 A 
BRANCH  11  12
ATOM     12  C   UNL     1       1.883   4.549  18.376  0.00  0.00    +0.000 C 
ATOM     13  O   UNL     1       1.656   4.624  19.574  0.00  0.00    +0.000 OA
BRANCH  12  14
ATOM     14  O   UNL     1       1.073   3.897  17.517  0.00  0.00    +0.000 OA
ATOM     15  H   UNL     1       0.230   4.337  17.297  0.00  0.00    +0.000 HD
ENDBRANCH  12  14
ENDBRANCH  11  12
ENDBRANCH   3   5
BRANCH   2  16
ATOM     16  C   UNL     1       1.163   9.242  19.079  0.00  0.00    +0.000 A 
ATOM     17  C   UNL     1       0.082   9.988  18.597  0.00  0.00    +0.000 A 
ATOM     18  C   UNL     1      -0.789  10.612  19.495  0.00  0.00    +0.000 A 
ATOM     19  C   UNL     1      -0.582  10.496  20.873  0.00  0.00    +0.000 A 
ATOM     20  C   UNL     1       0.494   9.735  21.350  0.00  0.00    +0.000 A 
ATOM     21  C   UNL     1       1.363   9.099  20.459  0.00  0.00    +0.000 A 
BRANCH  20  22
ATOM     22  N   UNL     1       0.712   9.603  22.796  0.00  0.00    +0.000 N 
ATOM     23  O   UNL     1       1.866   9.378  23.184  0.00  0.00    +0.000 OA
ATOM     24  O   UNL     1      -0.270   9.716  23.541  0.00  0.00    +0.000 OA
ENDBRANCH  20  22
ENDBRANCH   2  16
TORSDOF 5
ENDMDL
MODEL 4
REMARK VINA RESULT:      -7.3      4.502      6.616
REMARK  Name = 
REMARK  5 active torsions:
REMARK  status: ('A' for Active; 'I' for Inactive)
REMARK    1  A    between atoms: C_2  and  C_14
REMARK    2  A    between atoms: N_3  and  C_4
REMARK    3  A    between atoms: C_10  and  C_11
REMARK    4  A    between atoms: C_11  and  O_13
REMARK    5  A    between atoms: C_18  and  N_19
REMARK                            x       y       z     vdW  Elec       q    Type
REMARK                         _______ _______ _______ _____ _____    ______ ____
ROOT
ATOM      1  O   UNL     1       1.306   5.588  20.637  0.00  0.00    +0.000 OA
ATOM      2  C   UNL     1       2.125   6.221  19.981  0.00  0.00    +0.000 C 
ATOM      3  N   UNL     1       2.241   7.599  19.909  0.00  0.00    +0.000 N 
ATOM      4  H   UNL     1       2.807   7.979  19.147  0.00  0.00    +0.000 HD
ENDROOT
BRANCH   3   5
ATOM      5  C   UNL     1       1.418   8.541  20.593  0.00  0.00    +0.000 A 
ATOM      6  C   UNL     1       1.305   8.534  21.990  0.00  0.00    +0.000 A 
ATOM      7  C   UNL     1       0.449   9.414  22.656  0.00  0.00    +0.000 A 
ATOM      8  C   UNL     1      -0.309  10.323  21.931  0.00  0.00    +0.000 A 
ATOM      9 CL   UNL     1      -1.382  11.387  22.749  0.00  0.00    +0.000 Cl
ATOM     10  C   UNL     1      -0.199  10.378  20.544  0.00  0.00    +0.000 A 
ATOM     11  C   UNL     1       0.685   9.513  19.874  0.00  0.00    +0.000 A 
BRANCH  11  12
ATOM     12  C   UNL     1       0.797   9.596  18.395  0.00  0.00    +0.000 C 
ATOM     13  O   UNL     1       1.558   8.890  17.753  0.00  0.00    +0.000 OA
BRANCH  12  14
ATOM     14  O   UNL     1       0.053  10.571  17.832  0.00  0.00    +0.000 OA
ATOM     15  H   UNL     1       0.230  11.481  18.136  0.00  0.00    +0.000 HD
ENDBRANCH  12  14
ENDBRANCH  11  12
ENDBRANCH   3   5
BRANCH   2  16
ATOM     16  C   UNL     1       3.048   5.435  19.124  0.00  0.00    +0.000 A 
ATOM     17  C   UNL     1       2.592   4.688  18.033  0.00  0.00    +0.000 A 
ATOM     18  C   UNL     1       3.507   4.005  17.226  0.00  0.00    +0.000 A 
ATOM     19  C   UNL     1       4.876   4.064  17.508  0.00  0.00    +0.000 A 
ATOM     20  C   UNL     1       5.327   4.825  18.595  0.00  0.00    +0.000 A 
ATOM     21  C   UNL     1       4.419   5.521  19.399  0.00  0.00    +0.000 A 
BRANCH  20  22
ATOM     22  N   UNL     1       6.763   4.897  18.891  0.00  0.00    +0.000 N 
ATOM     23  O   UNL     1       7.102   5.420  19.961  0.00  0.00    +0.000 OA
ATOM     24  O   UNL     1       7.550   4.441  18.052  0.00  0.00    +0.000 OA
ENDBRANCH  20  22
ENDBRANCH   2  16
TORSDOF 5
ENDMDL
MODEL 5
REMARK VINA RESULT:      -7.3      4.635      6.684
REMARK  Name = 
REMARK  5 active torsions:
REMARK  status: ('A' for Active; 'I' for Inactive)
REMARK    1  A    between atoms: C_2  and  C_14
REMARK    2  A    between atoms: N_3  and  C_4
REMARK    3  A    between atoms: C_10  and  C_11
REMARK    4  A    between atoms: C_11  and  O_13
REMARK    5  A    between atoms: C_18  and  N_19
REMARK                            x       y       z     vdW  Elec       q    Type
REMARK                         _______ _______ _______ _____ _____    ______ ____
ROOT
ATOM      1  O   UNL     1       1.250   5.782  20.810  0.00  0.00    +0.000 OA
ATOM      2  C   UNL     1       1.993   6.383  20.042  0.00  0.00    +0.000 C 
ATOM      3  N   UNL     1       2.059   7.754  19.858  0.00  0.00    +0.000 N 
ATOM      4  H   UNL     1       2.549   8.088  19.025  0.00  0.00    +0.000 HD
ENDROOT
BRANCH   3   5
ATOM      5  C   UNL     1       1.266   8.724  20.536  0.00  0.00    +0.000 A 
ATOM      6  C   UNL     1       1.143   8.722  21.933  0.00  0.00    +0.000 A 
ATOM      7  C   UNL     1       0.313   9.632  22.593  0.00  0.00    +0.000 A 
ATOM      8  C   UNL     1      -0.406  10.566  21.862  0.00  0.00    +0.000 A 
ATOM      9 CL   UNL     1      -1.447  11.668  22.673  0.00  0.00    +0.000 Cl
ATOM     10  C   UNL     1      -0.286  10.617  20.476  0.00  0.00    +0.000 A 
ATOM     11  C   UNL     1       0.572   9.721  19.812  0.00  0.00    +0.000 A 
BRANCH  11  12
ATOM     12  C   UNL     1       0.697   9.799  18.334  0.00  0.00    +0.000 C 
ATOM     13  O   UNL     1       1.751   9.599  17.751  0.00  0.00    +0.000 OA
BRANCH  12  14
ATOM     14  O   UNL     1      -0.427  10.192  17.698  0.00  0.00    +0.000 OA
ATOM     15  H   UNL     1      -0.698   9.659  16.927  0.00  0.00    +0.000 HD
ENDBRANCH  12  14
ENDBRANCH  11  12
ENDBRANCH   3   5
BRANCH   2  16
ATOM     16  C   UNL     1       2.867   5.557  19.172  0.00  0.00    +0.000 A 
ATOM     17  C   UNL     1       3.479   6.078  18.026  0.00  0.00    +0.000 A 
ATOM     18  C   UNL     1       4.334   5.272  17.268  0.00  0.00    +0.000 A 
ATOM     19  C   UNL     1       4.577   3.949  17.648  0.00  0.00    +0.000 A 
ATOM     20  C   UNL     1       3.972   3.438  18.804  0.00  0.00    +0.000 A 
ATOM     21  C   UNL     1       3.125   4.240  19.575  0.00  0.00    +0.000 A 
BRANCH  20  22
ATOM     22  N   UNL     1       4.230   2.051  19.213  0.00  0.00    +0.000 N 
ATOM     23  O   UNL     1       3.731   1.150  18.526  0.00  0.00    +0.000 OA
ATOM     24  O   UNL     1       4.922   1.865  20.221  0.00  0.00    +0.000 OA
ENDBRANCH  20  22
ENDBRANCH   2  16
TORSDOF 5
ENDMDL
MODEL 6
REMARK VINA RESULT:      -7.1      4.666      8.589
REMARK  Name = 
REMARK  5 active torsions:
REMARK  status: ('A' for Active; 'I' for Inactive)
REMARK    1  A    between atoms: C_2  and  C_14
REMARK    2  A    between atoms: N_3  and  C_4
REMARK    3  A    between atoms: C_10  and  C_11
REMARK    4  A    between atoms: C_11  and  O_13
REMARK    5  A    between atoms: C_18  and  N_19
REMARK                            x       y       z     vdW  Elec       q    Type
REMARK                         _______ _______ _______ _____ _____    ______ ____
ROOT
ATOM      1  O   UNL     1       2.238   8.697  17.320  0.00  0.00    +0.000 OA
ATOM      2  C   UNL     1       2.230   8.149  18.417  0.00  0.00    +0.000 C 
ATOM      3  N   UNL     1       2.893   6.985  18.766  0.00  0.00    +0.000 N 
ATOM      4  H   UNL     1       2.605   6.527  19.633  0.00  0.00    +0.000 HD
ENDROOT
BRANCH   3   5
ATOM      5  C   UNL     1       3.715   6.204  17.902  0.00  0.00    +0.000 A 
ATOM      6  C   UNL     1       4.917   6.706  17.384  0.00  0.00    +0.000 A 
ATOM      7  C   UNL     1       5.689   5.966  16.486  0.00  0.00    +0.000 A 
ATOM      8  C   UNL     1       5.270   4.703  16.092  0.00  0.00    +0.000 A 
ATOM      9 CL   UNL     1       6.207   3.804  14.966  0.00  0.00    +0.000 Cl
ATOM     10  C   UNL     1       4.097   4.160  16.609  0.00  0.00    +0.000 A 
ATOM     11  C   UNL     1       3.333   4.892  17.537  0.00  0.00    +0.000 A 
BRANCH  11  12
ATOM     12  C   UNL     1       2.091   4.291  18.086  0.00  0.00    +0.000 C 
ATOM     13  O   UNL     1       1.148   3.970  17.380  0.00  0.00    +0.000 OA
BRANCH  12  14
ATOM     14  O   UNL     1       2.058   4.210  19.433  0.00  0.00    +0.000 OA
ATOM     15  H   UNL     1       2.809   3.756  19.858  0.00  0.00    +0.000 HD
ENDBRANCH  12  14
ENDBRANCH  11  12
ENDBRANCH   3   5
BRANCH   2  16
ATOM     16  C   UNL     1       1.371   8.758  19.463  0.00  0.00    +0.000 A 
ATOM     17  C   UNL     1       1.366   8.293  20.783  0.00  0.00    +0.000 A 
ATOM     18  C   UNL     1       0.576   8.934  21.743  0.00  0.00    +0.000 A 
ATOM     19  C   UNL     1      -0.211  10.034  21.388  0.00  0.00    +0.000 A 
ATOM     20  C   UNL     1      -0.191  10.502  20.068  0.00  0.00    +0.000 A 
ATOM     21  C   UNL     1       0.605   9.876  19.105  0.00  0.00    +0.000 A 
BRANCH  20  22
ATOM     22  N   UNL     1      -1.009  11.662  19.692  0.00  0.00    +0.000 N 
ATOM     23  O   UNL     1      -1.538  12.310  20.605  0.00  0.00    +0.000 OA
ATOM     24  O   UNL     1      -1.130  11.918  18.487  0.00  0.00    +0.000 OA
ENDBRANCH  20  22
ENDBRANCH   2  16
TORSDOF 5
ENDMDL
MODEL 7
REMARK VINA RESULT:      -7.1      4.796      8.634
REMARK  Name = 
REMARK  5 active torsions:
REMARK  status: ('A' for Active; 'I' for Inactive)
REMARK    1  A    between atoms: C_2  and  C_14
REMARK    2  A    between atoms: N_3  and  C_4
REMARK    3  A    between atoms: C_10  and  C_11
REMARK    4  A    between atoms: C_11  and  O_13
REMARK    5  A    between atoms: C_18  and  N_19
REMARK                            x       y       z     vdW  Elec       q    Type
REMARK                         _______ _______ _______ _____ _____    ______ ____
ROOT
ATOM      1  O   UNL     1       2.292   8.965  17.252  0.00  0.00    +0.000 OA
ATOM      2  C   UNL     1       2.133   8.405  18.330  0.00  0.00    +0.000 C 
ATOM      3  N   UNL     1       2.672   7.191  18.721  0.00  0.00    +0.000 N 
ATOM      4  H   UNL     1       2.264   6.744  19.545  0.00  0.00    +0.000 HD
ENDROOT
BRANCH   3   5
ATOM      5  C   UNL     1       3.519   6.363  17.928  0.00  0.00    +0.000 A 
ATOM      6  C   UNL     1       4.696   6.860  17.352  0.00  0.00    +0.000 A 
ATOM      7  C   UNL     1       5.493   6.067  16.522  0.00  0.00    +0.000 A 
ATOM      8  C   UNL     1       5.124   4.756  16.257  0.00  0.00    +0.000 A 
ATOM      9 CL   UNL     1       6.089   3.791  15.214  0.00  0.00    +0.000 Cl
ATOM     10  C   UNL     1       3.977   4.220  16.835  0.00  0.00    +0.000 A 
ATOM     11  C   UNL     1       3.189   5.008  17.696  0.00  0.00    +0.000 A 
BRANCH  11  12
ATOM     12  C   UNL     1       1.976   4.414  18.313  0.00  0.00    +0.000 C 
ATOM     13  O   UNL     1       1.776   4.431  19.518  0.00  0.00    +0.000 OA
BRANCH  12  14
ATOM     14  O   UNL     1       1.160   3.782  17.445  0.00  0.00    +0.000 OA
ATOM     15  H   UNL     1       1.357   3.903  16.497  0.00  0.00    +0.000 HD
ENDBRANCH  12  14
ENDBRANCH  11  12
ENDBRANCH   3   5
BRANCH   2  16
ATOM     16  C   UNL     1       1.217   9.062  19.297  0.00  0.00    +0.000 A 
ATOM     17  C   UNL     1       1.219   8.739  20.658  0.00  0.00    +0.000 A 
ATOM     18  C   UNL     1       0.372   9.422  21.536  0.00  0.00    +0.000 A 
ATOM     19  C   UNL     1      -0.479  10.424  21.058  0.00  0.00    +0.000 A 
ATOM     20  C   UNL     1      -0.465  10.752  19.696  0.00  0.00    +0.000 A 
ATOM     21  C   UNL     1       0.387  10.082  18.813  0.00  0.00    +0.000 A 
BRANCH  20  22
ATOM     22  N   UNL     1      -1.351  11.808  19.190  0.00  0.00    +0.000 N 
ATOM     23  O   UNL     1      -1.351  12.020  17.970  0.00  0.00    +0.000 OA
ATOM     24  O   UNL     1      -2.037  12.430  20.011  0.00  0.00    +0.000 OA
ENDBRANCH  20  22
ENDBRANCH   2  16
TORSDOF 5
ENDMDL
MODEL 8
REMARK VINA RESULT:      -7.1      1.332      1.717
REMARK  Name = 
REMARK  5 active torsions:
REMARK  status: ('A' for Active; 'I' for Inactive)
REMARK    1  A    between atoms: C_2  and  C_14
REMARK    2  A    between atoms: N_3  and  C_4
REMARK    3  A    between atoms: C_10  and  C_11
REMARK    4  A    between atoms: C_11  and  O_13
REMARK    5  A    between atoms: C_18  and  N_19
REMARK                            x       y       z     vdW  Elec       q    Type
REMARK                         _______ _______ _______ _____ _____    ______ ____
ROOT
ATOM      1  O   UNL     1       4.401   5.566  16.433  0.00  0.00    +0.000 OA
ATOM      2  C   UNL     1       4.782   4.462  16.061  0.00  0.00    +0.000 C 
ATOM      3  N   UNL     1       4.563   3.253  16.698  0.00  0.00    +0.000 N 
ATOM      4  H   UNL     1       5.136   2.460  16.401  0.00  0.00    +0.000 HD
ENDROOT
BRANCH   3   5
ATOM      5  C   UNL     1       3.848   3.071  17.918  0.00  0.00    +0.000 A 
ATOM      6  C   UNL     1       2.671   2.311  17.969  0.00  0.00    +0.000 A 
ATOM      7  C   UNL     1       1.934   2.187  19.150  0.00  0.00    +0.000 A 
ATOM      8  C   UNL     1       2.368   2.823  20.304  0.00  0.00    +0.000 A 
ATOM      9 CL   UNL     1       1.446   2.693  21.749  0.00  0.00    +0.000 Cl
ATOM     10  C   UNL     1       3.547   3.562  20.297  0.00  0.00    +0.000 A 
ATOM     11  C   UNL     1       4.307   3.663  19.117  0.00  0.00    +0.000 A 
BRANCH  11  12
ATOM     12  C   UNL     1       5.569   4.446  19.133  0.00  0.00    +0.000 C 
ATOM     13  O   UNL     1       5.638   5.574  19.595  0.00  0.00    +0.000 OA
BRANCH  12  14
ATOM     14  O   UNL     1       6.608   3.842  18.519  0.00  0.00    +0.000 OA
ATOM     15  H   UNL     1       7.498   4.164  18.756  0.00  0.00    +0.000 HD
ENDBRANCH  12  14
ENDBRANCH  11  12
ENDBRANCH   3   5
BRANCH   2  16
ATOM     16  C   UNL     1       5.618   4.421  14.835  0.00  0.00    +0.000 A 
ATOM     17  C   UNL     1       6.800   5.161  14.718  0.00  0.00    +0.000 A 
ATOM     18  C   UNL     1       7.579   5.048  13.561  0.00  0.00    +0.000 A 
ATOM     19  C   UNL     1       7.179   4.202  12.522  0.00  0.00    +0.000 A 
ATOM     20  C   UNL     1       6.001   3.454  12.652  0.00  0.00    +0.000 A 
ATOM     21  C   UNL     1       5.223   3.552  13.809  0.00  0.00    +0.000 A 
BRANCH  20  22
ATOM     22  N   UNL     1       5.581   2.559  11.567  0.00  0.00    +0.000 N 
ATOM     23  O   UNL     1       4.446   2.721  11.098  0.00  0.00    +0.000 OA
ATOM     24  O   UNL     1       6.379   1.690  11.193  0.00  0.00    +0.000 OA
ENDBRANCH  20  22
ENDBRANCH   2  16
TORSDOF 5
ENDMDL
MODEL 9
REMARK VINA RESULT:      -7.1      4.904      8.892
REMARK  Name = 
REMARK  5 active torsions:
REMARK  status: ('A' for Active; 'I' for Inactive)
REMARK    1  A    between atoms: C_2  and  C_14
REMARK    2  A    between atoms: N_3  and  C_4
REMARK    3  A    between atoms: C_10  and  C_11
REMARK    4  A    between atoms: C_11  and  O_13
REMARK    5  A    between atoms: C_18  and  N_19
REMARK                            x       y       z     vdW  Elec       q    Type
REMARK                         _______ _______ _______ _____ _____    ______ ____
ROOT
ATOM      1  O   UNL     1       2.170   9.225  17.140  0.00  0.00    +0.000 OA
ATOM      2  C   UNL     1       1.902   8.783  18.252  0.00  0.00    +0.000 C 
ATOM      3  N   UNL     1       2.359   7.599  18.805  0.00  0.00    +0.000 N 
ATOM      4  H   UNL     1       1.868   7.251  19.631  0.00  0.00    +0.000 HD
ENDROOT
BRANCH   3   5
ATOM      5  C   UNL     1       3.236   6.669  18.173  0.00  0.00    +0.000 A 
ATOM      6  C   UNL     1       4.177   7.083  17.221  0.00  0.00    +0.000 A 
ATOM      7  C   UNL     1       4.992   6.164  16.554  0.00  0.00    +0.000 A 
ATOM      8  C   UNL     1       4.878   4.810  16.834  0.00  0.00    +0.000 A 
ATOM      9 CL   UNL     1       5.862   3.678  15.994  0.00  0.00    +0.000 Cl
ATOM     10  C   UNL     1       3.975   4.366  17.795  0.00  0.00    +0.000 A 
ATOM     11  C   UNL     1       3.175   5.292  18.489  0.00  0.00    +0.000 A 
BRANCH  11  12
ATOM     12  C   UNL     1       2.226   4.800  19.520  0.00  0.00    +0.000 C 
ATOM     13  O   UNL     1       1.276   4.081  19.250  0.00  0.00    +0.000 OA
BRANCH  12  14
ATOM     14  O   UNL     1       2.449   5.281  20.761  0.00  0.00    +0.000 OA
ATOM     15  H   UNL     1       1.754   5.854  21.136  0.00  0.00    +0.000 HD
ENDBRANCH  12  14
ENDBRANCH  11  12
ENDBRANCH   3   5
BRANCH   2  16
ATOM     16  C   UNL     1       0.936   9.562  19.066  0.00  0.00    +0.000 A 
ATOM     17  C   UNL     1      -0.104  10.296  18.485  0.00  0.00    +0.000 A 
ATOM     18  C   UNL     1      -1.018  10.973  19.299  0.00  0.00    +0.000 A 
ATOM     19  C   UNL     1      -0.894  10.921  20.691  0.00  0.00    +0.000 A 
ATOM     20  C   UNL     1       0.142  10.173  21.267  0.00  0.00    +0.000 A 
ATOM     21  C   UNL     1       1.053   9.484  20.461  0.00  0.00    +0.000 A 
BRANCH  20  22
ATOM     22  N   UNL     1       0.272  10.110  22.728  0.00  0.00    +0.000 N 
ATOM     23  O   UNL     1       1.200   9.434  23.192  0.00  0.00    +0.000 OA
ATOM     24  O   UNL     1      -0.557  10.726  23.410  0.00  0.00    +0.000 OA
ENDBRANCH  20  22
ENDBRANCH   2  16
TORSDOF 5
ENDMDL
