MODEL 1
REMARK VINA RESULT:      -7.7      0.000      0.000
REMARK  Name = 
REMARK  4 active torsions:
REMARK  status: ('A' for Active; 'I' for Inactive)
REMARK    1  A    between atoms: C_2  and  C_3
REMARK    2  A    between atoms: C_3  and  C_4
REMARK    3  A    between atoms: N_16  and  C_17
REMARK    4  A    between atoms: C_17  and  C_18
REMARK                            x       y       z     vdW  Elec       q    Type
REMARK                         _______ _______ _______ _____ _____    ______ ____
ROOT
ATOM      1  O   UNL     1       7.927   4.121  17.199  0.00  0.00    +0.000 OA
ATOM      2  C   UNL     1       6.963   4.840  16.939  0.00  0.00    +0.000 C 
ATOM      3  N   UNL     1       5.829   4.871  17.738  0.00  0.00    +0.000 N 
ATOM      4  C   UNL     1       4.672   5.736  17.525  0.00  0.00    +0.000 C 
ATOM      5  C   UNL     1       3.368   4.963  17.695  0.00  0.00    +0.000 C 
ATOM      6  C   UNL     1       3.287   4.226  19.051  0.00  0.00    +0.000 C 
ATOM      7  C   UNL     1       1.973   3.430  19.133  0.00  0.00    +0.000 C 
ATOM      8  C   UNL     1       1.215   3.997  20.331  0.00  0.00    +0.000 C 
ATOM      9  N   UNL     1       1.787   5.312  20.631  0.00  0.00    +0.000 NA
ATOM     10  C   UNL     1       3.207   5.174  20.270  0.00  0.00    +0.000 C 
ATOM     11  C   UNL     1       4.526   3.307  19.137  0.00  0.00    +0.000 C 
ATOM     12  C   UNL     1       5.824   4.101  18.985  0.00  0.00    +0.000 C 
ENDROOT
BRANCH   2  13
ATOM     13  C   UNL     1       7.000   5.703  15.679  0.00  0.00    +0.000 C 
BRANCH  13  14
ATOM     14  C   UNL     1       6.867   4.935  14.392  0.00  0.00    +0.000 A 
ATOM     15  C   UNL     1       5.824   4.019  14.214  0.00  0.00    +0.000 A 
ATOM     16  C   UNL     1       5.667   3.369  12.992  0.00  0.00    +0.000 A 
ATOM     17  C   UNL     1       6.559   3.658  11.977  0.00  0.00    +0.000 A 
ATOM     18  N   UNL     1       7.573   4.540  12.102  0.00  0.00    +0.000 NA
ATOM     19  C   UNL     1       7.698   5.166  13.296  0.00  0.00    +0.000 A 
ENDBRANCH  13  14
ENDBRANCH   2  13
BRANCH   9  20
ATOM     20  C   UNL     1       1.127   6.457  19.981  0.00  0.00    +0.000 C 
BRANCH  20  21
ATOM     21  C   UNL     1       1.932   7.784  20.029  0.00  0.00    +0.000 C 
ATOM     22  C   UNL     1       2.204   8.395  18.646  0.00  0.00    +0.000 C 
ATOM     23  C   UNL     1       0.974   9.057  18.030  0.00  0.00    +0.000 C 
ATOM     24  C   UNL     1       0.406  10.133  18.946  0.00  0.00    +0.000 C 
ATOM     25  C   UNL     1       0.110   9.602  20.344  0.00  0.00    +0.000 C 
ATOM     26  C   UNL     1       1.276   8.828  20.956  0.00  0.00    +0.000 C 
ENDBRANCH  20  21
ENDBRANCH   9  20
TORSDOF 4
ENDMDL
MODEL 2
REMARK VINA RESULT:      -6.9      4.330      7.281
REMARK  Name = 
REMARK  4 active torsions:
REMARK  status: ('A' for Active; 'I' for Inactive)
REMARK    1  A    between atoms: C_2  and  C_3
REMARK    2  A    between atoms: C_3  and  C_4
REMARK    3  A    between atoms: N_16  and  C_17
REMARK    4  A    between atoms: C_17  and  C_18
REMARK                            x       y       z     vdW  Elec       q    Type
REMARK                         _______ _______ _______ _____ _____    ______ ____
ROOT
ATOM      1  O   UNL     1       3.345   7.124  17.874  0.00  0.00    +0.000 OA
ATOM      2  C   UNL     1       2.584   7.382  18.807  0.00  0.00    +0.000 C 
ATOM      3  N   UNL     1       1.837   8.550  18.848  0.00  0.00    +0.000 N 
ATOM      4  C   UNL     1       0.876   8.899  19.891  0.00  0.00    +0.000 C 
ATOM      5  C   UNL     1       1.041  10.351  20.328  0.00  0.00    +0.000 C 
ATOM      6  C   UNL     1       0.977  11.339  19.142  0.00  0.00    +0.000 C 
ATOM      7  C   UNL     1       1.200  12.775  19.647  0.00  0.00    +0.000 C 
ATOM      8  C   UNL     1      -0.067  13.546  19.288  0.00  0.00    +0.000 C 
ATOM      9  N   UNL     1      -1.124  12.562  19.038  0.00  0.00    +0.000 NA
ATOM     10  C   UNL     1      -0.411  11.410  18.465  0.00  0.00    +0.000 C 
ATOM     11  C   UNL     1       2.069  10.904  18.137  0.00  0.00    +0.000 C 
ATOM     12  C   UNL     1       1.876   9.453  17.694  0.00  0.00    +0.000 C 
ENDROOT
BRANCH   2  13
ATOM     13  C   UNL     1       2.484   6.402  19.974  0.00  0.00    +0.000 C 
BRANCH  13  14
ATOM     14  C   UNL     1       1.990   5.031  19.599  0.00  0.00    +0.000 A 
ATOM     15  C   UNL     1       1.518   4.152  20.581  0.00  0.00    +0.000 A 
ATOM     16  C   UNL     1       0.995   2.914  20.215  0.00  0.00    +0.000 A 
ATOM     17  C   UNL     1       0.954   2.591  18.872  0.00  0.00    +0.000 A 
ATOM     18  N   UNL     1       1.390   3.411  17.893  0.00  0.00    +0.000 NA
ATOM     19  C   UNL     1       1.886   4.612  18.274  0.00  0.00    +0.000 A 
ENDBRANCH  13  14
ENDBRANCH   2  13
BRANCH   9  20
ATOM     20  C   UNL     1      -1.958  12.214  20.202  0.00  0.00    +0.000 C 
BRANCH  20  21
ATOM     21  C   UNL     1      -1.947  13.264  21.345  0.00  0.00    +0.000 C 
ATOM     22  C   UNL     1      -3.296  13.970  21.553  0.00  0.00    +0.000 C 
ATOM     23  C   UNL     1      -4.332  13.090  22.247  0.00  0.00    +0.000 C 
ATOM     24  C   UNL     1      -3.822  12.587  23.591  0.00  0.00    +0.000 C 
ATOM     25  C   UNL     1      -2.481  11.874  23.467  0.00  0.00    +0.000 C 
ATOM     26  C   UNL     1      -1.444  12.668  22.676  0.00  0.00    +0.000 C 
ENDBRANCH  20  21
ENDBRANCH   9  20
TORSDOF 4
ENDMDL
MODEL 3
REMARK VINA RESULT:      -6.8      3.713      6.398
REMARK  Name = 
REMARK  4 active torsions:
REMARK  status: ('A' for Active; 'I' for Inactive)
REMARK    1  A    between atoms: C_2  and  C_3
REMARK    2  A    between atoms: C_3  and  C_4
REMARK    3  A    between atoms: N_16  and  C_17
REMARK    4  A    between atoms: C_17  and  C_18
REMARK                            x       y       z     vdW  Elec       q    Type
REMARK                         _______ _______ _______ _____ _____    ______ ____
ROOT
ATOM      1  O   UNL     1       2.239   5.691  20.274  0.00  0.00    +0.000 OA
ATOM      2  C   UNL     1       2.423   6.511  19.374  0.00  0.00    +0.000 C 
ATOM      3  N   UNL     1       2.004   7.828  19.480  0.00  0.00    +0.000 N 
ATOM      4  C   UNL     1       2.233   8.868  18.481  0.00  0.00    +0.000 C 
ATOM      5  C   UNL     1       0.972   9.693  18.244  0.00  0.00    +0.000 C 
ATOM      6  C   UNL     1       0.390  10.278  19.551  0.00  0.00    +0.000 C 
ATOM      7  C   UNL     1      -0.903  11.052  19.245  0.00  0.00    +0.000 C 
ATOM      8  C   UNL     1      -0.643  12.490  19.688  0.00  0.00    +0.000 C 
ATOM      9  N   UNL     1       0.808  12.663  19.790  0.00  0.00    +0.000 NA
ATOM     10  C   UNL     1       1.296  11.342  20.213  0.00  0.00    +0.000 C 
ATOM     11  C   UNL     1       0.139   9.086  20.502  0.00  0.00    +0.000 C 
ATOM     12  C   UNL     1       1.418   8.283  20.744  0.00  0.00    +0.000 C 
ENDROOT
BRANCH   2  13
ATOM     13  C   UNL     1       3.104   6.056  18.085  0.00  0.00    +0.000 C 
BRANCH  13  14
ATOM     14  C   UNL     1       4.605   5.981  18.164  0.00  0.00    +0.000 A 
ATOM     15  C   UNL     1       5.401   6.756  17.312  0.00  0.00    +0.000 A 
ATOM     16  C   UNL     1       6.788   6.734  17.442  0.00  0.00    +0.000 A 
ATOM     17  C   UNL     1       7.341   5.939  18.429  0.00  0.00    +0.000 A 
ATOM     18  N   UNL     1       6.611   5.184  19.276  0.00  0.00    +0.000 NA
ATOM     19  C   UNL     1       5.265   5.229  19.135  0.00  0.00    +0.000 A 
ENDBRANCH  13  14
ENDBRANCH   2  13
BRANCH   9  20
ATOM     20  C   UNL     1       1.475  13.174  18.580  0.00  0.00    +0.000 C 
BRANCH  20  21
ATOM     21  C   UNL     1       2.890  13.767  18.820  0.00  0.00    +0.000 C 
ATOM     22  C   UNL     1       3.307  14.818  17.780  0.00  0.00    +0.000 C 
ATOM     23  C   UNL     1       2.610  16.162  17.972  0.00  0.00    +0.000 C 
ATOM     24  C   UNL     1       2.856  16.720  19.368  0.00  0.00    +0.000 C 
ATOM     25  C   UNL     1       2.467  15.730  20.460  0.00  0.00    +0.000 C 
ATOM     26  C   UNL     1       3.047  14.334  20.246  0.00  0.00    +0.000 C 
ENDBRANCH  20  21
ENDBRANCH   9  20
TORSDOF 4
ENDMDL
MODEL 4
REMARK VINA RESULT:      -6.8      3.880      6.811
REMARK  Name = 
REMARK  4 active torsions:
REMARK  status: ('A' for Active; 'I' for Inactive)
REMARK    1  A    between atoms: C_2  and  C_3
REMARK    2  A    between atoms: C_3  and  C_4
REMARK    3  A    between atoms: N_16  and  C_17
REMARK    4  A    between atoms: C_17  and  C_18
REMARK                            x       y       z     vdW  Elec       q    Type
REMARK                         _______ _______ _______ _____ _____    ______ ____
ROOT
ATOM      1  O   UNL     1       1.880   5.902  20.741  0.00  0.00    +0.000 OA
ATOM      2  C   UNL     1       2.112   6.674  19.810  0.00  0.00    +0.000 C 
ATOM      3  N   UNL     1       1.733   8.008  19.846  0.00  0.00    +0.000 N 
ATOM      4  C   UNL     1       2.019   8.994  18.808  0.00  0.00    +0.000 C 
ATOM      5  C   UNL     1       0.791   9.845  18.503  0.00  0.00    +0.000 C 
ATOM      6  C   UNL     1       0.197  10.506  19.767  0.00  0.00    +0.000 C 
ATOM      7  C   UNL     1      -1.063  11.305  19.394  0.00  0.00    +0.000 C 
ATOM      8  C   UNL     1      -0.768  12.753  19.778  0.00  0.00    +0.000 C 
ATOM      9  N   UNL     1       0.685  12.886  19.909  0.00  0.00    +0.000 NA
ATOM     10  C   UNL     1       1.120  11.571  20.403  0.00  0.00    +0.000 C 
ATOM     11  C   UNL     1      -0.114   9.367  20.764  0.00  0.00    +0.000 C 
ATOM     12  C   UNL     1       1.132   8.537  21.074  0.00  0.00    +0.000 C 
ENDROOT
BRANCH   2  13
ATOM     13  C   UNL     1       2.809   6.140  18.560  0.00  0.00    +0.000 C 
BRANCH  13  14
ATOM     14  C   UNL     1       2.979   4.645  18.530  0.00  0.00    +0.000 A 
ATOM     15  C   UNL     1       2.132   3.849  17.748  0.00  0.00    +0.000 A 
ATOM     16  C   UNL     1       2.344   2.475  17.669  0.00  0.00    +0.000 A 
ATOM     17  C   UNL     1       3.405   1.934  18.372  0.00  0.00    +0.000 A 
ATOM     18  N   UNL     1       4.249   2.665  19.130  0.00  0.00    +0.000 NA
ATOM     19  C   UNL     1       4.027   3.999  19.183  0.00  0.00    +0.000 A 
ENDBRANCH  13  14
ENDBRANCH   2  13
BRANCH   9  20
ATOM     20  C   UNL     1       1.397  13.320  18.695  0.00  0.00    +0.000 C 
BRANCH  20  21
ATOM     21  C   UNL     1       1.899  14.790  18.728  0.00  0.00    +0.000 C 
ATOM     22  C   UNL     1       2.309  15.274  20.127  0.00  0.00    +0.000 C 
ATOM     23  C   UNL     1       3.649  14.709  20.588  0.00  0.00    +0.000 C 
ATOM     24  C   UNL     1       4.761  15.042  19.602  0.00  0.00    +0.000 C 
ATOM     25  C   UNL     1       4.427  14.592  18.184  0.00  0.00    +0.000 C 
ATOM     26  C   UNL     1       3.041  15.036  17.720  0.00  0.00    +0.000 C 
ENDBRANCH  20  21
ENDBRANCH   9  20
TORSDOF 4
ENDMDL
MODEL 5
REMARK VINA RESULT:      -6.7      3.569      6.312
REMARK  Name = 
REMARK  4 active torsions:
REMARK  status: ('A' for Active; 'I' for Inactive)
REMARK    1  A    between atoms: C_2  and  C_3
REMARK    2  A    between atoms: C_3  and  C_4
REMARK    3  A    between atoms: N_16  and  C_17
REMARK    4  A    between atoms: C_17  and  C_18
REMARK                            x       y       z     vdW  Elec       q    Type
REMARK                         _______ _______ _______ _____ _____    ______ ____
ROOT
ATOM      1  O   UNL     1       2.523   5.683  20.044  0.00  0.00    +0.000 OA
ATOM      2  C   UNL     1       2.633   6.530  19.157  0.00  0.00    +0.000 C 
ATOM      3  N   UNL     1       2.144   7.819  19.304  0.00  0.00    +0.000 N 
ATOM      4  C   UNL     1       2.286   8.891  18.322  0.00  0.00    +0.000 C 
ATOM      5  C   UNL     1       0.974   9.647  18.139  0.00  0.00    +0.000 C 
ATOM      6  C   UNL     1       0.399  10.171  19.475  0.00  0.00    +0.000 C 
ATOM      7  C   UNL     1      -0.944  10.877  19.223  0.00  0.00    +0.000 C 
ATOM      8  C   UNL     1      -0.752  12.318  19.690  0.00  0.00    +0.000 C 
ATOM      9  N   UNL     1       0.690  12.571  19.755  0.00  0.00    +0.000 NA
ATOM     10  C   UNL     1       1.263  11.271  20.135  0.00  0.00    +0.000 C 
ATOM     11  C   UNL     1       0.244   8.948  20.407  0.00  0.00    +0.000 C 
ATOM     12  C   UNL     1       1.572   8.214  20.594  0.00  0.00    +0.000 C 
ENDROOT
BRANCH   2  13
ATOM     13  C   UNL     1       3.301   6.141  17.840  0.00  0.00    +0.000 C 
BRANCH  13  14
ATOM     14  C   UNL     1       4.787   5.923  17.932  0.00  0.00    +0.000 A 
ATOM     15  C   UNL     1       5.675   6.814  17.318  0.00  0.00    +0.000 A 
ATOM     16  C   UNL     1       7.049   6.645  17.471  0.00  0.00    +0.000 A 
ATOM     17  C   UNL     1       7.498   5.588  18.241  0.00  0.00    +0.000 A 
ATOM     18  N   UNL     1       6.677   4.712  18.857  0.00  0.00    +0.000 NA
ATOM     19  C   UNL     1       5.346   4.903  18.700  0.00  0.00    +0.000 A 
ENDBRANCH  13  14
ENDBRANCH   2  13
BRANCH   9  20
ATOM     20  C   UNL     1       1.291  13.143  18.538  0.00  0.00    +0.000 C 
BRANCH  20  21
ATOM     21  C   UNL     1       1.709  14.634  18.660  0.00  0.00    +0.000 C 
ATOM     22  C   UNL     1       1.928  15.100  20.108  0.00  0.00    +0.000 C 
ATOM     23  C   UNL     1       3.233  14.589  20.711  0.00  0.00    +0.000 C 
ATOM     24  C   UNL     1       4.433  15.002  19.868  0.00  0.00    +0.000 C 
ATOM     25  C   UNL     1       4.289  14.575  18.413  0.00  0.00    +0.000 C 
ATOM     26  C   UNL     1       2.946  14.963  17.798  0.00  0.00    +0.000 C 
ENDBRANCH  20  21
ENDBRANCH   9  20
TORSDOF 4
ENDMDL
MODEL 6
REMARK VINA RESULT:      -6.7      3.913      6.792
REMARK  Name = 
REMARK  4 active torsions:
REMARK  status: ('A' for Active; 'I' for Inactive)
REMARK    1  A    between atoms: C_2  and  C_3
REMARK    2  A    between atoms: C_3  and  C_4
REMARK    3  A    between atoms: N_16  and  C_17
REMARK    4  A    between atoms: C_17  and  C_18
REMARK                            x       y       z     vdW  Elec       q    Type
REMARK                         _______ _______ _______ _____ _____    ______ ____
ROOT
ATOM      1  O   UNL     1       1.840   5.939  20.615  0.00  0.00    +0.000 OA
ATOM      2  C   UNL     1       2.145   6.664  19.668  0.00  0.00    +0.000 C 
ATOM      3  N   UNL     1       1.833   8.015  19.644  0.00  0.00    +0.000 N 
ATOM      4  C   UNL     1       2.209   8.947  18.584  0.00  0.00    +0.000 C 
ATOM      5  C   UNL     1       1.039   9.847  18.201  0.00  0.00    +0.000 C 
ATOM      6  C   UNL     1       0.432  10.583  19.418  0.00  0.00    +0.000 C 
ATOM      7  C   UNL     1      -0.771  11.429  18.968  0.00  0.00    +0.000 C 
ATOM      8  C   UNL     1      -0.418  12.874  19.313  0.00  0.00    +0.000 C 
ATOM      9  N   UNL     1       1.035  12.939  19.497  0.00  0.00    +0.000 NA
ATOM     10  C   UNL     1       1.383  11.622  20.053  0.00  0.00    +0.000 C 
ATOM     11  C   UNL     1       0.025   9.497  20.440  0.00  0.00    +0.000 C 
ATOM     12  C   UNL     1       1.214   8.618  20.828  0.00  0.00    +0.000 C 
ENDROOT
BRANCH   2  13
ATOM     13  C   UNL     1       2.861   6.051  18.467  0.00  0.00    +0.000 C 
BRANCH  13  14
ATOM     14  C   UNL     1       2.989   4.552  18.513  0.00  0.00    +0.000 A 
ATOM     15  C   UNL     1       2.073   3.739  17.836  0.00  0.00    +0.000 A 
ATOM     16  C   UNL     1       2.243   2.357  17.825  0.00  0.00    +0.000 A 
ATOM     17  C   UNL     1       3.333   1.825  18.488  0.00  0.00    +0.000 A 
ATOM     18  N   UNL     1       4.245   2.573  19.145  0.00  0.00    +0.000 NA
ATOM     19  C   UNL     1       4.062   3.914  19.134  0.00  0.00    +0.000 A 
ENDBRANCH  13  14
ENDBRANCH   2  13
BRANCH   9  20
ATOM     20  C   UNL     1       1.813  13.293  18.298  0.00  0.00    +0.000 C 
BRANCH  20  21
ATOM     21  C   UNL     1       3.136  14.054  18.584  0.00  0.00    +0.000 C 
ATOM     22  C   UNL     1       3.446  15.164  17.568  0.00  0.00    +0.000 C 
ATOM     23  C   UNL     1       2.582  16.407  17.756  0.00  0.00    +0.000 C 
ATOM     24  C   UNL     1       2.720  16.971  19.165  0.00  0.00    +0.000 C 
ATOM     25  C   UNL     1       2.428  15.925  20.234  0.00  0.00    +0.000 C 
ATOM     26  C   UNL     1       3.184  14.615  20.021  0.00  0.00    +0.000 C 
ENDBRANCH  20  21
ENDBRANCH   9  20
TORSDOF 4
ENDMDL
MODEL 7
REMARK VINA RESULT:      -6.5      4.011      6.877
REMARK  Name = 
REMARK  4 active torsions:
REMARK  status: ('A' for Active; 'I' for Inactive)
REMARK    1  A    between atoms: C_2  and  C_3
REMARK    2  A    between atoms: C_3  and  C_4
REMARK    3  A    between atoms: N_16  and  C_17
REMARK    4  A    between atoms: C_17  and  C_18
REMARK                            x       y       z     vdW  Elec       q    Type
REMARK                         _______ _______ _______ _____ _____    ______ ____
ROOT
ATOM      1  O   UNL     1       1.893   6.152  20.477  0.00  0.00    +0.000 OA
ATOM      2  C   UNL     1       2.129   7.013  19.629  0.00  0.00    +0.000 C 
ATOM      3  N   UNL     1       1.696   8.323  19.768  0.00  0.00    +0.000 N 
ATOM      4  C   UNL     1       1.982   9.409  18.833  0.00  0.00    +0.000 C 
ATOM      5  C   UNL     1       0.734  10.239  18.555  0.00  0.00    +0.000 C 
ATOM      6  C   UNL     1       0.068  10.762  19.848  0.00  0.00    +0.000 C 
ATOM      7  C   UNL     1      -1.208  11.546  19.497  0.00  0.00    +0.000 C 
ATOM      8  C   UNL     1      -0.985  12.963  20.020  0.00  0.00    +0.000 C 
ATOM      9  N   UNL     1       0.456  13.136  20.221  0.00  0.00    +0.000 NA
ATOM     10  C   UNL     1       0.923  11.797  20.613  0.00  0.00    +0.000 C 
ATOM     11  C   UNL     1      -0.236   9.527  20.727  0.00  0.00    +0.000 C 
ATOM     12  C   UNL     1       1.030   8.718  21.012  0.00  0.00    +0.000 C 
ENDROOT
BRANCH   2  13
ATOM     13  C   UNL     1       2.892   6.619  18.366  0.00  0.00    +0.000 C 
BRANCH  13  14
ATOM     14  C   UNL     1       2.863   5.148  18.051  0.00  0.00    +0.000 A 
ATOM     15  C   UNL     1       4.031   4.380  18.130  0.00  0.00    +0.000 A 
ATOM     16  C   UNL     1       3.979   3.006  17.908  0.00  0.00    +0.000 A 
ATOM     17  C   UNL     1       2.754   2.435  17.617  0.00  0.00    +0.000 A 
ATOM     18  N   UNL     1       1.603   3.136  17.538  0.00  0.00    +0.000 NA
ATOM     19  C   UNL     1       1.679   4.468  17.767  0.00  0.00    +0.000 A 
ENDBRANCH  13  14
ENDBRANCH   2  13
BRANCH   9  20
ATOM     20  C   UNL     1       1.195  13.703  19.080  0.00  0.00    +0.000 C 
BRANCH  20  21
ATOM     21  C   UNL     1       2.605  14.253  19.428  0.00  0.00    +0.000 C 
ATOM     22  C   UNL     1       3.563  14.306  18.229  0.00  0.00    +0.000 C 
ATOM     23  C   UNL     1       3.255  15.449  17.265  0.00  0.00    +0.000 C 
ATOM     24  C   UNL     1       3.273  16.796  17.977  0.00  0.00    +0.000 C 
ATOM     25  C   UNL     1       2.344  16.821  19.184  0.00  0.00    +0.000 C 
ATOM     26  C   UNL     1       2.535  15.630  20.121  0.00  0.00    +0.000 C 
ENDBRANCH  20  21
ENDBRANCH   9  20
TORSDOF 4
ENDMDL
MODEL 8
REMARK VINA RESULT:      -6.5      3.799      7.229
REMARK  Name = 
REMARK  4 active torsions:
REMARK  status: ('A' for Active; 'I' for Inactive)
REMARK    1  A    between atoms: C_2  and  C_3
REMARK    2  A    between atoms: C_3  and  C_4
REMARK    3  A    between atoms: N_16  and  C_17
REMARK    4  A    between atoms: C_17  and  C_18
REMARK                            x       y       z     vdW  Elec       q    Type
REMARK                         _______ _______ _______ _____ _____    ______ ____
ROOT
ATOM      1  O   UNL     1       3.205   7.603  17.749  0.00  0.00    +0.000 OA
ATOM      2  C   UNL     1       2.416   7.783  18.677  0.00  0.00    +0.000 C 
ATOM      3  N   UNL     1       1.691   8.958  18.812  0.00  0.00    +0.000 N 
ATOM      4  C   UNL     1       0.700   9.221  19.852  0.00  0.00    +0.000 C 
ATOM      5  C   UNL     1       0.877  10.616  20.441  0.00  0.00    +0.000 C 
ATOM      6  C   UNL     1       0.878  11.722  19.361  0.00  0.00    +0.000 C 
ATOM      7  C   UNL     1       1.111  13.093  20.019  0.00  0.00    +0.000 C 
ATOM      8  C   UNL     1      -0.127  13.926  19.698  0.00  0.00    +0.000 C 
ATOM      9  N   UNL     1      -1.194  12.999  19.312  0.00  0.00    +0.000 NA
ATOM     10  C   UNL     1      -0.483  11.895  18.648  0.00  0.00    +0.000 C 
ATOM     11  C   UNL     1       1.996  11.366  18.356  0.00  0.00    +0.000 C 
ATOM     12  C   UNL     1       1.790   9.973  17.760  0.00  0.00    +0.000 C 
ENDROOT
BRANCH   2  13
ATOM     13  C   UNL     1       2.253   6.692  19.733  0.00  0.00    +0.000 C 
BRANCH  13  14
ATOM     14  C   UNL     1       2.620   5.309  19.265  0.00  0.00    +0.000 A 
ATOM     15  C   UNL     1       1.733   4.567  18.475  0.00  0.00    +0.000 A 
ATOM     16  C   UNL     1       2.112   3.319  17.986  0.00  0.00    +0.000 A 
ATOM     17  C   UNL     1       3.374   2.848  18.298  0.00  0.00    +0.000 A 
ATOM     18  N   UNL     1       4.262   3.534  19.048  0.00  0.00    +0.000 NA
ATOM     19  C   UNL     1       3.874   4.748  19.504  0.00  0.00    +0.000 A 
ENDBRANCH  13  14
ENDBRANCH   2  13
BRANCH   9  20
ATOM     20  C   UNL     1      -2.077  12.554  20.404  0.00  0.00    +0.000 C 
BRANCH  20  21
ATOM     21  C   UNL     1      -2.136  13.514  21.623  0.00  0.00    +0.000 C 
ATOM     22  C   UNL     1      -3.502  14.191  21.813  0.00  0.00    +0.000 C 
ATOM     23  C   UNL     1      -4.561  13.253  22.385  0.00  0.00    +0.000 C 
ATOM     24  C   UNL     1      -4.114  12.653  23.712  0.00  0.00    +0.000 C 
ATOM     25  C   UNL     1      -2.760  11.962  23.604  0.00  0.00    +0.000 C 
ATOM     26  C   UNL     1      -1.694  12.823  22.929  0.00  0.00    +0.000 C 
ENDBRANCH  20  21
ENDBRANCH   9  20
TORSDOF 4
ENDMDL
MODEL 9
REMARK VINA RESULT:      -6.4      4.497      7.617
REMARK  Name = 
REMARK  4 active torsions:
REMARK  status: ('A' for Active; 'I' for Inactive)
REMARK    1  A    between atoms: C_2  and  C_3
REMARK    2  A    between atoms: C_3  and  C_4
REMARK    3  A    between atoms: N_16  and  C_17
REMARK    4  A    between atoms: C_17  and  C_18
REMARK                            x       y       z     vdW  Elec       q    Type
REMARK                         _______ _______ _______ _____ _____    ______ ____
ROOT
ATOM      1  O   UNL     1       3.087   7.412  17.960  0.00  0.00    +0.000 OA
ATOM      2  C   UNL     1       2.385   7.617  18.951  0.00  0.00    +0.000 C 
ATOM      3  N   UNL     1       1.630   8.772  19.093  0.00  0.00    +0.000 N 
ATOM      4  C   UNL     1       0.734   9.060  20.210  0.00  0.00    +0.000 C 
ATOM      5  C   UNL     1       0.912  10.492  20.703  0.00  0.00    +0.000 C 
ATOM      6  C   UNL     1       0.764  11.534  19.570  0.00  0.00    +0.000 C 
ATOM      7  C   UNL     1       1.004  12.947  20.127  0.00  0.00    +0.000 C 
ATOM      8  C   UNL     1      -0.292  13.717  19.885  0.00  0.00    +0.000 C 
ATOM      9  N   UNL     1      -1.353  12.732  19.657  0.00  0.00    +0.000 NA
ATOM     10  C   UNL     1      -0.665  11.618  18.987  0.00  0.00    +0.000 C 
ATOM     11  C   UNL     1       1.793  11.159  18.479  0.00  0.00    +0.000 C 
ATOM     12  C   UNL     1       1.586   9.727  17.983  0.00  0.00    +0.000 C 
ENDROOT
BRANCH   2  13
ATOM     13  C   UNL     1       2.370   6.583  20.074  0.00  0.00    +0.000 C 
BRANCH  13  14
ATOM     14  C   UNL     1       1.840   5.233  19.675  0.00  0.00    +0.000 A 
ATOM     15  C   UNL     1       1.936   4.795  18.349  0.00  0.00    +0.000 A 
ATOM     16  C   UNL     1       1.509   3.514  18.004  0.00  0.00    +0.000 A 
ATOM     17  C   UNL     1       1.001   2.703  19.001  0.00  0.00    +0.000 A 
ATOM     18  N   UNL     1       0.898   3.081  20.292  0.00  0.00    +0.000 NA
ATOM     19  C   UNL     1       1.328   4.327  20.603  0.00  0.00    +0.000 A 
ENDBRANCH  13  14
ENDBRANCH   2  13
BRANCH   9  20
ATOM     20  C   UNL     1      -2.107  12.321  20.853  0.00  0.00    +0.000 C 
BRANCH  20  21
ATOM     21  C   UNL     1      -2.509  13.485  21.799  0.00  0.00    +0.000 C 
ATOM     22  C   UNL     1      -3.910  14.052  21.524  0.00  0.00    +0.000 C 
ATOM     23  C   UNL     1      -5.032  13.142  22.017  0.00  0.00    +0.000 C 
ATOM     24  C   UNL     1      -4.897  12.851  23.506  0.00  0.00    +0.000 C 
ATOM     25  C   UNL     1      -3.527  12.285  23.860  0.00  0.00    +0.000 C 
ATOM     26  C   UNL     1      -2.369  13.100  23.287  0.00  0.00    +0.000 C 
ENDBRANCH  20  21
ENDBRANCH   9  20
TORSDOF 4
ENDMDL
