MODEL 1
REMARK VINA RESULT:      -7.2      0.000      0.000
REMARK  Name = 
REMARK  18 active torsions:
REMARK  status: ('A' for Active; 'I' for Inactive)
REMARK    1  A    between atoms: O_1  and  C_2
REMARK    2  A    between atoms: C_2  and  C_3
REMARK    3  A    between atoms: C_5  and  O_6
REMARK    4  A    between atoms: O_6  and  C_7
REMARK    5  A    between atoms: C_7  and  C_8
REMARK    6  A    between atoms: C_8  and  C_9
REMARK    7  A    between atoms: C_9  and  C_10
REMARK    8  A    between atoms: C_10  and  C_11
REMARK    9  A    between atoms: N_13  and  C_14
REMARK   10  A    between atoms: C_14  and  C_15
REMARK   11  A    between atoms: C_15  and  C_16
REMARK   12  A    between atoms: C_16  and  C_17
REMARK   13  A    between atoms: C_17  and  C_18
REMARK   14  A    between atoms: C_21  and  O_22
REMARK   15  A    between atoms: C_23  and  C_24
REMARK   16  A    between atoms: N_25  and  O_26
REMARK   17  A    between atoms: C_30  and  O_31
REMARK   18  A    between atoms: C_32  and  O_33
REMARK                            x       y       z     vdW  Elec       q    Type
REMARK                         _______ _______ _______ _____ _____    ______ ____
ROOT
ATOM      1  C   UNL     1       7.474   7.342  17.398  0.00  0.00    +0.000 A 
ATOM      2  C   UNL     1       6.958   6.488  18.347  0.00  0.00    +0.000 A 
ATOM      3  N   UNL     1       6.977   5.277  17.732  0.00  0.00    +0.000 N 
ATOM      4  N   UNL     1       7.441   5.365  16.475  0.00  0.00    +0.000 NA
ATOM      5  N   UNL     1       7.775   6.629  16.266  0.00  0.00    +0.000 NA
ENDROOT
BRANCH   3   6
ATOM      6  C   UNL     1       6.535   4.004  18.253  0.00  0.00    +0.000 C 
BRANCH   6   7
ATOM      7  C   UNL     1       5.055   4.026  18.637  0.00  0.00    +0.000 C 
BRANCH   7   8
ATOM      8  C   UNL     1       4.130   3.736  17.455  0.00  0.00    +0.000 C 
BRANCH   8   9
ATOM      9  C   UNL     1       2.656   3.824  17.849  0.00  0.00    +0.000 C 
BRANCH   9  10
ATOM     10  C   UNL     1       2.370   5.008  18.728  0.00  0.00    +0.000 A 
ATOM     11  C   UNL     1       1.901   4.839  20.024  0.00  0.00    +0.000 A 
ATOM     12  C   UNL     1       1.593   5.968  20.780  0.00  0.00    +0.000 A 
ATOM     13  C   UNL     1       1.772   7.233  20.222  0.00  0.00    +0.000 A 
ATOM     14  C   UNL     1       2.268   7.314  18.923  0.00  0.00    +0.000 A 
ATOM     15  N   UNL     1       2.571   6.224  18.173  0.00  0.00    +0.000 NA
BRANCH  14  16
ATOM     16  C   UNL     1       2.481   8.629  18.280  0.00  0.00    +0.000 C 
ATOM     17  N   UNL     1       1.505   9.426  17.965  0.00  0.00    +0.000 NA
BRANCH  17  18
ATOM     18  O   UNL     1       2.028  10.584  17.376  0.00  0.00    +0.000 OA
ATOM     19  H   UNL     1       2.550  10.964  18.106  0.00  0.00    +0.000 HD
ENDBRANCH  17  18
ENDBRANCH  14  16
BRANCH  13  20
ATOM     20  O   UNL     1       1.451   8.347  20.940  0.00  0.00    +0.000 OA
ATOM     21  H   UNL     1       1.290   9.088  20.330  0.00  0.00    +0.000 HD
ENDBRANCH  13  20
ENDBRANCH   9  10
ENDBRANCH   8   9
ENDBRANCH   7   8
ENDBRANCH   6   7
ENDBRANCH   3   6
BRANCH   1  22
ATOM     22  C   UNL     1       7.672   8.810  17.446  0.00  0.00    +0.000 C 
BRANCH  22  23
ATOM     23  C   UNL     1       8.657   9.234  18.541  0.00  0.00    +0.000 C 
BRANCH  23  24
ATOM     24  C   UNL     1       9.041  10.721  18.515  0.00  0.00    +0.000 C 
BRANCH  24  25
ATOM     25  C   UNL     1      10.235  11.064  19.400  0.00  0.00    +0.000 C 
BRANCH  25  26
ATOM     26  O   UNL     1      11.357  11.306  18.562  0.00  0.00    +0.000 OA
BRANCH  26  29
ATOM     27  C   UNL     1      10.249  14.582  18.598  0.00  0.00    +0.000 C 
ATOM     28  O   UNL     1      10.890  13.509  19.324  0.00  0.00    +0.000 OA
ATOM     29  C   UNL     1      11.628  12.692  18.399  0.00  0.00    +0.000 C 
ATOM     30  C   UNL     1      11.243  13.124  16.981  0.00  0.00    +0.000 C 
ATOM     31  C   UNL     1      10.844  14.572  17.194  0.00  0.00    +0.000 C 
BRANCH  31  32
ATOM     32  O   UNL     1      12.042  15.381  17.150  0.00  0.00    +0.000 OA
ATOM     33  H   UNL     1      12.806  14.790  17.012  0.00  0.00    +0.000 HD
ENDBRANCH  31  32
BRANCH  30  34
ATOM     34  O   UNL     1      12.333  13.015  16.057  0.00  0.00    +0.000 OA
ATOM     35  H   UNL     1      12.829  13.855  16.130  0.00  0.00    +0.000 HD
ENDBRANCH  30  34
BRANCH  27  36
ATOM     36  C   UNL     1       8.726  14.418  18.653  0.00  0.00    +0.000 C 
BRANCH  36  37
ATOM     37  O   UNL     1       8.111  14.712  17.408  0.00  0.00    +0.000 OA
ATOM     38  H   UNL     1       8.652  14.294  16.714  0.00  0.00    +0.000 HD
ENDBRANCH  36  37
ENDBRANCH  27  36
ENDBRANCH  26  29
ENDBRANCH  25  26
ENDBRANCH  24  25
ENDBRANCH  23  24
ENDBRANCH  22  23
ENDBRANCH   1  22
TORSDOF 18
ENDMDL
MODEL 2
REMARK VINA RESULT:      -7.0      3.586     10.622
REMARK  Name = 
REMARK  18 active torsions:
REMARK  status: ('A' for Active; 'I' for Inactive)
REMARK    1  A    between atoms: O_1  and  C_2
REMARK    2  A    between atoms: C_2  and  C_3
REMARK    3  A    between atoms: C_5  and  O_6
REMARK    4  A    between atoms: O_6  and  C_7
REMARK    5  A    between atoms: C_7  and  C_8
REMARK    6  A    between atoms: C_8  and  C_9
REMARK    7  A    between atoms: C_9  and  C_10
REMARK    8  A    between atoms: C_10  and  C_11
REMARK    9  A    between atoms: N_13  and  C_14
REMARK   10  A    between atoms: C_14  and  C_15
REMARK   11  A    between atoms: C_15  and  C_16
REMARK   12  A    between atoms: C_16  and  C_17
REMARK   13  A    between atoms: C_17  and  C_18
REMARK   14  A    between atoms: C_21  and  O_22
REMARK   15  A    between atoms: C_23  and  C_24
REMARK   16  A    between atoms: N_25  and  O_26
REMARK   17  A    between atoms: C_30  and  O_31
REMARK   18  A    between atoms: C_32  and  O_33
REMARK                            x       y       z     vdW  Elec       q    Type
REMARK                         _______ _______ _______ _____ _____    ______ ____
ROOT
ATOM      1  C   UNL     1       7.157   6.789  17.686  0.00  0.00    +0.000 A 
ATOM      2  C   UNL     1       7.317   8.100  17.296  0.00  0.00    +0.000 A 
ATOM      3  N   UNL     1       8.245   8.582  18.164  0.00  0.00    +0.000 N 
ATOM      4  N   UNL     1       8.621   7.651  19.057  0.00  0.00    +0.000 NA
ATOM      5  N   UNL     1       7.975   6.535  18.757  0.00  0.00    +0.000 NA
ENDROOT
BRANCH   3   6
ATOM      6  C   UNL     1       8.793   9.917  18.235  0.00  0.00    +0.000 C 
BRANCH   6   7
ATOM      7  C   UNL     1       9.159  10.308  19.667  0.00  0.00    +0.000 C 
BRANCH   7   8
ATOM      8  C   UNL     1      10.574  10.877  19.785  0.00  0.00    +0.000 C 
BRANCH   8   9
ATOM      9  C   UNL     1      10.564  12.354  20.175  0.00  0.00    +0.000 C 
BRANCH   9  10
ATOM     10  C   UNL     1      10.662  13.260  18.981  0.00  0.00    +0.000 A 
ATOM     11  C   UNL     1      11.630  13.056  18.007  0.00  0.00    +0.000 A 
ATOM     12  C   UNL     1      11.720  13.958  16.948  0.00  0.00    +0.000 A 
ATOM     13  C   UNL     1      10.835  15.032  16.890  0.00  0.00    +0.000 A 
ATOM     14  C   UNL     1       9.879  15.152  17.896  0.00  0.00    +0.000 A 
ATOM     15  N   UNL     1       9.779  14.282  18.934  0.00  0.00    +0.000 NA
BRANCH  14  16
ATOM     16  C   UNL     1       8.910  16.270  17.885  0.00  0.00    +0.000 C 
ATOM     17  N   UNL     1       8.959  17.253  18.732  0.00  0.00    +0.000 NA
BRANCH  17  18
ATOM     18  O   UNL     1       7.912  18.144  18.463  0.00  0.00    +0.000 OA
ATOM     19  H   UNL     1       7.290  17.581  17.967  0.00  0.00    +0.000 HD
ENDBRANCH  17  18
ENDBRANCH  14  16
BRANCH  13  20
ATOM     20  O   UNL     1      10.926  15.938  15.874  0.00  0.00    +0.000 OA
ATOM     21  H   UNL     1      11.859  16.049  15.624  0.00  0.00    +0.000 HD
ENDBRANCH  13  20
ENDBRANCH   9  10
ENDBRANCH   8   9
ENDBRANCH   7   8
ENDBRANCH   6   7
ENDBRANCH   3   6
BRANCH   1  22
ATOM     22  C   UNL     1       6.250   5.744  17.158  0.00  0.00    +0.000 C 
BRANCH  22  23
ATOM     23  C   UNL     1       5.053   6.331  16.402  0.00  0.00    +0.000 C 
BRANCH  23  24
ATOM     24  C   UNL     1       3.930   6.870  17.301  0.00  0.00    +0.000 C 
BRANCH  24  25
ATOM     25  C   UNL     1       3.194   5.787  18.083  0.00  0.00    +0.000 C 
BRANCH  25  26
ATOM     26  O   UNL     1       3.751   5.722  19.389  0.00  0.00    +0.000 OA
BRANCH  26  29
ATOM     27  C   UNL     1       3.324   2.291  19.462  0.00  0.00    +0.000 C 
ATOM     28  O   UNL     1       4.177   3.415  19.774  0.00  0.00    +0.000 OA
ATOM     29  C   UNL     1       3.356   4.552  20.093  0.00  0.00    +0.000 C 
ATOM     30  C   UNL     1       1.910   4.203  19.734  0.00  0.00    +0.000 C 
ATOM     31  C   UNL     1       1.911   2.693  19.871  0.00  0.00    +0.000 C 
BRANCH  31  32
ATOM     32  O   UNL     1       1.677   2.366  21.261  0.00  0.00    +0.000 OA
ATOM     33  H   UNL     1       0.740   2.544  21.463  0.00  0.00    +0.000 HD
ENDBRANCH  31  32
BRANCH  30  34
ATOM     34  O   UNL     1       0.960   4.806  20.622  0.00  0.00    +0.000 OA
ATOM     35  H   UNL     1       0.821   4.159  21.342  0.00  0.00    +0.000 HD
ENDBRANCH  30  34
BRANCH  27  36
ATOM     36  C   UNL     1       3.481   1.904  17.987  0.00  0.00    +0.000 C 
BRANCH  36  37
ATOM     37  O   UNL     1       4.574   2.569  17.372  0.00  0.00    +0.000 OA
ATOM     38  H   UNL     1       4.290   3.485  17.197  0.00  0.00    +0.000 HD
ENDBRANCH  36  37
ENDBRANCH  27  36
ENDBRANCH  26  29
ENDBRANCH  25  26
ENDBRANCH  24  25
ENDBRANCH  23  24
ENDBRANCH  22  23
ENDBRANCH   1  22
TORSDOF 18
ENDMDL
MODEL 3
REMARK VINA RESULT:      -7.0      5.779      8.215
REMARK  Name = 
REMARK  18 active torsions:
REMARK  status: ('A' for Active; 'I' for Inactive)
REMARK    1  A    between atoms: O_1  and  C_2
REMARK    2  A    between atoms: C_2  and  C_3
REMARK    3  A    between atoms: C_5  and  O_6
REMARK    4  A    between atoms: O_6  and  C_7
REMARK    5  A    between atoms: C_7  and  C_8
REMARK    6  A    between atoms: C_8  and  C_9
REMARK    7  A    between atoms: C_9  and  C_10
REMARK    8  A    between atoms: C_10  and  C_11
REMARK    9  A    between atoms: N_13  and  C_14
REMARK   10  A    between atoms: C_14  and  C_15
REMARK   11  A    between atoms: C_15  and  C_16
REMARK   12  A    between atoms: C_16  and  C_17
REMARK   13  A    between atoms: C_17  and  C_18
REMARK   14  A    between atoms: C_21  and  O_22
REMARK   15  A    between atoms: C_23  and  C_24
REMARK   16  A    between atoms: N_25  and  O_26
REMARK   17  A    between atoms: C_30  and  O_31
REMARK   18  A    between atoms: C_32  and  O_33
REMARK                            x       y       z     vdW  Elec       q    Type
REMARK                         _______ _______ _______ _____ _____    ______ ____
ROOT
ATOM      1  C   UNL     1       1.836   4.680  19.148  0.00  0.00    +0.000 A 
ATOM      2  C   UNL     1       1.857   5.583  18.108  0.00  0.00    +0.000 A 
ATOM      3  N   UNL     1       2.665   6.577  18.563  0.00  0.00    +0.000 N 
ATOM      4  N   UNL     1       3.096   6.334  19.812  0.00  0.00    +0.000 NA
ATOM      5  N   UNL     1       2.612   5.156  20.173  0.00  0.00    +0.000 NA
ENDROOT
BRANCH   3   6
ATOM      6  C   UNL     1       3.039   7.801  17.892  0.00  0.00    +0.000 C 
BRANCH   6   7
ATOM      7  C   UNL     1       1.847   8.741  17.712  0.00  0.00    +0.000 C 
BRANCH   7   8
ATOM      8  C   UNL     1       1.268   9.229  19.040  0.00  0.00    +0.000 C 
BRANCH   8   9
ATOM      9  C   UNL     1       1.146  10.751  19.084  0.00  0.00    +0.000 C 
BRANCH   9  10
ATOM     10  C   UNL     1      -0.282  11.211  19.006  0.00  0.00    +0.000 A 
ATOM     11  C   UNL     1      -0.901  11.808  20.097  0.00  0.00    +0.000 A 
ATOM     12  C   UNL     1      -2.244  12.164  19.996  0.00  0.00    +0.000 A 
ATOM     13  C   UNL     1      -2.927  11.920  18.806  0.00  0.00    +0.000 A 
ATOM     14  C   UNL     1      -2.226  11.338  17.753  0.00  0.00    +0.000 A 
ATOM     15  N   UNL     1      -0.918  10.985  17.836  0.00  0.00    +0.000 NA
BRANCH  14  16
ATOM     16  C   UNL     1      -2.898  11.060  16.465  0.00  0.00    +0.000 C 
ATOM     17  N   UNL     1      -2.881   9.891  15.899  0.00  0.00    +0.000 NA
BRANCH  17  18
ATOM     18  O   UNL     1      -3.600   9.950  14.699  0.00  0.00    +0.000 OA
ATOM     19  H   UNL     1      -3.269  10.777  14.305  0.00  0.00    +0.000 HD
ENDBRANCH  17  18
ENDBRANCH  14  16
BRANCH  13  20
ATOM     20  O   UNL     1      -4.249  12.240  18.700  0.00  0.00    +0.000 OA
ATOM     21  H   UNL     1      -4.755  11.444  18.459  0.00  0.00    +0.000 HD
ENDBRANCH  13  20
ENDBRANCH   9  10
ENDBRANCH   8   9
ENDBRANCH   7   8
ENDBRANCH   6   7
ENDBRANCH   3   6
BRANCH   1  22
ATOM     22  C   UNL     1       1.098   3.403  19.284  0.00  0.00    +0.000 C 
BRANCH  22  23
ATOM     23  C   UNL     1       1.635   2.312  18.351  0.00  0.00    +0.000 C 
BRANCH  23  24
ATOM     24  C   UNL     1       3.141   2.042  18.481  0.00  0.00    +0.000 C 
BRANCH  24  25
ATOM     25  C   UNL     1       4.000   2.875  17.535  0.00  0.00    +0.000 C 
BRANCH  25  26
ATOM     26  O   UNL     1       5.039   3.481  18.291  0.00  0.00    +0.000 OA
BRANCH  26  29
ATOM     27  C   UNL     1       5.936   5.126  15.384  0.00  0.00    +0.000 C 
ATOM     28  O   UNL     1       4.931   4.921  16.402  0.00  0.00    +0.000 OA
ATOM     29  C   UNL     1       5.582   4.629  17.651  0.00  0.00    +0.000 C 
ATOM     30  C   UNL     1       7.068   4.399  17.363  0.00  0.00    +0.000 C 
ATOM     31  C   UNL     1       7.274   5.226  16.109  0.00  0.00    +0.000 C 
BRANCH  31  32
ATOM     32  O   UNL     1       7.531   6.593  16.506  0.00  0.00    +0.000 OA
ATOM     33  H   UNL     1       7.350   6.672  17.461  0.00  0.00    +0.000 HD
ENDBRANCH  31  32
BRANCH  30  34
ATOM     34  O   UNL     1       7.912   4.851  18.430  0.00  0.00    +0.000 OA
ATOM     35  H   UNL     1       7.997   4.092  19.041  0.00  0.00    +0.000 HD
ENDBRANCH  30  34
BRANCH  27  36
ATOM     36  C   UNL     1       5.855   4.014  14.333  0.00  0.00    +0.000 C 
BRANCH  36  37
ATOM     37  O   UNL     1       6.713   4.257  13.228  0.00  0.00    +0.000 OA
ATOM     38  H   UNL     1       7.450   4.804  13.553  0.00  0.00    +0.000 HD
ENDBRANCH  36  37
ENDBRANCH  27  36
ENDBRANCH  26  29
ENDBRANCH  25  26
ENDBRANCH  24  25
ENDBRANCH  23  24
ENDBRANCH  22  23
ENDBRANCH   1  22
TORSDOF 18
ENDMDL
MODEL 4
REMARK VINA RESULT:      -6.9      6.039      8.373
REMARK  Name = 
REMARK  18 active torsions:
REMARK  status: ('A' for Active; 'I' for Inactive)
REMARK    1  A    between atoms: O_1  and  C_2
REMARK    2  A    between atoms: C_2  and  C_3
REMARK    3  A    between atoms: C_5  and  O_6
REMARK    4  A    between atoms: O_6  and  C_7
REMARK    5  A    between atoms: C_7  and  C_8
REMARK    6  A    between atoms: C_8  and  C_9
REMARK    7  A    between atoms: C_9  and  C_10
REMARK    8  A    between atoms: C_10  and  C_11
REMARK    9  A    between atoms: N_13  and  C_14
REMARK   10  A    between atoms: C_14  and  C_15
REMARK   11  A    between atoms: C_15  and  C_16
REMARK   12  A    between atoms: C_16  and  C_17
REMARK   13  A    between atoms: C_17  and  C_18
REMARK   14  A    between atoms: C_21  and  O_22
REMARK   15  A    between atoms: C_23  and  C_24
REMARK   16  A    between atoms: N_25  and  O_26
REMARK   17  A    between atoms: C_30  and  O_31
REMARK   18  A    between atoms: C_32  and  O_33
REMARK                            x       y       z     vdW  Elec       q    Type
REMARK                         _______ _______ _______ _____ _____    ______ ____
ROOT
ATOM      1  C   UNL     1       1.515   3.902  19.838  0.00  0.00    +0.000 A 
ATOM      2  C   UNL     1       1.311   5.152  19.296  0.00  0.00    +0.000 A 
ATOM      3  N   UNL     1       1.908   5.988  20.187  0.00  0.00    +0.000 N 
ATOM      4  N   UNL     1       2.423   5.317  21.230  0.00  0.00    +0.000 NA
ATOM      5  N   UNL     1       2.209   4.028  21.014  0.00  0.00    +0.000 NA
ENDROOT
BRANCH   3   6
ATOM      6  C   UNL     1       1.995   7.429  20.138  0.00  0.00    +0.000 C 
BRANCH   6   7
ATOM      7  C   UNL     1       1.201   8.088  21.267  0.00  0.00    +0.000 C 
BRANCH   7   8
ATOM      8  C   UNL     1       0.828   9.539  20.963  0.00  0.00    +0.000 C 
BRANCH   8   9
ATOM      9  C   UNL     1       0.704   9.794  19.462  0.00  0.00    +0.000 C 
BRANCH   9  10
ATOM     10  C   UNL     1      -0.554  10.536  19.111  0.00  0.00    +0.000 A 
ATOM     11  C   UNL     1      -1.246  11.262  20.071  0.00  0.00    +0.000 A 
ATOM     12  C   UNL     1      -2.441  11.884  19.713  0.00  0.00    +0.000 A 
ATOM     13  C   UNL     1      -2.904  11.767  18.403  0.00  0.00    +0.000 A 
ATOM     14  C   UNL     1      -2.138  11.039  17.497  0.00  0.00    +0.000 A 
ATOM     15  N   UNL     1      -0.973  10.427  17.831  0.00  0.00    +0.000 NA
BRANCH  14  16
ATOM     16  C   UNL     1      -2.578  10.885  16.093  0.00  0.00    +0.000 C 
ATOM     17  N   UNL     1      -2.992   9.755  15.604  0.00  0.00    +0.000 NA
BRANCH  17  18
ATOM     18  O   UNL     1      -3.333   9.934  14.258  0.00  0.00    +0.000 OA
ATOM     19  H   UNL     1      -2.795  10.709  14.014  0.00  0.00    +0.000 HD
ENDBRANCH  17  18
ENDBRANCH  14  16
BRANCH  13  20
ATOM     20  O   UNL     1      -4.084  12.349  18.043  0.00  0.00    +0.000 OA
ATOM     21  H   UNL     1      -4.771  12.115  18.691  0.00  0.00    +0.000 HD
ENDBRANCH  13  20
ENDBRANCH   9  10
ENDBRANCH   8   9
ENDBRANCH   7   8
ENDBRANCH   6   7
ENDBRANCH   3   6
BRANCH   1  22
ATOM     22  C   UNL     1       1.066   2.574  19.359  0.00  0.00    +0.000 C 
BRANCH  22  23
ATOM     23  C   UNL     1       2.145   1.842  18.556  0.00  0.00    +0.000 C 
BRANCH  23  24
ATOM     24  C   UNL     1       2.771   2.668  17.422  0.00  0.00    +0.000 C 
BRANCH  24  25
ATOM     25  C   UNL     1       4.269   2.905  17.586  0.00  0.00    +0.000 C 
BRANCH  25  26
ATOM     26  O   UNL     1       4.455   4.131  18.280  0.00  0.00    +0.000 OA
BRANCH  26  29
ATOM     27  C   UNL     1       5.757   5.249  15.278  0.00  0.00    +0.000 C 
ATOM     28  O   UNL     1       4.733   5.396  16.287  0.00  0.00    +0.000 OA
ATOM     29  C   UNL     1       5.282   5.041  17.568  0.00  0.00    +0.000 C 
ATOM     30  C   UNL     1       6.655   4.407  17.331  0.00  0.00    +0.000 C 
ATOM     31  C   UNL     1       7.073   5.050  16.023  0.00  0.00    +0.000 C 
BRANCH  31  32
ATOM     32  O   UNL     1       7.681   6.328  16.322  0.00  0.00    +0.000 OA
ATOM     33  H   UNL     1       8.006   6.305  17.241  0.00  0.00    +0.000 HD
ENDBRANCH  31  32
BRANCH  30  34
ATOM     34  O   UNL     1       7.587   4.703  18.379  0.00  0.00    +0.000 OA
ATOM     35  H   UNL     1       7.128   4.481  19.214  0.00  0.00    +0.000 HD
ENDBRANCH  30  34
BRANCH  27  36
ATOM     36  C   UNL     1       5.387   4.118  14.313  0.00  0.00    +0.000 C 
BRANCH  36  37
ATOM     37  O   UNL     1       6.525   3.581  13.656  0.00  0.00    +0.000 OA
ATOM     38  H   UNL     1       6.616   2.657  13.951  0.00  0.00    +0.000 HD
ENDBRANCH  36  37
ENDBRANCH  27  36
ENDBRANCH  26  29
ENDBRANCH  25  26
ENDBRANCH  24  25
ENDBRANCH  23  24
ENDBRANCH  22  23
ENDBRANCH   1  22
TORSDOF 18
ENDMDL
MODEL 5
REMARK VINA RESULT:      -6.8      6.780     10.290
REMARK  Name = 
REMARK  18 active torsions:
REMARK  status: ('A' for Active; 'I' for Inactive)
REMARK    1  A    between atoms: O_1  and  C_2
REMARK    2  A    between atoms: C_2  and  C_3
REMARK    3  A    between atoms: C_5  and  O_6
REMARK    4  A    between atoms: O_6  and  C_7
REMARK    5  A    between atoms: C_7  and  C_8
REMARK    6  A    between atoms: C_8  and  C_9
REMARK    7  A    between atoms: C_9  and  C_10
REMARK    8  A    between atoms: C_10  and  C_11
REMARK    9  A    between atoms: N_13  and  C_14
REMARK   10  A    between atoms: C_14  and  C_15
REMARK   11  A    between atoms: C_15  and  C_16
REMARK   12  A    between atoms: C_16  and  C_17
REMARK   13  A    between atoms: C_17  and  C_18
REMARK   14  A    between atoms: C_21  and  O_22
REMARK   15  A    between atoms: C_23  and  C_24
REMARK   16  A    between atoms: N_25  and  O_26
REMARK   17  A    between atoms: C_30  and  O_31
REMARK   18  A    between atoms: C_32  and  O_33
REMARK                            x       y       z     vdW  Elec       q    Type
REMARK                         _______ _______ _______ _____ _____    ______ ____
ROOT
ATOM      1  C   UNL     1       1.061   9.126  19.632  0.00  0.00    +0.000 A 
ATOM      2  C   UNL     1       0.068   9.919  20.163  0.00  0.00    +0.000 A 
ATOM      3  N   UNL     1       0.166   9.702  21.501  0.00  0.00    +0.000 N 
ATOM      4  N   UNL     1       1.130   8.813  21.791  0.00  0.00    +0.000 NA
ATOM      5  N   UNL     1       1.705   8.469  20.649  0.00  0.00    +0.000 NA
ENDROOT
BRANCH   3   6
ATOM      6  C   UNL     1      -0.640  10.267  22.558  0.00  0.00    +0.000 C 
BRANCH   6   7
ATOM      7  C   UNL     1      -0.717  11.791  22.466  0.00  0.00    +0.000 C 
BRANCH   7   8
ATOM      8  C   UNL     1      -2.153  12.316  22.455  0.00  0.00    +0.000 C 
BRANCH   8   9
ATOM      9  C   UNL     1      -2.398  13.284  21.299  0.00  0.00    +0.000 C 
BRANCH   9  10
ATOM     10  C   UNL     1      -3.333  12.716  20.268  0.00  0.00    +0.000 A 
ATOM     11  C   UNL     1      -4.707  12.725  20.468  0.00  0.00    +0.000 A 
ATOM     12  C   UNL     1      -5.529  12.134  19.512  0.00  0.00    +0.000 A 
ATOM     13  C   UNL     1      -4.954  11.557  18.380  0.00  0.00    +0.000 A 
ATOM     14  C   UNL     1      -3.569  11.611  18.246  0.00  0.00    +0.000 A 
ATOM     15  N   UNL     1      -2.755  12.183  19.169  0.00  0.00    +0.000 NA
BRANCH  14  16
ATOM     16  C   UNL     1      -2.904  11.020  17.064  0.00  0.00    +0.000 C 
ATOM     17  N   UNL     1      -3.368  11.147  15.858  0.00  0.00    +0.000 NA
BRANCH  17  18
ATOM     18  O   UNL     1      -2.520  10.478  14.966  0.00  0.00    +0.000 OA
ATOM     19  H   UNL     1      -2.795   9.550  15.083  0.00  0.00    +0.000 HD
ENDBRANCH  17  18
ENDBRANCH  14  16
BRANCH  13  20
ATOM     20  O   UNL     1      -5.744  10.952  17.446  0.00  0.00    +0.000 OA
ATOM     21  H   UNL     1      -5.641   9.987  17.514  0.00  0.00    +0.000 HD
ENDBRANCH  13  20
ENDBRANCH   9  10
ENDBRANCH   8   9
ENDBRANCH   7   8
ENDBRANCH   6   7
ENDBRANCH   3   6
BRANCH   1  22
ATOM     22  C   UNL     1       1.436   8.891  18.218  0.00  0.00    +0.000 C 
BRANCH  22  23
ATOM     23  C   UNL     1       2.828   8.267  18.075  0.00  0.00    +0.000 C 
BRANCH  23  24
ATOM     24  C   UNL     1       2.835   6.737  17.948  0.00  0.00    +0.000 C 
BRANCH  24  25
ATOM     25  C   UNL     1       4.229   6.138  17.787  0.00  0.00    +0.000 C 
BRANCH  25  26
ATOM     26  O   UNL     1       4.412   5.154  18.796  0.00  0.00    +0.000 OA
BRANCH  26  29
ATOM     27  C   UNL     1       2.316   2.589  17.803  0.00  0.00    +0.000 C 
ATOM     28  O   UNL     1       3.129   3.716  17.405  0.00  0.00    +0.000 OA
ATOM     29  C   UNL     1       4.244   3.831  18.305  0.00  0.00    +0.000 C 
ATOM     30  C   UNL     1       4.002   2.877  19.478  0.00  0.00    +0.000 C 
ATOM     31  C   UNL     1       3.125   1.817  18.840  0.00  0.00    +0.000 C 
BRANCH  31  32
ATOM     32  O   UNL     1       3.984   0.850  18.192  0.00  0.00    +0.000 OA
ATOM     33  H   UNL     1       4.820   1.293  17.958  0.00  0.00    +0.000 HD
ENDBRANCH  31  32
BRANCH  30  34
ATOM     34  O   UNL     1       5.215   2.312  19.989  0.00  0.00    +0.000 OA
ATOM     35  H   UNL     1       5.273   1.414  19.604  0.00  0.00    +0.000 HD
ENDBRANCH  30  34
BRANCH  27  36
ATOM     36  C   UNL     1       0.945   3.073  18.286  0.00  0.00    +0.000 C 
BRANCH  36  37
ATOM     37  O   UNL     1       0.221   2.051  18.954  0.00  0.00    +0.000 OA
ATOM     38  H   UNL     1       0.172   2.303  19.894  0.00  0.00    +0.000 HD
ENDBRANCH  36  37
ENDBRANCH  27  36
ENDBRANCH  26  29
ENDBRANCH  25  26
ENDBRANCH  24  25
ENDBRANCH  23  24
ENDBRANCH  22  23
ENDBRANCH   1  22
TORSDOF 18
ENDMDL
MODEL 6
REMARK VINA RESULT:      -6.8      5.457      8.530
REMARK  Name = 
REMARK  18 active torsions:
REMARK  status: ('A' for Active; 'I' for Inactive)
REMARK    1  A    between atoms: O_1  and  C_2
REMARK    2  A    between atoms: C_2  and  C_3
REMARK    3  A    between atoms: C_5  and  O_6
REMARK    4  A    between atoms: O_6  and  C_7
REMARK    5  A    between atoms: C_7  and  C_8
REMARK    6  A    between atoms: C_8  and  C_9
REMARK    7  A    between atoms: C_9  and  C_10
REMARK    8  A    between atoms: C_10  and  C_11
REMARK    9  A    between atoms: N_13  and  C_14
REMARK   10  A    between atoms: C_14  and  C_15
REMARK   11  A    between atoms: C_15  and  C_16
REMARK   12  A    between atoms: C_16  and  C_17
REMARK   13  A    between atoms: C_17  and  C_18
REMARK   14  A    between atoms: C_21  and  O_22
REMARK   15  A    between atoms: C_23  and  C_24
REMARK   16  A    between atoms: N_25  and  O_26
REMARK   17  A    between atoms: C_30  and  O_31
REMARK   18  A    between atoms: C_32  and  O_33
REMARK                            x       y       z     vdW  Elec       q    Type
REMARK                         _______ _______ _______ _____ _____    ______ ____
ROOT
ATOM      1  C   UNL     1       2.348   6.142  19.546  0.00  0.00    +0.000 A 
ATOM      2  C   UNL     1       2.182   7.488  19.791  0.00  0.00    +0.000 A 
ATOM      3  N   UNL     1       2.161   8.039  18.548  0.00  0.00    +0.000 N 
ATOM      4  N   UNL     1       2.334   7.112  17.591  0.00  0.00    +0.000 NA
ATOM      5  N   UNL     1       2.425   5.936  18.193  0.00  0.00    +0.000 NA
ENDROOT
BRANCH   3   6
ATOM      6  C   UNL     1       2.024   9.432  18.192  0.00  0.00    +0.000 C 
BRANCH   6   7
ATOM      7  C   UNL     1       0.560   9.833  18.011  0.00  0.00    +0.000 C 
BRANCH   7   8
ATOM      8  C   UNL     1       0.032  10.692  19.161  0.00  0.00    +0.000 C 
BRANCH   8   9
ATOM      9  C   UNL     1      -0.637  11.970  18.658  0.00  0.00    +0.000 C 
BRANCH   9  10
ATOM     10  C   UNL     1      -2.069  11.747  18.263  0.00  0.00    +0.000 A 
ATOM     11  C   UNL     1      -2.392  11.197  17.029  0.00  0.00    +0.000 A 
ATOM     12  C   UNL     1      -3.735  11.064  16.683  0.00  0.00    +0.000 A 
ATOM     13  C   UNL     1      -4.716  11.478  17.583  0.00  0.00    +0.000 A 
ATOM     14  C   UNL     1      -4.307  11.998  18.808  0.00  0.00    +0.000 A 
ATOM     15  N   UNL     1      -3.003  12.134  19.160  0.00  0.00    +0.000 NA
BRANCH  14  16
ATOM     16  C   UNL     1      -5.303  12.449  19.805  0.00  0.00    +0.000 C 
ATOM     17  N   UNL     1      -6.194  13.358  19.548  0.00  0.00    +0.000 NA
BRANCH  17  18
ATOM     18  O   UNL     1      -6.983  13.563  20.687  0.00  0.00    +0.000 OA
ATOM     19  H   UNL     1      -6.327  13.883  21.332  0.00  0.00    +0.000 HD
ENDBRANCH  17  18
ENDBRANCH  14  16
BRANCH  13  20
ATOM     20  O   UNL     1      -6.035  11.378  17.249  0.00  0.00    +0.000 OA
ATOM     21  H   UNL     1      -6.118  11.306  16.283  0.00  0.00    +0.000 HD
ENDBRANCH  13  20
ENDBRANCH   9  10
ENDBRANCH   8   9
ENDBRANCH   7   8
ENDBRANCH   6   7
ENDBRANCH   3   6
BRANCH   1  22
ATOM     22  C   UNL     1       2.489   5.014  20.496  0.00  0.00    +0.000 C 
BRANCH  22  23
ATOM     23  C   UNL     1       2.396   3.649  19.806  0.00  0.00    +0.000 C 
BRANCH  23  24
ATOM     24  C   UNL     1       3.658   2.783  19.927  0.00  0.00    +0.000 C 
BRANCH  24  25
ATOM     25  C   UNL     1       4.908   3.429  19.339  0.00  0.00    +0.000 C 
BRANCH  25  26
ATOM     26  O   UNL     1       4.640   3.771  17.986  0.00  0.00    +0.000 OA
BRANCH  26  29
ATOM     27  C   UNL     1       7.713   5.349  18.160  0.00  0.00    +0.000 C 
ATOM     28  O   UNL     1       6.994   4.100  18.054  0.00  0.00    +0.000 OA
ATOM     29  C   UNL     1       5.774   4.321  17.327  0.00  0.00    +0.000 C 
ATOM     30  C   UNL     1       5.589   5.833  17.168  0.00  0.00    +0.000 C 
ATOM     31  C   UNL     1       7.022   6.328  17.217  0.00  0.00    +0.000 C 
BRANCH  31  32
ATOM     32  O   UNL     1       7.580   6.225  15.886  0.00  0.00    +0.000 OA
ATOM     33  H   UNL     1       6.974   5.691  15.341  0.00  0.00    +0.000 HD
ENDBRANCH  31  32
BRANCH  30  34
ATOM     34  O   UNL     1       4.958   6.184  15.930  0.00  0.00    +0.000 OA
ATOM     35  H   UNL     1       4.546   5.361  15.599  0.00  0.00    +0.000 HD
ENDBRANCH  30  34
BRANCH  27  36
ATOM     36  C   UNL     1       7.774   5.800  19.623  0.00  0.00    +0.000 C 
BRANCH  36  37
ATOM     37  O   UNL     1       8.755   5.090  20.362  0.00  0.00    +0.000 OA
ATOM     38  H   UNL     1       9.625   5.426  20.079  0.00  0.00    +0.000 HD
ENDBRANCH  36  37
ENDBRANCH  27  36
ENDBRANCH  26  29
ENDBRANCH  25  26
ENDBRANCH  24  25
ENDBRANCH  23  24
ENDBRANCH  22  23
ENDBRANCH   1  22
TORSDOF 18
ENDMDL
MODEL 7
REMARK VINA RESULT:      -6.8      6.272     10.146
REMARK  Name = 
REMARK  18 active torsions:
REMARK  status: ('A' for Active; 'I' for Inactive)
REMARK    1  A    between atoms: O_1  and  C_2
REMARK    2  A    between atoms: C_2  and  C_3
REMARK    3  A    between atoms: C_5  and  O_6
REMARK    4  A    between atoms: O_6  and  C_7
REMARK    5  A    between atoms: C_7  and  C_8
REMARK    6  A    between atoms: C_8  and  C_9
REMARK    7  A    between atoms: C_9  and  C_10
REMARK    8  A    between atoms: C_10  and  C_11
REMARK    9  A    between atoms: N_13  and  C_14
REMARK   10  A    between atoms: C_14  and  C_15
REMARK   11  A    between atoms: C_15  and  C_16
REMARK   12  A    between atoms: C_16  and  C_17
REMARK   13  A    between atoms: C_17  and  C_18
REMARK   14  A    between atoms: C_21  and  O_22
REMARK   15  A    between atoms: C_23  and  C_24
REMARK   16  A    between atoms: N_25  and  O_26
REMARK   17  A    between atoms: C_30  and  O_31
REMARK   18  A    between atoms: C_32  and  O_33
REMARK                            x       y       z     vdW  Elec       q    Type
REMARK                         _______ _______ _______ _____ _____    ______ ____
ROOT
ATOM      1  C   UNL     1       2.570   7.614  18.809  0.00  0.00    +0.000 A 
ATOM      2  C   UNL     1       1.830   8.510  19.549  0.00  0.00    +0.000 A 
ATOM      3  N   UNL     1       1.372   7.765  20.589  0.00  0.00    +0.000 N 
ATOM      4  N   UNL     1       1.767   6.484  20.495  0.00  0.00    +0.000 NA
ATOM      5  N   UNL     1       2.527   6.385  19.415  0.00  0.00    +0.000 NA
ENDROOT
BRANCH   3   6
ATOM      6  C   UNL     1       0.525   8.183  21.682  0.00  0.00    +0.000 C 
BRANCH   6   7
ATOM      7  C   UNL     1       0.936   9.548  22.233  0.00  0.00    +0.000 C 
BRANCH   7   8
ATOM      8  C   UNL     1      -0.146  10.613  22.050  0.00  0.00    +0.000 C 
BRANCH   8   9
ATOM      9  C   UNL     1      -1.183  10.571  23.172  0.00  0.00    +0.000 C 
BRANCH   9  10
ATOM     10  C   UNL     1      -1.992  11.834  23.248  0.00  0.00    +0.000 A 
ATOM     11  C   UNL     1      -1.428  13.064  22.938  0.00  0.00    +0.000 A 
ATOM     12  C   UNL     1      -2.200  14.215  23.081  0.00  0.00    +0.000 A 
ATOM     13  C   UNL     1      -3.518  14.101  23.522  0.00  0.00    +0.000 A 
ATOM     14  C   UNL     1      -4.014  12.827  23.790  0.00  0.00    +0.000 A 
ATOM     15  N   UNL     1      -3.273  11.698  23.656  0.00  0.00    +0.000 NA
BRANCH  14  16
ATOM     16  C   UNL     1      -5.406  12.645  24.256  0.00  0.00    +0.000 C 
ATOM     17  N   UNL     1      -6.427  12.666  23.453  0.00  0.00    +0.000 NA
BRANCH  17  18
ATOM     18  O   UNL     1      -7.599  12.467  24.193  0.00  0.00    +0.000 OA
ATOM     19  H   UNL     1      -7.257  12.428  25.105  0.00  0.00    +0.000 HD
ENDBRANCH  17  18
ENDBRANCH  14  16
BRANCH  13  20
ATOM     20  O   UNL     1      -4.280  15.219  23.691  0.00  0.00    +0.000 OA
ATOM     21  H   UNL     1      -4.145  15.569  24.589  0.00  0.00    +0.000 HD
ENDBRANCH  13  20
ENDBRANCH   9  10
ENDBRANCH   8   9
ENDBRANCH   7   8
ENDBRANCH   6   7
ENDBRANCH   3   6
BRANCH   1  22
ATOM     22  C   UNL     1       3.293   7.806  17.530  0.00  0.00    +0.000 C 
BRANCH  22  23
ATOM     23  C   UNL     1       4.113   6.577  17.128  0.00  0.00    +0.000 C 
BRANCH  23  24
ATOM     24  C   UNL     1       5.598   6.642  17.516  0.00  0.00    +0.000 C 
BRANCH  24  25
ATOM     25  C   UNL     1       6.152   5.328  18.057  0.00  0.00    +0.000 C 
BRANCH  25  26
ATOM     26  O   UNL     1       5.168   4.740  18.898  0.00  0.00    +0.000 OA
BRANCH  26  29
ATOM     27  C   UNL     1       2.665   2.616  17.809  0.00  0.00    +0.000 C 
ATOM     28  O   UNL     1       3.734   3.519  17.447  0.00  0.00    +0.000 OA
ATOM     29  C   UNL     1       4.763   3.453  18.448  0.00  0.00    +0.000 C 
ATOM     30  C   UNL     1       4.218   2.648  19.630  0.00  0.00    +0.000 C 
ATOM     31  C   UNL     1       3.193   1.757  18.953  0.00  0.00    +0.000 C 
BRANCH  31  32
ATOM     32  O   UNL     1       3.878   0.593  18.435  0.00  0.00    +0.000 OA
ATOM     33  H   UNL     1       3.984  -0.048  19.163  0.00  0.00    +0.000 HD
ENDBRANCH  31  32
BRANCH  30  34
ATOM     34  O   UNL     1       5.231   1.872  20.283  0.00  0.00    +0.000 OA
ATOM     35  H   UNL     1       5.309   1.046  19.765  0.00  0.00    +0.000 HD
ENDBRANCH  30  34
BRANCH  27  36
ATOM     36  C   UNL     1       1.393   3.407  18.131  0.00  0.00    +0.000 C 
BRANCH  36  37
ATOM     37  O   UNL     1       1.230   3.614  19.526  0.00  0.00    +0.000 OA
ATOM     38  H   UNL     1       0.852   4.505  19.640  0.00  0.00    +0.000 HD
ENDBRANCH  36  37
ENDBRANCH  27  36
ENDBRANCH  26  29
ENDBRANCH  25  26
ENDBRANCH  24  25
ENDBRANCH  23  24
ENDBRANCH  22  23
ENDBRANCH   1  22
TORSDOF 18
ENDMDL
MODEL 8
REMARK VINA RESULT:      -6.7      7.297     10.861
REMARK  Name = 
REMARK  18 active torsions:
REMARK  status: ('A' for Active; 'I' for Inactive)
REMARK    1  A    between atoms: O_1  and  C_2
REMARK    2  A    between atoms: C_2  and  C_3
REMARK    3  A    between atoms: C_5  and  O_6
REMARK    4  A    between atoms: O_6  and  C_7
REMARK    5  A    between atoms: C_7  and  C_8
REMARK    6  A    between atoms: C_8  and  C_9
REMARK    7  A    between atoms: C_9  and  C_10
REMARK    8  A    between atoms: C_10  and  C_11
REMARK    9  A    between atoms: N_13  and  C_14
REMARK   10  A    between atoms: C_14  and  C_15
REMARK   11  A    between atoms: C_15  and  C_16
REMARK   12  A    between atoms: C_16  and  C_17
REMARK   13  A    between atoms: C_17  and  C_18
REMARK   14  A    between atoms: C_21  and  O_22
REMARK   15  A    between atoms: C_23  and  C_24
REMARK   16  A    between atoms: N_25  and  O_26
REMARK   17  A    between atoms: C_30  and  O_31
REMARK   18  A    between atoms: C_32  and  O_33
REMARK                            x       y       z     vdW  Elec       q    Type
REMARK                         _______ _______ _______ _____ _____    ______ ____
ROOT
ATOM      1  C   UNL     1       0.470  10.065  21.112  0.00  0.00    +0.000 A 
ATOM      2  C   UNL     1      -0.162  10.401  22.288  0.00  0.00    +0.000 A 
ATOM      3  N   UNL     1      -0.606  11.666  22.063  0.00  0.00    +0.000 N 
ATOM      4  N   UNL     1      -0.252  12.107  20.844  0.00  0.00    +0.000 NA
ATOM      5  N   UNL     1       0.390  11.119  20.240  0.00  0.00    +0.000 NA
ENDROOT
BRANCH   3   6
ATOM      6  C   UNL     1      -1.333  12.530  22.964  0.00  0.00    +0.000 C 
BRANCH   6   7
ATOM      7  C   UNL     1      -2.709  11.964  23.313  0.00  0.00    +0.000 C 
BRANCH   7   8
ATOM      8  C   UNL     1      -3.824  13.005  23.213  0.00  0.00    +0.000 C 
BRANCH   8   9
ATOM      9  C   UNL     1      -3.926  13.599  21.809  0.00  0.00    +0.000 C 
BRANCH   9  10
ATOM     10  C   UNL     1      -4.844  12.809  20.920  0.00  0.00    +0.000 A 
ATOM     11  C   UNL     1      -6.042  12.301  21.404  0.00  0.00    +0.000 A 
ATOM     12  C   UNL     1      -6.832  11.524  20.559  0.00  0.00    +0.000 A 
ATOM     13  C   UNL     1      -6.405  11.284  19.254  0.00  0.00    +0.000 A 
ATOM     14  C   UNL     1      -5.201  11.850  18.842  0.00  0.00    +0.000 A 
ATOM     15  N   UNL     1      -4.420  12.608  19.653  0.00  0.00    +0.000 NA
BRANCH  14  16
ATOM     16  C   UNL     1      -4.700  11.634  17.467  0.00  0.00    +0.000 C 
ATOM     17  N   UNL     1      -3.435  11.570  17.180  0.00  0.00    +0.000 NA
BRANCH  17  18
ATOM     18  O   UNL     1      -3.286  11.360  15.804  0.00  0.00    +0.000 OA
ATOM     19  H   UNL     1      -4.116  11.731  15.452  0.00  0.00    +0.000 HD
ENDBRANCH  17  18
ENDBRANCH  14  16
BRANCH  13  20
ATOM     20  O   UNL     1      -7.155  10.505  18.423  0.00  0.00    +0.000 OA
ATOM     21  H   UNL     1      -8.062  10.444  18.769  0.00  0.00    +0.000 HD
ENDBRANCH  13  20
ENDBRANCH   9  10
ENDBRANCH   8   9
ENDBRANCH   7   8
ENDBRANCH   6   7
ENDBRANCH   3   6
BRANCH   1  22
ATOM     22  C   UNL     1       1.198   8.828  20.744  0.00  0.00    +0.000 C 
BRANCH  22  23
ATOM     23  C   UNL     1       1.347   8.662  19.228  0.00  0.00    +0.000 C 
BRANCH  23  24
ATOM     24  C   UNL     1       2.460   7.696  18.795  0.00  0.00    +0.000 C 
BRANCH  24  25
ATOM     25  C   UNL     1       2.458   6.374  19.555  0.00  0.00    +0.000 C 
BRANCH  25  26
ATOM     26  O   UNL     1       3.718   5.745  19.363  0.00  0.00    +0.000 OA
BRANCH  26  29
ATOM     27  C   UNL     1       2.276   2.613  19.090  0.00  0.00    +0.000 C 
ATOM     28  O   UNL     1       2.264   3.997  18.670  0.00  0.00    +0.000 OA
ATOM     29  C   UNL     1       3.609   4.502  18.681  0.00  0.00    +0.000 C 
ATOM     30  C   UNL     1       4.496   3.462  19.371  0.00  0.00    +0.000 C 
ATOM     31  C   UNL     1       3.738   2.177  19.100  0.00  0.00    +0.000 C 
BRANCH  31  32
ATOM     32  O   UNL     1       4.127   1.690  17.795  0.00  0.00    +0.000 OA
ATOM     33  H   UNL     1       4.133   0.715  17.823  0.00  0.00    +0.000 HD
ENDBRANCH  31  32
BRANCH  30  34
ATOM     34  O   UNL     1       5.819   3.413  18.820  0.00  0.00    +0.000 OA
ATOM     35  H   UNL     1       6.060   2.465  18.794  0.00  0.00    +0.000 HD
ENDBRANCH  30  34
BRANCH  27  36
ATOM     36  C   UNL     1       1.550   2.463  20.431  0.00  0.00    +0.000 C 
BRANCH  36  37
ATOM     37  O   UNL     1       0.612   3.505  20.652  0.00  0.00    +0.000 OA
ATOM     38  H   UNL     1       0.671   4.110  19.890  0.00  0.00    +0.000 HD
ENDBRANCH  36  37
ENDBRANCH  27  36
ENDBRANCH  26  29
ENDBRANCH  25  26
ENDBRANCH  24  25
ENDBRANCH  23  24
ENDBRANCH  22  23
ENDBRANCH   1  22
TORSDOF 18
ENDMDL
MODEL 9
REMARK VINA RESULT:      -6.7      5.230      9.252
REMARK  Name = 
REMARK  18 active torsions:
REMARK  status: ('A' for Active; 'I' for Inactive)
REMARK    1  A    between atoms: O_1  and  C_2
REMARK    2  A    between atoms: C_2  and  C_3
REMARK    3  A    between atoms: C_5  and  O_6
REMARK    4  A    between atoms: O_6  and  C_7
REMARK    5  A    between atoms: C_7  and  C_8
REMARK    6  A    between atoms: C_8  and  C_9
REMARK    7  A    between atoms: C_9  and  C_10
REMARK    8  A    between atoms: C_10  and  C_11
REMARK    9  A    between atoms: N_13  and  C_14
REMARK   10  A    between atoms: C_14  and  C_15
REMARK   11  A    between atoms: C_15  and  C_16
REMARK   12  A    between atoms: C_16  and  C_17
REMARK   13  A    between atoms: C_17  and  C_18
REMARK   14  A    between atoms: C_21  and  O_22
REMARK   15  A    between atoms: C_23  and  C_24
REMARK   16  A    between atoms: N_25  and  O_26
REMARK   17  A    between atoms: C_30  and  O_31
REMARK   18  A    between atoms: C_32  and  O_33
REMARK                            x       y       z     vdW  Elec       q    Type
REMARK                         _______ _______ _______ _____ _____    ______ ____
ROOT
ATOM      1  C   UNL     1       1.799   8.084  19.504  0.00  0.00    +0.000 A 
ATOM      2  C   UNL     1       1.844   7.039  20.401  0.00  0.00    +0.000 A 
ATOM      3  N   UNL     1       2.314   6.001  19.660  0.00  0.00    +0.000 N 
ATOM      4  N   UNL     1       2.521   6.357  18.381  0.00  0.00    +0.000 NA
ATOM      5  N   UNL     1       2.230   7.645  18.279  0.00  0.00    +0.000 NA
ENDROOT
BRANCH   3   6
ATOM      6  C   UNL     1       2.554   4.640  20.081  0.00  0.00    +0.000 C 
BRANCH   6   7
ATOM      7  C   UNL     1       2.206   3.633  18.985  0.00  0.00    +0.000 C 
BRANCH   7   8
ATOM      8  C   UNL     1       3.363   2.691  18.652  0.00  0.00    +0.000 C 
BRANCH   8   9
ATOM      9  C   UNL     1       3.805   2.822  17.195  0.00  0.00    +0.000 C 
BRANCH   9  10
ATOM     10  C   UNL     1       4.793   3.936  16.997  0.00  0.00    +0.000 A 
ATOM     11  C   UNL     1       4.792   4.692  15.832  0.00  0.00    +0.000 A 
ATOM     12  C   UNL     1       5.765   5.675  15.667  0.00  0.00    +0.000 A 
ATOM     13  C   UNL     1       6.705   5.880  16.676  0.00  0.00    +0.000 A 
ATOM     14  C   UNL     1       6.622   5.093  17.822  0.00  0.00    +0.000 A 
ATOM     15  N   UNL     1       5.681   4.131  17.996  0.00  0.00    +0.000 NA
BRANCH  14  16
ATOM     16  C   UNL     1       7.590   5.269  18.927  0.00  0.00    +0.000 C 
ATOM     17  N   UNL     1       7.249   5.210  20.179  0.00  0.00    +0.000 NA
BRANCH  17  18
ATOM     18  O   UNL     1       8.382   5.415  20.975  0.00  0.00    +0.000 OA
ATOM     19  H   UNL     1       8.030   5.264  21.871  0.00  0.00    +0.000 HD
ENDBRANCH  17  18
ENDBRANCH  14  16
BRANCH  13  20
ATOM     20  O   UNL     1       7.680   6.821  16.520  0.00  0.00    +0.000 OA
ATOM     21  H   UNL     1       7.391   7.478  15.862  0.00  0.00    +0.000 HD
ENDBRANCH  13  20
ENDBRANCH   9  10
ENDBRANCH   8   9
ENDBRANCH   7   8
ENDBRANCH   6   7
ENDBRANCH   3   6
BRANCH   1  22
ATOM     22  C   UNL     1       1.333   9.477  19.691  0.00  0.00    +0.000 C 
BRANCH  22  23
ATOM     23  C   UNL     1       0.926  10.143  18.373  0.00  0.00    +0.000 C 
BRANCH  23  24
ATOM     24  C   UNL     1      -0.542  10.590  18.306  0.00  0.00    +0.000 C 
BRANCH  24  25
ATOM     25  C   UNL     1      -1.115  11.022  19.652  0.00  0.00    +0.000 C 
BRANCH  25  26
ATOM     26  O   UNL     1      -1.536  12.375  19.545  0.00  0.00    +0.000 OA
BRANCH  26  29
ATOM     27  C   UNL     1      -1.379  12.201  22.996  0.00  0.00    +0.000 C 
ATOM     28  O   UNL     1      -0.738  12.622  21.771  0.00  0.00    +0.000 OA
ATOM     29  C   UNL     1      -1.748  12.983  20.813  0.00  0.00    +0.000 C 
ATOM     30  C   UNL     1      -3.104  12.543  21.371  0.00  0.00    +0.000 C 
ATOM     31  C   UNL     1      -2.851  12.580  22.866  0.00  0.00    +0.000 C 
BRANCH  31  32
ATOM     32  O   UNL     1      -3.066  13.934  23.327  0.00  0.00    +0.000 OA
ATOM     33  H   UNL     1      -2.381  14.504  22.930  0.00  0.00    +0.000 HD
ENDBRANCH  31  32
BRANCH  30  34
ATOM     34  O   UNL     1      -4.167  13.431  21.000  0.00  0.00    +0.000 OA
ATOM     35  H   UNL     1      -4.706  12.941  20.347  0.00  0.00    +0.000 HD
ENDBRANCH  30  34
BRANCH  27  36
ATOM     36  C   UNL     1      -1.117  10.712  23.243  0.00  0.00    +0.000 C 
BRANCH  36  37
ATOM     37  O   UNL     1       0.226  10.351  22.962  0.00  0.00    +0.000 OA
ATOM     38  H   UNL     1       0.748  10.544  23.762  0.00  0.00    +0.000 HD
ENDBRANCH  36  37
ENDBRANCH  27  36
ENDBRANCH  26  29
ENDBRANCH  25  26
ENDBRANCH  24  25
ENDBRANCH  23  24
ENDBRANCH  22  23
ENDBRANCH   1  22
TORSDOF 18
ENDMDL
