MODEL 1
REMARK VINA RESULT:      -7.3      0.000      0.000
REMARK  Name = 
REMARK  13 active torsions:
REMARK  status: ('A' for Active; 'I' for Inactive)
REMARK    1  A    between atoms: C_1  and  O_2
REMARK    2  A    between atoms: O_2  and  C_3
REMARK    3  A    between atoms: C_7  and  C_8
REMARK    4  A    between atoms: C_8  and  C_9
REMARK    5  A    between atoms: C_9  and  C_10
REMARK    6  A    between atoms: C_10  and  N_11
REMARK    7  A    between atoms: N_11  and  C_23
REMARK    8  A    between atoms: C_12  and  S_13
REMARK    9  A    between atoms: N_14  and  C_15
REMARK   10  A    between atoms: C_15  and  C_16
REMARK   11  A    between atoms: C_16  and  C_17
REMARK   12  A    between atoms: C_23  and  C_24
REMARK   13  A    between atoms: C_23  and  C_25
REMARK                            x       y       z     vdW  Elec       q    Type
REMARK                         _______ _______ _______ _____ _____    ______ ____
ROOT
ATOM      1  N   UNL     1       2.619   4.191  18.479  0.00  0.00    +0.000 N 
ATOM      2  C   UNL     1       3.615   3.506  17.762  0.00  0.00    +0.000 C 
ATOM      3  N   UNL     1       4.271   4.109  16.818  0.00  0.00    +0.000 NA
ENDROOT
BRANCH   1   4
ATOM      4  C   UNL     1       1.747   3.681  19.564  0.00  0.00    +0.000 C 
ATOM      5  C   UNL     1       1.327   4.750  20.574  0.00  0.00    +0.000 C 
ATOM      6  C   UNL     1       0.591   2.818  19.060  0.00  0.00    +0.000 C 
ENDBRANCH   1   4
BRANCH   2   7
ATOM      7  S   UNL     1       3.980   1.801  18.092  0.00  0.00    +0.000 S 
ATOM      8  H   UNL     1       2.755   1.298  18.064  0.00  0.00    +0.000 HD
ENDBRANCH   2   7
BRANCH   1   9
ATOM      9  C   UNL     1       2.242   5.560  18.010  0.00  0.00    +0.000 C 
BRANCH   9  10
ATOM     10  C   UNL     1       3.269   6.630  18.426  0.00  0.00    +0.000 C 
BRANCH  10  11
ATOM     11  C   UNL     1       2.886   8.026  17.897  0.00  0.00    +0.000 C 
BRANCH  11  16
ATOM     12  C   UNL     1      -0.132  10.241  18.767  0.00  0.00    +0.000 A 
ATOM     13  C   UNL     1      -0.260   9.976  20.136  0.00  0.00    +0.000 A 
ATOM     14  C   UNL     1       0.605   9.088  20.768  0.00  0.00    +0.000 A 
ATOM     15  C   UNL     1       1.608   8.452  20.036  0.00  0.00    +0.000 A 
ATOM     16  C   UNL     1       1.760   8.699  18.662  0.00  0.00    +0.000 A 
ATOM     17  C   UNL     1       0.873   9.597  18.032  0.00  0.00    +0.000 A 
BRANCH  12  19
ATOM     18  C   UNL     1      -2.031  10.688  17.394  0.00  0.00    +0.000 C 
ATOM     19  O   UNL     1      -1.040  11.149  18.299  0.00  0.00    +0.000 OA
ENDBRANCH  12  19
ENDBRANCH  11  16
ENDBRANCH  10  11
ENDBRANCH   9  10
ENDBRANCH   1   9
BRANCH   3  20
ATOM     20  C   UNL     1       5.305   3.407  16.044  0.00  0.00    +0.000 C 
BRANCH  20  21
ATOM     21  C   UNL     1       6.324   4.421  15.525  0.00  0.00    +0.000 C 
BRANCH  21  22
ATOM     22  C   UNL     1       6.906   5.261  16.640  0.00  0.00    +0.000 A 
ATOM     23  C   UNL     1       6.974   6.656  16.528  0.00  0.00    +0.000 A 
ATOM     24  C   UNL     1       7.508   7.425  17.564  0.00  0.00    +0.000 A 
ATOM     25  C   UNL     1       7.988   6.807  18.717  0.00  0.00    +0.000 A 
ATOM     26  C   UNL     1       7.943   5.418  18.831  0.00  0.00    +0.000 A 
ATOM     27  C   UNL     1       7.409   4.649  17.796  0.00  0.00    +0.000 A 
ENDBRANCH  21  22
ENDBRANCH  20  21
ENDBRANCH   3  20
TORSDOF 10
ENDMDL
MODEL 2
REMARK VINA RESULT:      -7.0      1.069      1.816
REMARK  Name = 
REMARK  13 active torsions:
REMARK  status: ('A' for Active; 'I' for Inactive)
REMARK    1  A    between atoms: C_1  and  O_2
REMARK    2  A    between atoms: O_2  and  C_3
REMARK    3  A    between atoms: C_7  and  C_8
REMARK    4  A    between atoms: C_8  and  C_9
REMARK    5  A    between atoms: C_9  and  C_10
REMARK    6  A    between atoms: C_10  and  N_11
REMARK    7  A    between atoms: N_11  and  C_23
REMARK    8  A    between atoms: C_12  and  S_13
REMARK    9  A    between atoms: N_14  and  C_15
REMARK   10  A    between atoms: C_15  and  C_16
REMARK   11  A    between atoms: C_16  and  C_17
REMARK   12  A    between atoms: C_23  and  C_24
REMARK   13  A    between atoms: C_23  and  C_25
REMARK                            x       y       z     vdW  Elec       q    Type
REMARK                         _______ _______ _______ _____ _____    ______ ____
ROOT
ATOM      1  N   UNL     1       2.371   4.263  18.530  0.00  0.00    +0.000 N 
ATOM      2  C   UNL     1       3.401   3.545  17.898  0.00  0.00    +0.000 C 
ATOM      3  N   UNL     1       4.150   4.124  17.009  0.00  0.00    +0.000 NA
ENDROOT
BRANCH   1   4
ATOM      4  C   UNL     1       1.399   3.784  19.541  0.00  0.00    +0.000 C 
ATOM      5  C   UNL     1       0.490   2.659  19.041  0.00  0.00    +0.000 C 
ATOM      6  C   UNL     1       2.027   3.511  20.906  0.00  0.00    +0.000 C 
ENDBRANCH   1   4
BRANCH   2   7
ATOM      7  S   UNL     1       3.685   1.831  18.260  0.00  0.00    +0.000 S 
ATOM      8  H   UNL     1       4.890   1.684  17.729  0.00  0.00    +0.000 HD
ENDBRANCH   2   7
BRANCH   1   9
ATOM      9  C   UNL     1       2.076   5.641  18.029  0.00  0.00    +0.000 C 
BRANCH   9  10
ATOM     10  C   UNL     1       2.662   6.738  18.938  0.00  0.00    +0.000 C 
BRANCH  10  11
ATOM     11  C   UNL     1       2.526   8.137  18.306  0.00  0.00    +0.000 C 
BRANCH  11  16
ATOM     12  C   UNL     1       0.011   9.683  20.766  0.00  0.00    +0.000 A 
ATOM     13  C   UNL     1      -0.723  10.506  19.903  0.00  0.00    +0.000 A 
ATOM     14  C   UNL     1      -0.405  10.571  18.549  0.00  0.00    +0.000 A 
ATOM     15  C   UNL     1       0.654   9.815  18.045  0.00  0.00    +0.000 A 
ATOM     16  C   UNL     1       1.406   8.981  18.887  0.00  0.00    +0.000 A 
ATOM     17  C   UNL     1       1.078   8.928  20.259  0.00  0.00    +0.000 A 
BRANCH  12  19
ATOM     18  C   UNL     1      -0.810  10.967  22.602  0.00  0.00    +0.000 C 
ATOM     19  O   UNL     1      -0.435   9.711  22.058  0.00  0.00    +0.000 OA
ENDBRANCH  12  19
ENDBRANCH  11  16
ENDBRANCH  10  11
ENDBRANCH   9  10
ENDBRANCH   1   9
BRANCH   3  20
ATOM     20  C   UNL     1       5.221   3.387  16.324  0.00  0.00    +0.000 C 
BRANCH  20  21
ATOM     21  C   UNL     1       6.207   4.382  15.712  0.00  0.00    +0.000 C 
BRANCH  21  22
ATOM     22  C   UNL     1       6.853   5.258  16.762  0.00  0.00    +0.000 A 
ATOM     23  C   UNL     1       6.902   6.650  16.606  0.00  0.00    +0.000 A 
ATOM     24  C   UNL     1       7.495   7.452  17.583  0.00  0.00    +0.000 A 
ATOM     25  C   UNL     1       8.053   6.871  18.720  0.00  0.00    +0.000 A 
ATOM     26  C   UNL     1       8.027   5.486  18.877  0.00  0.00    +0.000 A 
ATOM     27  C   UNL     1       7.435   4.683  17.901  0.00  0.00    +0.000 A 
ENDBRANCH  21  22
ENDBRANCH  20  21
ENDBRANCH   3  20
TORSDOF 10
ENDMDL
MODEL 3
REMARK VINA RESULT:      -7.0      3.587      5.441
REMARK  Name = 
REMARK  13 active torsions:
REMARK  status: ('A' for Active; 'I' for Inactive)
REMARK    1  A    between atoms: C_1  and  O_2
REMARK    2  A    between atoms: O_2  and  C_3
REMARK    3  A    between atoms: C_7  and  C_8
REMARK    4  A    between atoms: C_8  and  C_9
REMARK    5  A    between atoms: C_9  and  C_10
REMARK    6  A    between atoms: C_10  and  N_11
REMARK    7  A    between atoms: N_11  and  C_23
REMARK    8  A    between atoms: C_12  and  S_13
REMARK    9  A    between atoms: N_14  and  C_15
REMARK   10  A    between atoms: C_15  and  C_16
REMARK   11  A    between atoms: C_16  and  C_17
REMARK   12  A    between atoms: C_23  and  C_24
REMARK   13  A    between atoms: C_23  and  C_25
REMARK                            x       y       z     vdW  Elec       q    Type
REMARK                         _______ _______ _______ _____ _____    ______ ____
ROOT
ATOM      1  N   UNL     1       5.829   5.713  17.610  0.00  0.00    +0.000 N 
ATOM      2  C   UNL     1       6.974   6.359  18.107  0.00  0.00    +0.000 C 
ATOM      3  N   UNL     1       7.173   7.618  17.860  0.00  0.00    +0.000 NA
ENDROOT
BRANCH   1   4
ATOM      4  C   UNL     1       5.435   4.292  17.756  0.00  0.00    +0.000 C 
ATOM      5  C   UNL     1       4.915   3.934  19.150  0.00  0.00    +0.000 C 
ATOM      6  C   UNL     1       4.551   3.787  16.617  0.00  0.00    +0.000 C 
ENDBRANCH   1   4
BRANCH   2   7
ATOM      7  S   UNL     1       8.196   5.476  19.045  0.00  0.00    +0.000 S 
ATOM      8  H   UNL     1       7.449   5.062  20.057  0.00  0.00    +0.000 HD
ENDBRANCH   2   7
BRANCH   1   9
ATOM      9  C   UNL     1       4.953   6.479  16.670  0.00  0.00    +0.000 C 
BRANCH   9  10
ATOM     10  C   UNL     1       4.071   7.514  17.395  0.00  0.00    +0.000 C 
BRANCH  10  11
ATOM     11  C   UNL     1       2.583   7.114  17.369  0.00  0.00    +0.000 C 
BRANCH  11  16
ATOM     12  C   UNL     1       1.271   3.974  19.154  0.00  0.00    +0.000 A 
ATOM     13  C   UNL     1       1.375   4.374  20.492  0.00  0.00    +0.000 A 
ATOM     14  C   UNL     1       1.871   5.634  20.815  0.00  0.00    +0.000 A 
ATOM     15  C   UNL     1       2.272   6.507  19.803  0.00  0.00    +0.000 A 
ATOM     16  C   UNL     1       2.179   6.131  18.453  0.00  0.00    +0.000 A 
ATOM     17  C   UNL     1       1.680   4.849  18.138  0.00  0.00    +0.000 A 
BRANCH  12  19
ATOM     18  C   UNL     1       1.645   1.655  18.733  0.00  0.00    +0.000 C 
ATOM     19  O   UNL     1       0.747   2.721  18.998  0.00  0.00    +0.000 OA
ENDBRANCH  12  19
ENDBRANCH  11  16
ENDBRANCH  10  11
ENDBRANCH   9  10
ENDBRANCH   1   9
BRANCH   3  20
ATOM     20  C   UNL     1       8.372   8.308  18.354  0.00  0.00    +0.000 C 
BRANCH  20  21
ATOM     21  C   UNL     1       8.402   9.732  17.797  0.00  0.00    +0.000 C 
BRANCH  21  22
ATOM     22  C   UNL     1       9.398  10.605  18.525  0.00  0.00    +0.000 A 
ATOM     23  C   UNL     1      10.359  11.342  17.819  0.00  0.00    +0.000 A 
ATOM     24  C   UNL     1      11.272  12.149  18.499  0.00  0.00    +0.000 A 
ATOM     25  C   UNL     1      11.241  12.222  19.891  0.00  0.00    +0.000 A 
ATOM     26  C   UNL     1      10.302  11.478  20.604  0.00  0.00    +0.000 A 
ATOM     27  C   UNL     1       9.389  10.670  19.925  0.00  0.00    +0.000 A 
ENDBRANCH  21  22
ENDBRANCH  20  21
ENDBRANCH   3  20
TORSDOF 10
ENDMDL
MODEL 4
REMARK VINA RESULT:      -7.0      1.230      2.123
REMARK  Name = 
REMARK  13 active torsions:
REMARK  status: ('A' for Active; 'I' for Inactive)
REMARK    1  A    between atoms: C_1  and  O_2
REMARK    2  A    between atoms: O_2  and  C_3
REMARK    3  A    between atoms: C_7  and  C_8
REMARK    4  A    between atoms: C_8  and  C_9
REMARK    5  A    between atoms: C_9  and  C_10
REMARK    6  A    between atoms: C_10  and  N_11
REMARK    7  A    between atoms: N_11  and  C_23
REMARK    8  A    between atoms: C_12  and  S_13
REMARK    9  A    between atoms: N_14  and  C_15
REMARK   10  A    between atoms: C_15  and  C_16
REMARK   11  A    between atoms: C_16  and  C_17
REMARK   12  A    between atoms: C_23  and  C_24
REMARK   13  A    between atoms: C_23  and  C_25
REMARK                            x       y       z     vdW  Elec       q    Type
REMARK                         _______ _______ _______ _____ _____    ______ ____
ROOT
ATOM      1  N   UNL     1       2.883   4.341  19.430  0.00  0.00    +0.000 N 
ATOM      2  C   UNL     1       3.571   3.671  18.405  0.00  0.00    +0.000 C 
ATOM      3  N   UNL     1       4.382   4.323  17.628  0.00  0.00    +0.000 NA
ENDROOT
BRANCH   1   4
ATOM      4  C   UNL     1       1.904   3.790  20.398  0.00  0.00    +0.000 C 
ATOM      5  C   UNL     1       0.694   3.122  19.741  0.00  0.00    +0.000 C 
ATOM      6  C   UNL     1       2.547   2.955  21.503  0.00  0.00    +0.000 C 
ENDBRANCH   1   4
BRANCH   2   7
ATOM      7  S   UNL     1       3.330   1.937  18.113  0.00  0.00    +0.000 S 
ATOM      8  H   UNL     1       4.569   1.583  17.810  0.00  0.00    +0.000 HD
ENDBRANCH   2   7
BRANCH   1   9
ATOM      9  C   UNL     1       2.995   5.832  19.484  0.00  0.00    +0.000 C 
BRANCH   9  10
ATOM     10  C   UNL     1       2.274   6.521  18.310  0.00  0.00    +0.000 C 
BRANCH  10  11
ATOM     11  C   UNL     1       2.548   8.038  18.284  0.00  0.00    +0.000 C 
BRANCH  11  16
ATOM     12  C   UNL     1       0.081   9.582  20.794  0.00  0.00    +0.000 A 
ATOM     13  C   UNL     1      -0.662  10.415  19.947  0.00  0.00    +0.000 A 
ATOM     14  C   UNL     1      -0.365  10.487  18.589  0.00  0.00    +0.000 A 
ATOM     15  C   UNL     1       0.681   9.728  18.063  0.00  0.00    +0.000 A 
ATOM     16  C   UNL     1       1.442   8.885  18.888  0.00  0.00    +0.000 A 
ATOM     17  C   UNL     1       1.135   8.824  20.264  0.00  0.00    +0.000 A 
BRANCH  12  19
ATOM     18  C   UNL     1      -0.671  10.862  22.661  0.00  0.00    +0.000 C 
ATOM     19  O   UNL     1      -0.345   9.604  22.093  0.00  0.00    +0.000 OA
ENDBRANCH  12  19
ENDBRANCH  11  16
ENDBRANCH  10  11
ENDBRANCH   9  10
ENDBRANCH   1   9
BRANCH   3  20
ATOM     20  C   UNL     1       5.098   3.646  16.538  0.00  0.00    +0.000 C 
BRANCH  20  21
ATOM     21  C   UNL     1       6.061   4.632  15.877  0.00  0.00    +0.000 C 
BRANCH  21  22
ATOM     22  C   UNL     1       6.806   5.465  16.894  0.00  0.00    +0.000 A 
ATOM     23  C   UNL     1       7.378   4.872  18.028  0.00  0.00    +0.000 A 
ATOM     24  C   UNL     1       8.069   5.648  18.961  0.00  0.00    +0.000 A 
ATOM     25  C   UNL     1       8.188   7.024  18.775  0.00  0.00    +0.000 A 
ATOM     26  C   UNL     1       7.607   7.628  17.660  0.00  0.00    +0.000 A 
ATOM     27  C   UNL     1       6.915   6.852  16.727  0.00  0.00    +0.000 A 
ENDBRANCH  21  22
ENDBRANCH  20  21
ENDBRANCH   3  20
TORSDOF 10
ENDMDL
MODEL 5
REMARK VINA RESULT:      -6.9      1.104      1.857
REMARK  Name = 
REMARK  13 active torsions:
REMARK  status: ('A' for Active; 'I' for Inactive)
REMARK    1  A    between atoms: C_1  and  O_2
REMARK    2  A    between atoms: O_2  and  C_3
REMARK    3  A    between atoms: C_7  and  C_8
REMARK    4  A    between atoms: C_8  and  C_9
REMARK    5  A    between atoms: C_9  and  C_10
REMARK    6  A    between atoms: C_10  and  N_11
REMARK    7  A    between atoms: N_11  and  C_23
REMARK    8  A    between atoms: C_12  and  S_13
REMARK    9  A    between atoms: N_14  and  C_15
REMARK   10  A    between atoms: C_15  and  C_16
REMARK   11  A    between atoms: C_16  and  C_17
REMARK   12  A    between atoms: C_23  and  C_24
REMARK   13  A    between atoms: C_23  and  C_25
REMARK                            x       y       z     vdW  Elec       q    Type
REMARK                         _______ _______ _______ _____ _____    ______ ____
ROOT
ATOM      1  N   UNL     1       2.516   4.624  18.721  0.00  0.00    +0.000 N 
ATOM      2  C   UNL     1       3.524   3.812  18.175  0.00  0.00    +0.000 C 
ATOM      3  N   UNL     1       4.205   4.219  17.147  0.00  0.00    +0.000 NA
ENDROOT
BRANCH   1   4
ATOM      4  C   UNL     1       1.616   4.336  19.864  0.00  0.00    +0.000 C 
ATOM      5  C   UNL     1       0.762   3.080  19.677  0.00  0.00    +0.000 C 
ATOM      6  C   UNL     1       2.314   4.415  21.220  0.00  0.00    +0.000 C 
ENDBRANCH   1   4
BRANCH   2   7
ATOM      7  S   UNL     1       3.870   2.202  18.838  0.00  0.00    +0.000 S 
ATOM      8  H   UNL     1       2.635   1.758  19.011  0.00  0.00    +0.000 HD
ENDBRANCH   2   7
BRANCH   1   9
ATOM      9  C   UNL     1       2.158   5.877  17.986  0.00  0.00    +0.000 C 
BRANCH   9  10
ATOM     10  C   UNL     1       2.794   7.132  18.614  0.00  0.00    +0.000 C 
BRANCH  10  11
ATOM     11  C   UNL     1       1.961   8.397  18.328  0.00  0.00    +0.000 C 
BRANCH  11  16
ATOM     12  C   UNL     1       0.102  10.823  20.658  0.00  0.00    +0.000 A 
ATOM     13  C   UNL     1       0.163  10.119  21.867  0.00  0.00    +0.000 A 
ATOM     14  C   UNL     1       0.785   8.874  21.928  0.00  0.00    +0.000 A 
ATOM     15  C   UNL     1       1.349   8.320  20.779  0.00  0.00    +0.000 A 
ATOM     16  C   UNL     1       1.302   9.004  19.554  0.00  0.00    +0.000 A 
ATOM     17  C   UNL     1       0.665  10.262  19.503  0.00  0.00    +0.000 A 
BRANCH  12  19
ATOM     18  C   UNL     1      -0.010  12.961  21.711  0.00  0.00    +0.000 C 
ATOM     19  O   UNL     1      -0.520  12.036  20.763  0.00  0.00    +0.000 OA
ENDBRANCH  12  19
ENDBRANCH  11  16
ENDBRANCH  10  11
ENDBRANCH   9  10
ENDBRANCH   1   9
BRANCH   3  20
ATOM     20  C   UNL     1       5.251   3.378  16.549  0.00  0.00    +0.000 C 
BRANCH  20  21
ATOM     21  C   UNL     1       6.306   4.271  15.896  0.00  0.00    +0.000 C 
BRANCH  21  22
ATOM     22  C   UNL     1       6.931   5.227  16.886  0.00  0.00    +0.000 A 
ATOM     23  C   UNL     1       7.451   4.763  18.102  0.00  0.00    +0.000 A 
ATOM     24  C   UNL     1       8.031   5.651  19.010  0.00  0.00    +0.000 A 
ATOM     25  C   UNL     1       8.090   7.012  18.715  0.00  0.00    +0.000 A 
ATOM     26  C   UNL     1       7.558   7.488  17.517  0.00  0.00    +0.000 A 
ATOM     27  C   UNL     1       6.978   6.600  16.610  0.00  0.00    +0.000 A 
ENDBRANCH  21  22
ENDBRANCH  20  21
ENDBRANCH   3  20
TORSDOF 10
ENDMDL
MODEL 6
REMARK VINA RESULT:      -6.9      0.899      1.163
REMARK  Name = 
REMARK  13 active torsions:
REMARK  status: ('A' for Active; 'I' for Inactive)
REMARK    1  A    between atoms: C_1  and  O_2
REMARK    2  A    between atoms: O_2  and  C_3
REMARK    3  A    between atoms: C_7  and  C_8
REMARK    4  A    between atoms: C_8  and  C_9
REMARK    5  A    between atoms: C_9  and  C_10
REMARK    6  A    between atoms: C_10  and  N_11
REMARK    7  A    between atoms: N_11  and  C_23
REMARK    8  A    between atoms: C_12  and  S_13
REMARK    9  A    between atoms: N_14  and  C_15
REMARK   10  A    between atoms: C_15  and  C_16
REMARK   11  A    between atoms: C_16  and  C_17
REMARK   12  A    between atoms: C_23  and  C_24
REMARK   13  A    between atoms: C_23  and  C_25
REMARK                            x       y       z     vdW  Elec       q    Type
REMARK                         _______ _______ _______ _____ _____    ______ ____
ROOT
ATOM      1  N   UNL     1       2.430   4.646  18.703  0.00  0.00    +0.000 N 
ATOM      2  C   UNL     1       3.426   3.857  18.103  0.00  0.00    +0.000 C 
ATOM      3  N   UNL     1       4.074   4.299  17.068  0.00  0.00    +0.000 NA
ENDROOT
BRANCH   1   4
ATOM      4  C   UNL     1       1.567   4.318  19.863  0.00  0.00    +0.000 C 
ATOM      5  C   UNL     1       0.751   3.036  19.683  0.00  0.00    +0.000 C 
ATOM      6  C   UNL     1       2.293   4.406  21.204  0.00  0.00    +0.000 C 
ENDBRANCH   1   4
BRANCH   2   7
ATOM      7  S   UNL     1       3.802   2.231  18.707  0.00  0.00    +0.000 S 
ATOM      8  H   UNL     1       3.533   1.518  17.624  0.00  0.00    +0.000 HD
ENDBRANCH   2   7
BRANCH   1   9
ATOM      9  C   UNL     1       2.044   5.917  18.016  0.00  0.00    +0.000 C 
BRANCH   9  10
ATOM     10  C   UNL     1       2.724   7.153  18.635  0.00  0.00    +0.000 C 
BRANCH  10  11
ATOM     11  C   UNL     1       2.172   8.465  18.044  0.00  0.00    +0.000 C 
BRANCH  11  16
ATOM     12  C   UNL     1      -0.493  10.922  19.322  0.00  0.00    +0.000 A 
ATOM     13  C   UNL     1      -0.521  10.588  20.682  0.00  0.00    +0.000 A 
ATOM     14  C   UNL     1       0.298   9.578  21.178  0.00  0.00    +0.000 A 
ATOM     15  C   UNL     1       1.153   8.888  20.318  0.00  0.00    +0.000 A 
ATOM     16  C   UNL     1       1.202   9.202  18.950  0.00  0.00    +0.000 A 
ATOM     17  C   UNL     1       0.363  10.224  18.458  0.00  0.00    +0.000 A 
BRANCH  12  19
ATOM     18  C   UNL     1      -1.515  12.987  19.941  0.00  0.00    +0.000 C 
ATOM     19  O   UNL     1      -1.337  11.946  18.993  0.00  0.00    +0.000 OA
ENDBRANCH  12  19
ENDBRANCH  11  16
ENDBRANCH  10  11
ENDBRANCH   9  10
ENDBRANCH   1   9
BRANCH   3  20
ATOM     20  C   UNL     1       5.107   3.483  16.414  0.00  0.00    +0.000 C 
BRANCH  20  21
ATOM     21  C   UNL     1       6.152   4.403  15.781  0.00  0.00    +0.000 C 
BRANCH  21  22
ATOM     22  C   UNL     1       6.823   5.288  16.807  0.00  0.00    +0.000 A 
ATOM     23  C   UNL     1       6.941   6.669  16.597  0.00  0.00    +0.000 A 
ATOM     24  C   UNL     1       7.558   7.480  17.551  0.00  0.00    +0.000 A 
ATOM     25  C   UNL     1       8.071   6.919  18.720  0.00  0.00    +0.000 A 
ATOM     26  C   UNL     1       7.976   5.544  18.930  0.00  0.00    +0.000 A 
ATOM     27  C   UNL     1       7.360   4.732  17.976  0.00  0.00    +0.000 A 
ENDBRANCH  21  22
ENDBRANCH  20  21
ENDBRANCH   3  20
TORSDOF 10
ENDMDL
MODEL 7
REMARK VINA RESULT:      -6.9      3.932      7.544
REMARK  Name = 
REMARK  13 active torsions:
REMARK  status: ('A' for Active; 'I' for Inactive)
REMARK    1  A    between atoms: C_1  and  O_2
REMARK    2  A    between atoms: O_2  and  C_3
REMARK    3  A    between atoms: C_7  and  C_8
REMARK    4  A    between atoms: C_8  and  C_9
REMARK    5  A    between atoms: C_9  and  C_10
REMARK    6  A    between atoms: C_10  and  N_11
REMARK    7  A    between atoms: N_11  and  C_23
REMARK    8  A    between atoms: C_12  and  S_13
REMARK    9  A    between atoms: N_14  and  C_15
REMARK   10  A    between atoms: C_15  and  C_16
REMARK   11  A    between atoms: C_16  and  C_17
REMARK   12  A    between atoms: C_23  and  C_24
REMARK   13  A    between atoms: C_23  and  C_25
REMARK                            x       y       z     vdW  Elec       q    Type
REMARK                         _______ _______ _______ _____ _____    ______ ____
ROOT
ATOM      1  N   UNL     1       6.056   6.423  17.163  0.00  0.00    +0.000 N 
ATOM      2  C   UNL     1       4.730   6.009  17.374  0.00  0.00    +0.000 C 
ATOM      3  N   UNL     1       3.843   6.853  17.805  0.00  0.00    +0.000 NA
ENDROOT
BRANCH   1   4
ATOM      4  C   UNL     1       7.213   5.617  16.705  0.00  0.00    +0.000 C 
ATOM      5  C   UNL     1       7.697   4.591  17.731  0.00  0.00    +0.000 C 
ATOM      6  C   UNL     1       7.039   5.050  15.297  0.00  0.00    +0.000 C 
ENDBRANCH   1   4
BRANCH   2   7
ATOM      7  S   UNL     1       4.236   4.326  17.099  0.00  0.00    +0.000 S 
ATOM      8  H   UNL     1       4.110   4.339  15.780  0.00  0.00    +0.000 HD
ENDBRANCH   2   7
BRANCH   1   9
ATOM      9  C   UNL     1       6.431   7.803  17.602  0.00  0.00    +0.000 C 
BRANCH   9  10
ATOM     10  C   UNL     1       7.931   8.097  17.409  0.00  0.00    +0.000 C 
BRANCH  10  11
ATOM     11  C   UNL     1       8.566   8.681  18.686  0.00  0.00    +0.000 C 
BRANCH  11  16
ATOM     12  C   UNL     1      10.212  12.092  19.341  0.00  0.00    +0.000 A 
ATOM     13  C   UNL     1       9.521  12.892  18.422  0.00  0.00    +0.000 A 
ATOM     14  C   UNL     1       8.547  12.339  17.595  0.00  0.00    +0.000 A 
ATOM     15  C   UNL     1       8.255  10.977  17.677  0.00  0.00    +0.000 A 
ATOM     16  C   UNL     1       8.932  10.151  18.588  0.00  0.00    +0.000 A 
ATOM     17  C   UNL     1       9.921  10.723  19.417  0.00  0.00    +0.000 A 
BRANCH  12  19
ATOM     18  C   UNL     1      10.682  13.975  20.728  0.00  0.00    +0.000 C 
ATOM     19  O   UNL     1      11.119  12.783  20.094  0.00  0.00    +0.000 OA
ENDBRANCH  12  19
ENDBRANCH  11  16
ENDBRANCH  10  11
ENDBRANCH   9  10
ENDBRANCH   1   9
BRANCH   3  20
ATOM     20  C   UNL     1       2.455   6.437  18.049  0.00  0.00    +0.000 C 
BRANCH  20  21
ATOM     21  C   UNL     1       2.195   6.402  19.555  0.00  0.00    +0.000 C 
BRANCH  21  22
ATOM     22  C   UNL     1       1.923   5.000  20.051  0.00  0.00    +0.000 A 
ATOM     23  C   UNL     1       2.367   4.587  21.315  0.00  0.00    +0.000 A 
ATOM     24  C   UNL     1       2.108   3.292  21.767  0.00  0.00    +0.000 A 
ATOM     25  C   UNL     1       1.411   2.395  20.960  0.00  0.00    +0.000 A 
ATOM     26  C   UNL     1       0.982   2.789  19.693  0.00  0.00    +0.000 A 
ATOM     27  C   UNL     1       1.241   4.084  19.240  0.00  0.00    +0.000 A 
ENDBRANCH  21  22
ENDBRANCH  20  21
ENDBRANCH   3  20
TORSDOF 10
ENDMDL
MODEL 8
REMARK VINA RESULT:      -6.8      1.586      2.728
REMARK  Name = 
REMARK  13 active torsions:
REMARK  status: ('A' for Active; 'I' for Inactive)
REMARK    1  A    between atoms: C_1  and  O_2
REMARK    2  A    between atoms: O_2  and  C_3
REMARK    3  A    between atoms: C_7  and  C_8
REMARK    4  A    between atoms: C_8  and  C_9
REMARK    5  A    between atoms: C_9  and  C_10
REMARK    6  A    between atoms: C_10  and  N_11
REMARK    7  A    between atoms: N_11  and  C_23
REMARK    8  A    between atoms: C_12  and  S_13
REMARK    9  A    between atoms: N_14  and  C_15
REMARK   10  A    between atoms: C_15  and  C_16
REMARK   11  A    between atoms: C_16  and  C_17
REMARK   12  A    between atoms: C_23  and  C_24
REMARK   13  A    between atoms: C_23  and  C_25
REMARK                            x       y       z     vdW  Elec       q    Type
REMARK                         _______ _______ _______ _____ _____    ______ ____
ROOT
ATOM      1  N   UNL     1       3.056   4.908  19.509  0.00  0.00    +0.000 N 
ATOM      2  C   UNL     1       4.432   4.639  19.420  0.00  0.00    +0.000 C 
ATOM      3  N   UNL     1       5.294   5.604  19.525  0.00  0.00    +0.000 NA
ENDROOT
BRANCH   1   4
ATOM      4  C   UNL     1       1.921   3.961  19.391  0.00  0.00    +0.000 C 
ATOM      5  C   UNL     1       0.798   4.213  20.400  0.00  0.00    +0.000 C 
ATOM      6  C   UNL     1       1.432   3.775  17.956  0.00  0.00    +0.000 C 
ENDBRANCH   1   4
BRANCH   2   7
ATOM      7  S   UNL     1       5.032   2.994  19.126  0.00  0.00    +0.000 S 
ATOM      8  H   UNL     1       6.334   3.203  19.244  0.00  0.00    +0.000 HD
ENDBRANCH   2   7
BRANCH   1   9
ATOM      9  C   UNL     1       2.630   6.341  19.564  0.00  0.00    +0.000 C 
BRANCH   9  10
ATOM     10  C   UNL     1       2.328   6.921  18.169  0.00  0.00    +0.000 C 
BRANCH  10  11
ATOM     11  C   UNL     1       2.548   8.446  18.126  0.00  0.00    +0.000 C 
BRANCH  11  16
ATOM     12  C   UNL     1       0.428  10.353  20.703  0.00  0.00    +0.000 A 
ATOM     13  C   UNL     1      -0.682  10.696  19.921  0.00  0.00    +0.000 A 
ATOM     14  C   UNL     1      -0.743  10.328  18.580  0.00  0.00    +0.000 A 
ATOM     15  C   UNL     1       0.310   9.614  18.005  0.00  0.00    +0.000 A 
ATOM     16  C   UNL     1       1.436   9.258  18.765  0.00  0.00    +0.000 A 
ATOM     17  C   UNL     1       1.487   9.642  20.122  0.00  0.00    +0.000 A 
BRANCH  12  19
ATOM     18  C   UNL     1      -0.560  10.063  22.855  0.00  0.00    +0.000 C 
ATOM     19  O   UNL     1       0.330  10.766  22.002  0.00  0.00    +0.000 OA
ENDBRANCH  12  19
ENDBRANCH  11  16
ENDBRANCH  10  11
ENDBRANCH   9  10
ENDBRANCH   1   9
BRANCH   3  20
ATOM     20  C   UNL     1       6.737   5.347  19.417  0.00  0.00    +0.000 C 
BRANCH  20  21
ATOM     21  C   UNL     1       7.302   6.127  18.230  0.00  0.00    +0.000 C 
BRANCH  21  22
ATOM     22  C   UNL     1       6.711   5.666  16.917  0.00  0.00    +0.000 A 
ATOM     23  C   UNL     1       5.734   6.428  16.262  0.00  0.00    +0.000 A 
ATOM     24  C   UNL     1       5.197   5.998  15.047  0.00  0.00    +0.000 A 
ATOM     25  C   UNL     1       5.624   4.799  14.479  0.00  0.00    +0.000 A 
ATOM     26  C   UNL     1       6.581   4.023  15.131  0.00  0.00    +0.000 A 
ATOM     27  C   UNL     1       7.118   4.452  16.346  0.00  0.00    +0.000 A 
ENDBRANCH  21  22
ENDBRANCH  20  21
ENDBRANCH   3  20
TORSDOF 10
ENDMDL
MODEL 9
REMARK VINA RESULT:      -6.8      3.123      6.854
REMARK  Name = 
REMARK  13 active torsions:
REMARK  status: ('A' for Active; 'I' for Inactive)
REMARK    1  A    between atoms: C_1  and  O_2
REMARK    2  A    between atoms: O_2  and  C_3
REMARK    3  A    between atoms: C_7  and  C_8
REMARK    4  A    between atoms: C_8  and  C_9
REMARK    5  A    between atoms: C_9  and  C_10
REMARK    6  A    between atoms: C_10  and  N_11
REMARK    7  A    between atoms: N_11  and  C_23
REMARK    8  A    between atoms: C_12  and  S_13
REMARK    9  A    between atoms: N_14  and  C_15
REMARK   10  A    between atoms: C_15  and  C_16
REMARK   11  A    between atoms: C_16  and  C_17
REMARK   12  A    between atoms: C_23  and  C_24
REMARK   13  A    between atoms: C_23  and  C_25
REMARK                            x       y       z     vdW  Elec       q    Type
REMARK                         _______ _______ _______ _____ _____    ______ ____
ROOT
ATOM      1  N   UNL     1       1.600   9.049  19.062  0.00  0.00    +0.000 N 
ATOM      2  C   UNL     1       1.565   8.122  20.117  0.00  0.00    +0.000 C 
ATOM      3  N   UNL     1       1.921   6.889  19.915  0.00  0.00    +0.000 NA
ENDROOT
BRANCH   1   4
ATOM      4  C   UNL     1       1.215  10.481  19.078  0.00  0.00    +0.000 C 
ATOM      5  C   UNL     1       2.143  11.380  18.260  0.00  0.00    +0.000 C 
ATOM      6  C   UNL     1      -0.270  10.713  18.806  0.00  0.00    +0.000 C 
ENDBRANCH   1   4
BRANCH   2   7
ATOM      7  S   UNL     1       1.002   8.587  21.734  0.00  0.00    +0.000 S 
ATOM      8  H   UNL     1       0.102   9.502  21.407  0.00  0.00    +0.000 HD
ENDBRANCH   2   7
BRANCH   1   9
ATOM      9  C   UNL     1       1.902   8.532  17.691  0.00  0.00    +0.000 C 
BRANCH   9  10
ATOM     10  C   UNL     1       3.307   7.910  17.590  0.00  0.00    +0.000 C 
BRANCH  10  11
ATOM     11  C   UNL     1       3.243   6.391  17.335  0.00  0.00    +0.000 C 
BRANCH  11  16
ATOM     12  C   UNL     1       6.937   5.447  17.816  0.00  0.00    +0.000 A 
ATOM     13  C   UNL     1       7.105   4.524  16.777  0.00  0.00    +0.000 A 
ATOM     14  C   UNL     1       6.041   4.201  15.939  0.00  0.00    +0.000 A 
ATOM     15  C   UNL     1       4.795   4.797  16.135  0.00  0.00    +0.000 A 
ATOM     16  C   UNL     1       4.598   5.726  17.170  0.00  0.00    +0.000 A 
ATOM     17  C   UNL     1       5.683   6.041  18.015  0.00  0.00    +0.000 A 
BRANCH  12  19
ATOM     18  C   UNL     1       8.006   5.552  19.947  0.00  0.00    +0.000 C 
ATOM     19  O   UNL     1       8.078   5.674  18.535  0.00  0.00    +0.000 OA
ENDBRANCH  12  19
ENDBRANCH  11  16
ENDBRANCH  10  11
ENDBRANCH   9  10
ENDBRANCH   1   9
BRANCH   3  20
ATOM     20  C   UNL     1       1.874   5.899  20.999  0.00  0.00    +0.000 C 
BRANCH  20  21
ATOM     21  C   UNL     1       1.131   4.653  20.515  0.00  0.00    +0.000 C 
BRANCH  21  22
ATOM     22  C   UNL     1       2.010   3.765  19.664  0.00  0.00    +0.000 A 
ATOM     23  C   UNL     1       1.538   3.234  18.455  0.00  0.00    +0.000 A 
ATOM     24  C   UNL     1       2.357   2.418  17.672  0.00  0.00    +0.000 A 
ATOM     25  C   UNL     1       3.651   2.117  18.094  0.00  0.00    +0.000 A 
ATOM     26  C   UNL     1       4.124   2.623  19.303  0.00  0.00    +0.000 A 
ATOM     27  C   UNL     1       3.305   3.439  20.087  0.00  0.00    +0.000 A 
ENDBRANCH  21  22
ENDBRANCH  20  21
ENDBRANCH   3  20
TORSDOF 10
ENDMDL
