MODEL 1
REMARK VINA RESULT:      -8.0      0.000      0.000
REMARK  Name = 
REMARK  7 active torsions:
REMARK  status: ('A' for Active; 'I' for Inactive)
REMARK    1  A    between atoms: C_1  and  C_2
REMARK    2  A    between atoms: C_2  and  O_3
REMARK    3  A    between atoms: O_3  and  C_4
REMARK    4  A    between atoms: C_10  and  C_11
REMARK    5  A    between atoms: C_16  and  C_17
REMARK    6  A    between atoms: C_18  and  C_19
REMARK    7  A    between atoms: C_19  and  C_20
REMARK                            x       y       z     vdW  Elec       q    Type
REMARK                         _______ _______ _______ _____ _____    ______ ____
ROOT
ATOM      1  C   UNL     1       2.087   5.619  20.156  0.00  0.00    +0.000 A 
ATOM      2  N   UNL     1       1.693   6.546  21.025  0.00  0.00    +0.000 NA
ATOM      3  N   UNL     1       1.701   7.706  20.314  0.00  0.00    +0.000 N 
ATOM      4  C   UNL     1       1.068   8.885  20.846  0.00  0.00    +0.000 A 
ATOM      5  C   UNL     1       0.596   8.882  22.154  0.00  0.00    +0.000 A 
ATOM      6  C   UNL     1      -0.146   9.982  22.600  0.00  0.00    +0.000 A 
ATOM      7  C   UNL     1      -0.425  11.060  21.748  0.00  0.00    +0.000 A 
ATOM      8  C   UNL     1       0.153  10.983  20.483  0.00  0.00    +0.000 A 
ATOM      9  N   UNL     1       0.878   9.938  20.019  0.00  0.00    +0.000 NA
ATOM     10  C   UNL     1       2.300   7.527  19.076  0.00  0.00    +0.000 A 
ATOM     11  C   UNL     1       2.614   8.607  18.100  0.00  0.00    +0.000 C 
ATOM     12  C   UNL     1       2.525   6.159  18.926  0.00  0.00    +0.000 A 
ENDROOT
BRANCH   7  13
ATOM     13  C   UNL     1      -1.274  12.229  22.163  0.00  0.00    +0.000 C 
ATOM     14  C   UNL     1      -2.712  12.323  21.696  0.00  0.00    +0.000 C 
ATOM     15  C   UNL     1      -2.417  12.011  23.130  0.00  0.00    +0.000 C 
ENDBRANCH   7  13
BRANCH   1  16
ATOM     16  O   UNL     1       2.090   4.316  20.545  0.00  0.00    +0.000 OA
BRANCH  16  18
ATOM     17  C   UNL     1       0.968   2.721  19.091  0.00  0.00    +0.000 C 
ATOM     18  C   UNL     1       0.841   3.663  20.277  0.00  0.00    +0.000 C 
ENDBRANCH  16  18
ENDBRANCH   1  16
BRANCH  12  19
ATOM     19  C   UNL     1       3.153   5.497  17.744  0.00  0.00    +0.000 C 
BRANCH  19  20
ATOM     20  C   UNL     1       4.657   5.631  17.834  0.00  0.00    +0.000 A 
ATOM     21  C   UNL     1       5.387   6.251  16.801  0.00  0.00    +0.000 A 
ATOM     22  C   UNL     1       6.761   6.488  16.931  0.00  0.00    +0.000 A 
ATOM     23  C   UNL     1       7.427   6.106  18.091  0.00  0.00    +0.000 A 
ATOM     24  C   UNL     1       6.720   5.480  19.124  0.00  0.00    +0.000 A 
ATOM     25  C   UNL     1       5.352   5.250  18.991  0.00  0.00    +0.000 A 
ENDBRANCH  19  20
ENDBRANCH  12  19
TORSDOF 5
ENDMDL
MODEL 2
REMARK VINA RESULT:      -7.9      0.344      1.017
REMARK  Name = 
REMARK  7 active torsions:
REMARK  status: ('A' for Active; 'I' for Inactive)
REMARK    1  A    between atoms: C_1  and  C_2
REMARK    2  A    between atoms: C_2  and  O_3
REMARK    3  A    between atoms: O_3  and  C_4
REMARK    4  A    between atoms: C_10  and  C_11
REMARK    5  A    between atoms: C_16  and  C_17
REMARK    6  A    between atoms: C_18  and  C_19
REMARK    7  A    between atoms: C_19  and  C_20
REMARK                            x       y       z     vdW  Elec       q    Type
REMARK                         _______ _______ _______ _____ _____    ______ ____
ROOT
ATOM      1  C   UNL     1       1.991   5.923  20.253  0.00  0.00    +0.000 A 
ATOM      2  N   UNL     1       1.546   6.833  21.115  0.00  0.00    +0.000 NA
ATOM      3  N   UNL     1       1.530   7.995  20.408  0.00  0.00    +0.000 N 
ATOM      4  C   UNL     1       0.846   9.150  20.929  0.00  0.00    +0.000 A 
ATOM      5  C   UNL     1       0.346   9.126  22.227  0.00  0.00    +0.000 A 
ATOM      6  C   UNL     1      -0.443  10.200  22.659  0.00  0.00    +0.000 A 
ATOM      7  C   UNL     1      -0.739  11.269  21.805  0.00  0.00    +0.000 A 
ATOM      8  C   UNL     1      -0.132  11.217  20.553  0.00  0.00    +0.000 A 
ATOM      9  N   UNL     1       0.638  10.199  20.101  0.00  0.00    +0.000 NA
ATOM     10  C   UNL     1       2.162   7.841  19.183  0.00  0.00    +0.000 A 
ATOM     11  C   UNL     1       2.460   8.934  18.217  0.00  0.00    +0.000 C 
ATOM     12  C   UNL     1       2.436   6.482  19.034  0.00  0.00    +0.000 A 
ENDROOT
BRANCH   7  13
ATOM     13  C   UNL     1      -1.637  12.408  22.205  0.00  0.00    +0.000 C 
ATOM     14  C   UNL     1      -3.098  12.395  21.804  0.00  0.00    +0.000 C 
ATOM     15  C   UNL     1      -2.718  12.174  23.236  0.00  0.00    +0.000 C 
ENDBRANCH   7  13
BRANCH   1  16
ATOM     16  O   UNL     1       2.030   4.619  20.638  0.00  0.00    +0.000 OA
BRANCH  16  18
ATOM     17  C   UNL     1       1.169   2.872  19.183  0.00  0.00    +0.000 C 
ATOM     18  C   UNL     1       0.849   3.901  20.254  0.00  0.00    +0.000 C 
ENDBRANCH  16  18
ENDBRANCH   1  16
BRANCH  12  19
ATOM     19  C   UNL     1       3.112   5.846  17.864  0.00  0.00    +0.000 C 
BRANCH  19  20
ATOM     20  C   UNL     1       4.610   6.006  18.002  0.00  0.00    +0.000 A 
ATOM     21  C   UNL     1       5.311   5.352  19.033  0.00  0.00    +0.000 A 
ATOM     22  C   UNL     1       6.710   5.396  19.095  0.00  0.00    +0.000 A 
ATOM     23  C   UNL     1       7.428   6.095  18.131  0.00  0.00    +0.000 A 
ATOM     24  C   UNL     1       6.748   6.759  17.104  0.00  0.00    +0.000 A 
ATOM     25  C   UNL     1       5.356   6.709  17.046  0.00  0.00    +0.000 A 
ENDBRANCH  19  20
ENDBRANCH  12  19
TORSDOF 5
ENDMDL
MODEL 3
REMARK VINA RESULT:      -7.9      0.766      1.215
REMARK  Name = 
REMARK  7 active torsions:
REMARK  status: ('A' for Active; 'I' for Inactive)
REMARK    1  A    between atoms: C_1  and  C_2
REMARK    2  A    between atoms: C_2  and  O_3
REMARK    3  A    between atoms: O_3  and  C_4
REMARK    4  A    between atoms: C_10  and  C_11
REMARK    5  A    between atoms: C_16  and  C_17
REMARK    6  A    between atoms: C_18  and  C_19
REMARK    7  A    between atoms: C_19  and  C_20
REMARK                            x       y       z     vdW  Elec       q    Type
REMARK                         _______ _______ _______ _____ _____    ______ ____
ROOT
ATOM      1  C   UNL     1       2.168   5.136  19.912  0.00  0.00    +0.000 A 
ATOM      2  N   UNL     1       1.882   6.112  20.769  0.00  0.00    +0.000 NA
ATOM      3  N   UNL     1       1.942   7.249  20.025  0.00  0.00    +0.000 N 
ATOM      4  C   UNL     1       1.422   8.485  20.549  0.00  0.00    +0.000 A 
ATOM      5  C   UNL     1       1.010   8.551  21.876  0.00  0.00    +0.000 A 
ATOM      6  C   UNL     1       0.372   9.715  22.321  0.00  0.00    +0.000 A 
ATOM      7  C   UNL     1       0.134  10.787  21.451  0.00  0.00    +0.000 A 
ATOM      8  C   UNL     1       0.646  10.635  20.165  0.00  0.00    +0.000 A 
ATOM      9  N   UNL     1       1.271   9.528  19.700  0.00  0.00    +0.000 NA
ATOM     10  C   UNL     1       2.469   6.994  18.768  0.00  0.00    +0.000 A 
ATOM     11  C   UNL     1       2.816   8.021  17.748  0.00  0.00    +0.000 C 
ATOM     12  C   UNL     1       2.587   5.609  18.648  0.00  0.00    +0.000 A 
ENDROOT
BRANCH   7  13
ATOM     13  C   UNL     1      -0.609  12.027  21.868  0.00  0.00    +0.000 C 
ATOM     14  C   UNL     1      -2.100  12.134  21.624  0.00  0.00    +0.000 C 
ATOM     15  C   UNL     1      -1.587  11.954  23.019  0.00  0.00    +0.000 C 
ENDBRANCH   7  13
BRANCH   1  16
ATOM     16  O   UNL     1       2.094   3.847  20.338  0.00  0.00    +0.000 OA
BRANCH  16  18
ATOM     17  C   UNL     1       0.849   2.355  18.876  0.00  0.00    +0.000 C 
ATOM     18  C   UNL     1       0.806   3.263  20.093  0.00  0.00    +0.000 C 
ENDBRANCH  16  18
ENDBRANCH   1  16
BRANCH  12  19
ATOM     19  C   UNL     1       3.110   4.872  17.460  0.00  0.00    +0.000 C 
BRANCH  19  20
ATOM     20  C   UNL     1       4.612   5.040  17.387  0.00  0.00    +0.000 A 
ATOM     21  C   UNL     1       5.409   4.891  18.538  0.00  0.00    +0.000 A 
ATOM     22  C   UNL     1       6.807   4.924  18.457  0.00  0.00    +0.000 A 
ATOM     23  C   UNL     1       7.428   5.109  17.227  0.00  0.00    +0.000 A 
ATOM     24  C   UNL     1       6.653   5.268  16.073  0.00  0.00    +0.000 A 
ATOM     25  C   UNL     1       5.262   5.231  16.159  0.00  0.00    +0.000 A 
ENDBRANCH  19  20
ENDBRANCH  12  19
TORSDOF 5
ENDMDL
MODEL 4
REMARK VINA RESULT:      -7.6      0.862      1.277
REMARK  Name = 
REMARK  7 active torsions:
REMARK  status: ('A' for Active; 'I' for Inactive)
REMARK    1  A    between atoms: C_1  and  C_2
REMARK    2  A    between atoms: C_2  and  O_3
REMARK    3  A    between atoms: O_3  and  C_4
REMARK    4  A    between atoms: C_10  and  C_11
REMARK    5  A    between atoms: C_16  and  C_17
REMARK    6  A    between atoms: C_18  and  C_19
REMARK    7  A    between atoms: C_19  and  C_20
REMARK                            x       y       z     vdW  Elec       q    Type
REMARK                         _______ _______ _______ _____ _____    ______ ____
ROOT
ATOM      1  C   UNL     1       2.321   5.742  19.871  0.00  0.00    +0.000 A 
ATOM      2  N   UNL     1       1.872   6.531  20.843  0.00  0.00    +0.000 NA
ATOM      3  N   UNL     1       1.715   7.745  20.252  0.00  0.00    +0.000 N 
ATOM      4  C   UNL     1       0.984   8.788  20.924  0.00  0.00    +0.000 A 
ATOM      5  C   UNL     1       0.584   8.608  22.244  0.00  0.00    +0.000 A 
ATOM      6  C   UNL     1      -0.250   9.569  22.827  0.00  0.00    +0.000 A 
ATOM      7  C   UNL     1      -0.691  10.682  22.099  0.00  0.00    +0.000 A 
ATOM      8  C   UNL     1      -0.175  10.792  20.811  0.00  0.00    +0.000 A 
ATOM      9  N   UNL     1       0.636   9.886  20.215  0.00  0.00    +0.000 NA
ATOM     10  C   UNL     1       2.265   7.755  18.979  0.00  0.00    +0.000 A 
ATOM     11  C   UNL     1       2.406   8.950  18.103  0.00  0.00    +0.000 C 
ATOM     12  C   UNL     1       2.631   6.442  18.684  0.00  0.00    +0.000 A 
ENDROOT
BRANCH   7  13
ATOM     13  C   UNL     1      -1.642  11.701  22.664  0.00  0.00    +0.000 C 
ATOM     14  C   UNL     1      -1.150  13.097  22.987  0.00  0.00    +0.000 C 
ATOM     15  C   UNL     1      -2.056  12.881  21.814  0.00  0.00    +0.000 C 
ENDBRANCH   7  13
BRANCH   1  16
ATOM     16  O   UNL     1       2.489   4.417  20.128  0.00  0.00    +0.000 OA
BRANCH  16  18
ATOM     17  C   UNL     1       1.515   2.704  21.553  0.00  0.00    +0.000 C 
ATOM     18  C   UNL     1       2.161   4.077  21.483  0.00  0.00    +0.000 C 
ENDBRANCH  16  18
ENDBRANCH   1  16
BRANCH  12  19
ATOM     19  C   UNL     1       3.266   5.971  17.417  0.00  0.00    +0.000 C 
BRANCH  19  20
ATOM     20  C   UNL     1       4.767   5.914  17.598  0.00  0.00    +0.000 A 
ATOM     21  C   UNL     1       5.394   4.730  18.034  0.00  0.00    +0.000 A 
ATOM     22  C   UNL     1       6.790   4.631  18.087  0.00  0.00    +0.000 A 
ATOM     23  C   UNL     1       7.579   5.712  17.710  0.00  0.00    +0.000 A 
ATOM     24  C   UNL     1       6.974   6.899  17.284  0.00  0.00    +0.000 A 
ATOM     25  C   UNL     1       5.584   6.991  17.229  0.00  0.00    +0.000 A 
ENDBRANCH  19  20
ENDBRANCH  12  19
TORSDOF 5
ENDMDL
MODEL 5
REMARK VINA RESULT:      -7.6      1.081      1.083
REMARK  Name = 
REMARK  7 active torsions:
REMARK  status: ('A' for Active; 'I' for Inactive)
REMARK    1  A    between atoms: C_1  and  C_2
REMARK    2  A    between atoms: C_2  and  O_3
REMARK    3  A    between atoms: O_3  and  C_4
REMARK    4  A    between atoms: C_10  and  C_11
REMARK    5  A    between atoms: C_16  and  C_17
REMARK    6  A    between atoms: C_18  and  C_19
REMARK    7  A    between atoms: C_19  and  C_20
REMARK                            x       y       z     vdW  Elec       q    Type
REMARK                         _______ _______ _______ _____ _____    ______ ____
ROOT
ATOM      1  C   UNL     1       1.958   4.941  19.830  0.00  0.00    +0.000 A 
ATOM      2  N   UNL     1       1.658   5.893  20.710  0.00  0.00    +0.000 NA
ATOM      3  N   UNL     1       1.872   7.057  20.040  0.00  0.00    +0.000 N 
ATOM      4  C   UNL     1       1.392   8.302  20.582  0.00  0.00    +0.000 A 
ATOM      5  C   UNL     1       0.856   8.334  21.864  0.00  0.00    +0.000 A 
ATOM      6  C   UNL     1       0.261   9.520  22.311  0.00  0.00    +0.000 A 
ATOM      7  C   UNL     1       0.188  10.648  21.484  0.00  0.00    +0.000 A 
ATOM      8  C   UNL     1       0.814  10.522  20.247  0.00  0.00    +0.000 A 
ATOM      9  N   UNL     1       1.402   9.393  19.783  0.00  0.00    +0.000 NA
ATOM     10  C   UNL     1       2.504   6.825  18.828  0.00  0.00    +0.000 A 
ATOM     11  C   UNL     1       3.023   7.872  17.906  0.00  0.00    +0.000 C 
ATOM     12  C   UNL     1       2.534   5.443  18.642  0.00  0.00    +0.000 A 
ENDROOT
BRANCH   7  13
ATOM     13  C   UNL     1      -0.502  11.919  21.898  0.00  0.00    +0.000 C 
ATOM     14  C   UNL     1      -1.951  12.150  21.521  0.00  0.00    +0.000 C 
ATOM     15  C   UNL     1      -1.591  11.866  22.947  0.00  0.00    +0.000 C 
ENDBRANCH   7  13
BRANCH   1  16
ATOM     16  O   UNL     1       1.750   3.642  20.174  0.00  0.00    +0.000 OA
BRANCH  16  18
ATOM     17  C   UNL     1       3.816   2.398  20.488  0.00  0.00    +0.000 C 
ATOM     18  C   UNL     1       2.694   3.178  21.151  0.00  0.00    +0.000 C 
ENDBRANCH  16  18
ENDBRANCH   1  16
BRANCH  12  19
ATOM     19  C   UNL     1       3.119   4.727  17.469  0.00  0.00    +0.000 C 
BRANCH  19  20
ATOM     20  C   UNL     1       4.611   4.975  17.424  0.00  0.00    +0.000 A 
ATOM     21  C   UNL     1       5.242   5.344  16.220  0.00  0.00    +0.000 A 
ATOM     22  C   UNL     1       6.598   5.694  16.195  0.00  0.00    +0.000 A 
ATOM     23  C   UNL     1       7.344   5.676  17.369  0.00  0.00    +0.000 A 
ATOM     24  C   UNL     1       6.736   5.303  18.572  0.00  0.00    +0.000 A 
ATOM     25  C   UNL     1       5.385   4.959  18.593  0.00  0.00    +0.000 A 
ENDBRANCH  19  20
ENDBRANCH  12  19
TORSDOF 5
ENDMDL
MODEL 6
REMARK VINA RESULT:      -7.3      1.681      2.481
REMARK  Name = 
REMARK  7 active torsions:
REMARK  status: ('A' for Active; 'I' for Inactive)
REMARK    1  A    between atoms: C_1  and  C_2
REMARK    2  A    between atoms: C_2  and  O_3
REMARK    3  A    between atoms: O_3  and  C_4
REMARK    4  A    between atoms: C_10  and  C_11
REMARK    5  A    between atoms: C_16  and  C_17
REMARK    6  A    between atoms: C_18  and  C_19
REMARK    7  A    between atoms: C_19  and  C_20
REMARK                            x       y       z     vdW  Elec       q    Type
REMARK                         _______ _______ _______ _____ _____    ______ ____
ROOT
ATOM      1  C   UNL     1       2.438   6.337  20.239  0.00  0.00    +0.000 A 
ATOM      2  N   UNL     1       1.976   7.169  21.169  0.00  0.00    +0.000 NA
ATOM      3  N   UNL     1       1.560   8.261  20.472  0.00  0.00    +0.000 N 
ATOM      4  C   UNL     1       0.748   9.262  21.114  0.00  0.00    +0.000 A 
ATOM      5  C   UNL     1       0.529   9.196  22.486  0.00  0.00    +0.000 A 
ATOM      6  C   UNL     1      -0.382  10.089  23.062  0.00  0.00    +0.000 A 
ATOM      7  C   UNL     1      -1.073  11.023  22.279  0.00  0.00    +0.000 A 
ATOM      8  C   UNL     1      -0.727  11.041  20.931  0.00  0.00    +0.000 A 
ATOM      9  N   UNL     1       0.151  10.196  20.339  0.00  0.00    +0.000 NA
ATOM     10  C   UNL     1       1.959   8.188  19.146  0.00  0.00    +0.000 A 
ATOM     11  C   UNL     1       1.808   9.269  18.134  0.00  0.00    +0.000 C 
ATOM     12  C   UNL     1       2.499   6.917  18.953  0.00  0.00    +0.000 A 
ENDROOT
BRANCH   7  13
ATOM     13  C   UNL     1      -2.110  11.954  22.845  0.00  0.00    +0.000 C 
ATOM     14  C   UNL     1      -1.719  13.357  23.260  0.00  0.00    +0.000 C 
ATOM     15  C   UNL     1      -2.555  13.150  22.035  0.00  0.00    +0.000 C 
ENDBRANCH   7  13
BRANCH   1  16
ATOM     16  O   UNL     1       2.845   5.095  20.617  0.00  0.00    +0.000 OA
BRANCH  16  18
ATOM     17  C   UNL     1       2.242   2.902  21.478  0.00  0.00    +0.000 C 
ATOM     18  C   UNL     1       1.777   4.316  21.174  0.00  0.00    +0.000 C 
ENDBRANCH  16  18
ENDBRANCH   1  16
BRANCH  12  19
ATOM     19  C   UNL     1       3.059   6.386  17.674  0.00  0.00    +0.000 C 
BRANCH  19  20
ATOM     20  C   UNL     1       2.893   4.883  17.640  0.00  0.00    +0.000 A 
ATOM     21  C   UNL     1       4.017   4.035  17.681  0.00  0.00    +0.000 A 
ATOM     22  C   UNL     1       3.869   2.645  17.772  0.00  0.00    +0.000 A 
ATOM     23  C   UNL     1       2.598   2.082  17.820  0.00  0.00    +0.000 A 
ATOM     24  C   UNL     1       1.470   2.908  17.771  0.00  0.00    +0.000 A 
ATOM     25  C   UNL     1       1.623   4.291  17.683  0.00  0.00    +0.000 A 
ENDBRANCH  19  20
ENDBRANCH  12  19
TORSDOF 5
ENDMDL
MODEL 7
REMARK VINA RESULT:      -7.1      1.540      2.230
REMARK  Name = 
REMARK  7 active torsions:
REMARK  status: ('A' for Active; 'I' for Inactive)
REMARK    1  A    between atoms: C_1  and  C_2
REMARK    2  A    between atoms: C_2  and  O_3
REMARK    3  A    between atoms: O_3  and  C_4
REMARK    4  A    between atoms: C_10  and  C_11
REMARK    5  A    between atoms: C_16  and  C_17
REMARK    6  A    between atoms: C_18  and  C_19
REMARK    7  A    between atoms: C_19  and  C_20
REMARK                            x       y       z     vdW  Elec       q    Type
REMARK                         _______ _______ _______ _____ _____    ______ ____
ROOT
ATOM      1  C   UNL     1       2.128   6.409  20.266  0.00  0.00    +0.000 A 
ATOM      2  N   UNL     1       1.662   7.242  21.192  0.00  0.00    +0.000 NA
ATOM      3  N   UNL     1       1.372   8.383  20.512  0.00  0.00    +0.000 N 
ATOM      4  C   UNL     1       0.589   9.418  21.135  0.00  0.00    +0.000 A 
ATOM      5  C   UNL     1       0.272   9.322  22.486  0.00  0.00    +0.000 A 
ATOM      6  C   UNL     1      -0.612  10.260  23.033  0.00  0.00    +0.000 A 
ATOM      7  C   UNL     1      -1.182  11.266  22.241  0.00  0.00    +0.000 A 
ATOM      8  C   UNL     1      -0.742  11.304  20.921  0.00  0.00    +0.000 A 
ATOM      9  N   UNL     1       0.113  10.417  20.357  0.00  0.00    +0.000 NA
ATOM     10  C   UNL     1       1.855   8.324  19.213  0.00  0.00    +0.000 A 
ATOM     11  C   UNL     1       1.850   9.446  18.234  0.00  0.00    +0.000 C 
ATOM     12  C   UNL     1       2.318   7.025  19.009  0.00  0.00    +0.000 A 
ENDROOT
BRANCH   7  13
ATOM     13  C   UNL     1      -2.187  12.250  22.772  0.00  0.00    +0.000 C 
ATOM     14  C   UNL     1      -1.719  13.556  23.379  0.00  0.00    +0.000 C 
ATOM     15  C   UNL     1      -2.400  13.559  22.045  0.00  0.00    +0.000 C 
ENDBRANCH   7  13
BRANCH   1  16
ATOM     16  O   UNL     1       2.421   5.129  20.622  0.00  0.00    +0.000 OA
BRANCH  16  18
ATOM     17  C   UNL     1       1.611   2.913  21.211  0.00  0.00    +0.000 C 
ATOM     18  C   UNL     1       1.243   4.328  20.797  0.00  0.00    +0.000 C 
ENDBRANCH  16  18
ENDBRANCH   1  16
BRANCH  12  19
ATOM     19  C   UNL     1       2.926   6.497  17.751  0.00  0.00    +0.000 C 
BRANCH  19  20
ATOM     20  C   UNL     1       3.107   5.000  17.871  0.00  0.00    +0.000 A 
ATOM     21  C   UNL     1       2.075   4.119  17.494  0.00  0.00    +0.000 A 
ATOM     22  C   UNL     1       2.276   2.733  17.485  0.00  0.00    +0.000 A 
ATOM     23  C   UNL     1       3.509   2.207  17.856  0.00  0.00    +0.000 A 
ATOM     24  C   UNL     1       4.543   3.066  18.243  0.00  0.00    +0.000 A 
ATOM     25  C   UNL     1       4.338   4.445  18.246  0.00  0.00    +0.000 A 
ENDBRANCH  19  20
ENDBRANCH  12  19
TORSDOF 5
ENDMDL
MODEL 8
REMARK VINA RESULT:      -7.1      2.714      7.375
REMARK  Name = 
REMARK  7 active torsions:
REMARK  status: ('A' for Active; 'I' for Inactive)
REMARK    1  A    between atoms: C_1  and  C_2
REMARK    2  A    between atoms: C_2  and  O_3
REMARK    3  A    between atoms: O_3  and  C_4
REMARK    4  A    between atoms: C_10  and  C_11
REMARK    5  A    between atoms: C_16  and  C_17
REMARK    6  A    between atoms: C_18  and  C_19
REMARK    7  A    between atoms: C_19  and  C_20
REMARK                            x       y       z     vdW  Elec       q    Type
REMARK                         _______ _______ _______ _____ _____    ______ ____
ROOT
ATOM      1  C   UNL     1       0.791   9.904  21.520  0.00  0.00    +0.000 A 
ATOM      2  N   UNL     1       1.063   8.606  21.422  0.00  0.00    +0.000 NA
ATOM      3  N   UNL     1       1.376   8.420  20.111  0.00  0.00    +0.000 N 
ATOM      4  C   UNL     1       1.991   7.191  19.681  0.00  0.00    +0.000 A 
ATOM      5  C   UNL     1       2.114   6.133  20.575  0.00  0.00    +0.000 A 
ATOM      6  C   UNL     1       2.847   5.007  20.182  0.00  0.00    +0.000 A 
ATOM      7  C   UNL     1       3.460   4.946  18.924  0.00  0.00    +0.000 A 
ATOM      8  C   UNL     1       3.216   6.034  18.090  0.00  0.00    +0.000 A 
ATOM      9  N   UNL     1       2.510   7.138  18.433  0.00  0.00    +0.000 NA
ATOM     10  C   UNL     1       1.091   9.555  19.366  0.00  0.00    +0.000 A 
ATOM     11  C   UNL     1       1.167   9.660  17.883  0.00  0.00    +0.000 C 
ATOM     12  C   UNL     1       0.748  10.560  20.269  0.00  0.00    +0.000 A 
ENDROOT
BRANCH   7  13
ATOM     13  C   UNL     1       4.313   3.787  18.487  0.00  0.00    +0.000 C 
ATOM     14  C   UNL     1       3.675   2.594  17.804  0.00  0.00    +0.000 C 
ATOM     15  C   UNL     1       4.527   3.537  17.011  0.00  0.00    +0.000 C 
ENDBRANCH   7  13
BRANCH   1  16
ATOM     16  O   UNL     1       0.532  10.429  22.748  0.00  0.00    +0.000 OA
BRANCH  16  18
ATOM     17  C   UNL     1      -1.614  11.533  23.047  0.00  0.00    +0.000 C 
ATOM     18  C   UNL     1      -0.833  10.234  23.147  0.00  0.00    +0.000 C 
ENDBRANCH  16  18
ENDBRANCH   1  16
BRANCH  12  19
ATOM     19  C   UNL     1       0.363  11.960  19.920  0.00  0.00    +0.000 C 
BRANCH  19  20
ATOM     20  C   UNL     1       1.613  12.796  19.752  0.00  0.00    +0.000 A 
ATOM     21  C   UNL     1       2.080  13.139  18.468  0.00  0.00    +0.000 A 
ATOM     22  C   UNL     1       3.163  14.012  18.305  0.00  0.00    +0.000 A 
ATOM     23  C   UNL     1       3.797  14.552  19.419  0.00  0.00    +0.000 A 
ATOM     24  C   UNL     1       3.353  14.215  20.702  0.00  0.00    +0.000 A 
ATOM     25  C   UNL     1       2.272  13.348  20.859  0.00  0.00    +0.000 A 
ENDBRANCH  19  20
ENDBRANCH  12  19
TORSDOF 5
ENDMDL
MODEL 9
REMARK VINA RESULT:      -7.0      1.661      2.460
REMARK  Name = 
REMARK  7 active torsions:
REMARK  status: ('A' for Active; 'I' for Inactive)
REMARK    1  A    between atoms: C_1  and  C_2
REMARK    2  A    between atoms: C_2  and  O_3
REMARK    3  A    between atoms: O_3  and  C_4
REMARK    4  A    between atoms: C_10  and  C_11
REMARK    5  A    between atoms: C_16  and  C_17
REMARK    6  A    between atoms: C_18  and  C_19
REMARK    7  A    between atoms: C_19  and  C_20
REMARK                            x       y       z     vdW  Elec       q    Type
REMARK                         _______ _______ _______ _____ _____    ______ ____
ROOT
ATOM      1  C   UNL     1       2.260   6.297  20.017  0.00  0.00    +0.000 A 
ATOM      2  N   UNL     1       1.654   7.317  20.619  0.00  0.00    +0.000 NA
ATOM      3  N   UNL     1       1.633   8.303  19.682  0.00  0.00    +0.000 N 
ATOM      4  C   UNL     1       0.810   9.468  19.877  0.00  0.00    +0.000 A 
ATOM      5  C   UNL     1       0.168   9.662  21.095  0.00  0.00    +0.000 A 
ATOM      6  C   UNL     1      -0.742  10.720  21.211  0.00  0.00    +0.000 A 
ATOM      7  C   UNL     1      -1.017  11.559  20.123  0.00  0.00    +0.000 A 
ATOM      8  C   UNL     1      -0.269  11.311  18.976  0.00  0.00    +0.000 A 
ATOM      9  N   UNL     1       0.621  10.301  18.828  0.00  0.00    +0.000 NA
ATOM     10  C   UNL     1       2.410   7.963  18.585  0.00  0.00    +0.000 A 
ATOM     11  C   UNL     1       2.735   8.860  17.442  0.00  0.00    +0.000 C 
ATOM     12  C   UNL     1       2.800   6.636  18.756  0.00  0.00    +0.000 A 
ENDROOT
BRANCH   7  13
ATOM     13  C   UNL     1      -2.037  12.663  20.183  0.00  0.00    +0.000 C 
ATOM     14  C   UNL     1      -3.496  12.361  19.911  0.00  0.00    +0.000 C 
ATOM     15  C   UNL     1      -3.051  12.678  21.305  0.00  0.00    +0.000 C 
ENDBRANCH   7  13
BRANCH   1  16
ATOM     16  O   UNL     1       2.352   5.110  20.674  0.00  0.00    +0.000 OA
BRANCH  16  18
ATOM     17  C   UNL     1       1.294   2.992  21.234  0.00  0.00    +0.000 C 
ATOM     18  C   UNL     1       1.104   4.400  20.695  0.00  0.00    +0.000 C 
ENDBRANCH  16  18
ENDBRANCH   1  16
BRANCH  12  19
ATOM     19  C   UNL     1       3.650   5.842  17.819  0.00  0.00    +0.000 C 
BRANCH  19  20
ATOM     20  C   UNL     1       3.464   4.367  18.100  0.00  0.00    +0.000 A 
ATOM     21  C   UNL     1       2.421   3.645  17.490  0.00  0.00    +0.000 A 
ATOM     22  C   UNL     1       2.315   2.257  17.648  0.00  0.00    +0.000 A 
ATOM     23  C   UNL     1       3.247   1.572  18.420  0.00  0.00    +0.000 A 
ATOM     24  C   UNL     1       4.286   2.274  19.041  0.00  0.00    +0.000 A 
ATOM     25  C   UNL     1       4.388   3.655  18.878  0.00  0.00    +0.000 A 
ENDBRANCH  19  20
ENDBRANCH  12  19
TORSDOF 5
ENDMDL
