MODEL 1
REMARK VINA RESULT:      -7.8      0.000      0.000
REMARK  Name = 
REMARK  5 active torsions:
REMARK  status: ('A' for Active; 'I' for Inactive)
REMARK    1  A    between atoms: C_1  and  O_2
REMARK    2  A    between atoms: O_2  and  C_3
REMARK    3  A    between atoms: C_15  and  N_16
REMARK    4  A    between atoms: N_16  and  C_17
REMARK    5  A    between atoms: C_22  and  O_23
REMARK                            x       y       z     vdW  Elec       q    Type
REMARK                         _______ _______ _______ _____ _____    ______ ____
ROOT
ATOM      1  C   UNL     1      -1.337  11.374  22.597  0.00  0.00    +0.000 A 
ATOM      2  C   UNL     1      -0.764  10.472  23.480  0.00  0.00    +0.000 A 
ATOM      3  C   UNL     1       0.094   9.481  23.000  0.00  0.00    +0.000 A 
ATOM      4  C   UNL     1       0.410   9.371  21.655  0.00  0.00    +0.000 A 
ATOM      5  N   UNL     1       1.211   8.363  21.296  0.00  0.00    +0.000 NA
ATOM      6  C   UNL     1       1.590   8.241  20.020  0.00  0.00    +0.000 A 
ATOM      7  C   UNL     1       2.391   7.153  19.700  0.00  0.00    +0.000 A 
ATOM      8  C   UNL     1       2.862   6.952  18.406  0.00  0.00    +0.000 A 
ATOM      9 CL   UNL     1       3.780   5.547  18.030  0.00  0.00    +0.000 Cl
ATOM     10  C   UNL     1       2.602   7.887  17.423  0.00  0.00    +0.000 A 
ATOM     11  C   UNL     1       1.812   8.989  17.739  0.00  0.00    +0.000 A 
ATOM     12  C   UNL     1       1.210   9.146  19.018  0.00  0.00    +0.000 A 
ATOM     13  C   UNL     1       0.244  10.142  19.377  0.00  0.00    +0.000 A 
ATOM     14  C   UNL     1      -0.129  10.292  20.745  0.00  0.00    +0.000 A 
ATOM     15  C   UNL     1      -1.020  11.282  21.237  0.00  0.00    +0.000 A 
ENDROOT
BRANCH   1  17
ATOM     16  C   UNL     1      -3.424  12.434  22.201  0.00  0.00    +0.000 C 
ATOM     17  O   UNL     1      -2.203  12.379  22.931  0.00  0.00    +0.000 OA
ENDBRANCH   1  17
BRANCH  13  18
ATOM     18  N   UNL     1      -0.376  10.998  18.415  0.00  0.00    +0.000 N 
ATOM     19  H   UNL     1       0.301  11.468  17.812  0.00  0.00    +0.000 HD
BRANCH  18  20
ATOM     20  C   UNL     1      -1.590  10.781  17.720  0.00  0.00    +0.000 A 
ATOM     21  C   UNL     1      -1.728   9.740  16.791  0.00  0.00    +0.000 A 
ATOM     22  C   UNL     1      -2.826   9.701  15.932  0.00  0.00    +0.000 A 
ATOM     23  C   UNL     1      -3.837  10.654  16.048  0.00  0.00    +0.000 A 
ATOM     24  C   UNL     1      -3.773  11.623  17.050  0.00  0.00    +0.000 A 
ATOM     25  C   UNL     1      -2.654  11.679  17.881  0.00  0.00    +0.000 A 
BRANCH  25  26
ATOM     26  O   UNL     1      -2.536  12.659  18.833  0.00  0.00    +0.000 OA
ATOM     27  H   UNL     1      -3.342  13.201  18.812  0.00  0.00    +0.000 HD
ENDBRANCH  25  26
ENDBRANCH  18  20
ENDBRANCH  13  18
TORSDOF 4
ENDMDL
MODEL 2
REMARK VINA RESULT:      -7.7      4.527      7.174
REMARK  Name = 
REMARK  5 active torsions:
REMARK  status: ('A' for Active; 'I' for Inactive)
REMARK    1  A    between atoms: C_1  and  O_2
REMARK    2  A    between atoms: O_2  and  C_3
REMARK    3  A    between atoms: C_15  and  N_16
REMARK    4  A    between atoms: N_16  and  C_17
REMARK    5  A    between atoms: C_22  and  O_23
REMARK                            x       y       z     vdW  Elec       q    Type
REMARK                         _______ _______ _______ _____ _____    ______ ____
ROOT
ATOM      1  C   UNL     1       1.563   2.845  19.929  0.00  0.00    +0.000 A 
ATOM      2  C   UNL     1       1.787   1.763  19.092  0.00  0.00    +0.000 A 
ATOM      3  C   UNL     1       2.697   1.876  18.039  0.00  0.00    +0.000 A 
ATOM      4  C   UNL     1       3.405   3.044  17.803  0.00  0.00    +0.000 A 
ATOM      5  N   UNL     1       4.222   3.059  16.745  0.00  0.00    +0.000 NA
ATOM      6  C   UNL     1       4.968   4.141  16.502  0.00  0.00    +0.000 A 
ATOM      7  C   UNL     1       5.769   4.113  15.368  0.00  0.00    +0.000 A 
ATOM      8  C   UNL     1       6.605   5.177  15.040  0.00  0.00    +0.000 A 
ATOM      9 CL   UNL     1       7.517   5.144  13.583  0.00  0.00    +0.000 Cl
ATOM     10  C   UNL     1       6.710   6.260  15.892  0.00  0.00    +0.000 A 
ATOM     11  C   UNL     1       5.922   6.290  17.040  0.00  0.00    +0.000 A 
ATOM     12  C   UNL     1       4.965   5.277  17.325  0.00  0.00    +0.000 A 
ATOM     13  C   UNL     1       3.990   5.312  18.376  0.00  0.00    +0.000 A 
ATOM     14  C   UNL     1       3.223   4.143  18.655  0.00  0.00    +0.000 A 
ATOM     15  C   UNL     1       2.277   4.029  19.708  0.00  0.00    +0.000 A 
ENDROOT
BRANCH   1  17
ATOM     16  C   UNL     1       1.216   2.499  22.252  0.00  0.00    +0.000 C 
ATOM     17  O   UNL     1       0.691   2.873  20.983  0.00  0.00    +0.000 OA
ENDBRANCH   1  17
BRANCH  13  18
ATOM     18  N   UNL     1       3.743   6.480  19.161  0.00  0.00    +0.000 N 
ATOM     19  H   UNL     1       4.601   6.908  19.510  0.00  0.00    +0.000 HD
BRANCH  18  20
ATOM     20  C   UNL     1       2.748   7.466  18.954  0.00  0.00    +0.000 A 
ATOM     21  C   UNL     1       2.654   8.173  17.747  0.00  0.00    +0.000 A 
ATOM     22  C   UNL     1       1.851   9.309  17.654  0.00  0.00    +0.000 A 
ATOM     23  C   UNL     1       1.071   9.702  18.740  0.00  0.00    +0.000 A 
ATOM     24  C   UNL     1       1.059   8.937  19.907  0.00  0.00    +0.000 A 
ATOM     25  C   UNL     1       1.894   7.824  20.007  0.00  0.00    +0.000 A 
BRANCH  25  26
ATOM     26  O   UNL     1       1.951   7.091  21.163  0.00  0.00    +0.000 OA
ATOM     27  H   UNL     1       1.041   6.902  21.448  0.00  0.00    +0.000 HD
ENDBRANCH  25  26
ENDBRANCH  18  20
ENDBRANCH  13  18
TORSDOF 4
ENDMDL
MODEL 3
REMARK VINA RESULT:      -7.6      5.413      8.622
REMARK  Name = 
REMARK  5 active torsions:
REMARK  status: ('A' for Active; 'I' for Inactive)
REMARK    1  A    between atoms: C_1  and  O_2
REMARK    2  A    between atoms: O_2  and  C_3
REMARK    3  A    between atoms: C_15  and  N_16
REMARK    4  A    between atoms: N_16  and  C_17
REMARK    5  A    between atoms: C_22  and  O_23
REMARK                            x       y       z     vdW  Elec       q    Type
REMARK                         _______ _______ _______ _____ _____    ______ ____
ROOT
ATOM      1  C   UNL     1       4.348   2.268  20.474  0.00  0.00    +0.000 A 
ATOM      2  C   UNL     1       3.180   2.365  21.214  0.00  0.00    +0.000 A 
ATOM      3  C   UNL     1       2.401   3.521  21.132  0.00  0.00    +0.000 A 
ATOM      4  C   UNL     1       2.751   4.587  20.318  0.00  0.00    +0.000 A 
ATOM      5  N   UNL     1       1.957   5.661  20.344  0.00  0.00    +0.000 NA
ATOM      6  C   UNL     1       2.219   6.696  19.539  0.00  0.00    +0.000 A 
ATOM      7  C   UNL     1       1.381   7.799  19.637  0.00  0.00    +0.000 A 
ATOM      8  C   UNL     1       1.551   8.916  18.824  0.00  0.00    +0.000 A 
ATOM      9 CL   UNL     1       0.549  10.298  19.033  0.00  0.00    +0.000 Cl
ATOM     10  C   UNL     1       2.520   8.913  17.839  0.00  0.00    +0.000 A 
ATOM     11  C   UNL     1       3.355   7.804  17.723  0.00  0.00    +0.000 A 
ATOM     12  C   UNL     1       3.286   6.709  18.629  0.00  0.00    +0.000 A 
ATOM     13  C   UNL     1       4.213   5.618  18.702  0.00  0.00    +0.000 A 
ATOM     14  C   UNL     1       3.911   4.500  19.533  0.00  0.00    +0.000 A 
ATOM     15  C   UNL     1       4.710   3.332  19.640  0.00  0.00    +0.000 A 
ENDROOT
BRANCH   1  17
ATOM     16  C   UNL     1       5.654   0.747  21.746  0.00  0.00    +0.000 C 
ATOM     17  O   UNL     1       5.207   1.203  20.474  0.00  0.00    +0.000 OA
ENDBRANCH   1  17
BRANCH  13  18
ATOM     18  N   UNL     1       5.444   5.601  17.976  0.00  0.00    +0.000 N 
ATOM     19  H   UNL     1       6.241   5.348  18.562  0.00  0.00    +0.000 HD
BRANCH  18  20
ATOM     20  C   UNL     1       5.655   5.175  16.642  0.00  0.00    +0.000 A 
ATOM     21  C   UNL     1       4.802   4.252  16.022  0.00  0.00    +0.000 A 
ATOM     22  C   UNL     1       5.167   3.650  14.819  0.00  0.00    +0.000 A 
ATOM     23  C   UNL     1       6.351   4.023  14.183  0.00  0.00    +0.000 A 
ATOM     24  C   UNL     1       7.149   5.031  14.726  0.00  0.00    +0.000 A 
ATOM     25  C   UNL     1       6.796   5.601  15.949  0.00  0.00    +0.000 A 
BRANCH  25  26
ATOM     26  O   UNL     1       7.595   6.548  16.538  0.00  0.00    +0.000 OA
ATOM     27  H   UNL     1       8.327   6.748  15.930  0.00  0.00    +0.000 HD
ENDBRANCH  25  26
ENDBRANCH  18  20
ENDBRANCH  13  18
TORSDOF 4
ENDMDL
MODEL 4
REMARK VINA RESULT:      -7.5      2.246      2.968
REMARK  Name = 
REMARK  5 active torsions:
REMARK  status: ('A' for Active; 'I' for Inactive)
REMARK    1  A    between atoms: C_1  and  O_2
REMARK    2  A    between atoms: O_2  and  C_3
REMARK    3  A    between atoms: C_15  and  N_16
REMARK    4  A    between atoms: N_16  and  C_17
REMARK    5  A    between atoms: C_22  and  O_23
REMARK                            x       y       z     vdW  Elec       q    Type
REMARK                         _______ _______ _______ _____ _____    ______ ____
ROOT
ATOM      1  C   UNL     1      -1.144  11.380  22.509  0.00  0.00    +0.000 A 
ATOM      2  C   UNL     1      -0.880  10.301  23.339  0.00  0.00    +0.000 A 
ATOM      3  C   UNL     1      -0.125   9.228  22.863  0.00  0.00    +0.000 A 
ATOM      4  C   UNL     1       0.390   9.206  21.576  0.00  0.00    +0.000 A 
ATOM      5  N   UNL     1       1.066   8.113  21.208  0.00  0.00    +0.000 NA
ATOM      6  C   UNL     1       1.628   8.061  19.996  0.00  0.00    +0.000 A 
ATOM      7  C   UNL     1       2.286   6.886  19.656  0.00  0.00    +0.000 A 
ATOM      8  C   UNL     1       2.928   6.740  18.430  0.00  0.00    +0.000 A 
ATOM      9 CL   UNL     1       3.657   5.241  18.008  0.00  0.00    +0.000 Cl
ATOM     10  C   UNL     1       2.990   7.806  17.551  0.00  0.00    +0.000 A 
ATOM     11  C   UNL     1       2.346   8.993  17.892  0.00  0.00    +0.000 A 
ATOM     12  C   UNL     1       1.573   9.120  19.078  0.00  0.00    +0.000 A 
ATOM     13  C   UNL     1       0.733  10.230  19.421  0.00  0.00    +0.000 A 
ATOM     14  C   UNL     1       0.166  10.300  20.727  0.00  0.00    +0.000 A 
ATOM     15  C   UNL     1      -0.624  11.376  21.210  0.00  0.00    +0.000 A 
ENDROOT
BRANCH   1  17
ATOM     16  C   UNL     1      -1.383  13.739  22.395  0.00  0.00    +0.000 C 
ATOM     17  O   UNL     1      -1.880  12.483  22.844  0.00  0.00    +0.000 OA
ENDBRANCH   1  17
BRANCH  13  18
ATOM     18  N   UNL     1       0.429  11.281  18.502  0.00  0.00    +0.000 N 
ATOM     19  H   UNL     1      -0.568  11.337  18.285  0.00  0.00    +0.000 HD
BRANCH  18  20
ATOM     20  C   UNL     1       1.024  12.563  18.427  0.00  0.00    +0.000 A 
ATOM     21  C   UNL     1       2.411  12.723  18.306  0.00  0.00    +0.000 A 
ATOM     22  C   UNL     1       2.998  13.974  18.497  0.00  0.00    +0.000 A 
ATOM     23  C   UNL     1       2.197  15.091  18.732  0.00  0.00    +0.000 A 
ATOM     24  C   UNL     1       0.807  14.968  18.732  0.00  0.00    +0.000 A 
ATOM     25  C   UNL     1       0.230  13.709  18.577  0.00  0.00    +0.000 A 
BRANCH  25  26
ATOM     26  O   UNL     1      -1.131  13.549  18.636  0.00  0.00    +0.000 OA
ATOM     27  H   UNL     1      -1.519  13.959  17.846  0.00  0.00    +0.000 HD
ENDBRANCH  25  26
ENDBRANCH  18  20
ENDBRANCH  13  18
TORSDOF 4
ENDMDL
MODEL 5
REMARK VINA RESULT:      -7.5      3.379      6.809
REMARK  Name = 
REMARK  5 active torsions:
REMARK  status: ('A' for Active; 'I' for Inactive)
REMARK    1  A    between atoms: C_1  and  O_2
REMARK    2  A    between atoms: O_2  and  C_3
REMARK    3  A    between atoms: C_15  and  N_16
REMARK    4  A    between atoms: N_16  and  C_17
REMARK    5  A    between atoms: C_22  and  O_23
REMARK                            x       y       z     vdW  Elec       q    Type
REMARK                         _______ _______ _______ _____ _____    ______ ____
ROOT
ATOM      1  C   UNL     1      -3.064  10.860  16.204  0.00  0.00    +0.000 A 
ATOM      2  C   UNL     1      -4.362  11.250  16.498  0.00  0.00    +0.000 A 
ATOM      3  C   UNL     1      -4.662  11.769  17.758  0.00  0.00    +0.000 A 
ATOM      4  C   UNL     1      -3.693  11.923  18.739  0.00  0.00    +0.000 A 
ATOM      5  N   UNL     1      -4.094  12.392  19.924  0.00  0.00    +0.000 NA
ATOM      6  C   UNL     1      -3.193  12.610  20.888  0.00  0.00    +0.000 A 
ATOM      7  C   UNL     1      -3.673  13.063  22.110  0.00  0.00    +0.000 A 
ATOM      8  C   UNL     1      -2.816  13.346  23.169  0.00  0.00    +0.000 A 
ATOM      9 CL   UNL     1      -3.453  13.821  24.693  0.00  0.00    +0.000 Cl
ATOM     10  C   UNL     1      -1.448  13.255  22.993  0.00  0.00    +0.000 A 
ATOM     11  C   UNL     1      -0.957  12.816  21.766  0.00  0.00    +0.000 A 
ATOM     12  C   UNL     1      -1.818  12.395  20.715  0.00  0.00    +0.000 A 
ATOM     13  C   UNL     1      -1.410  11.763  19.495  0.00  0.00    +0.000 A 
ATOM     14  C   UNL     1      -2.366  11.567  18.456  0.00  0.00    +0.000 A 
ATOM     15  C   UNL     1      -2.074  11.017  17.180  0.00  0.00    +0.000 A 
ENDROOT
BRANCH   1  17
ATOM     16  C   UNL     1      -3.648  10.033  14.056  0.00  0.00    +0.000 C 
ATOM     17  O   UNL     1      -2.640  10.324  15.019  0.00  0.00    +0.000 OA
ENDBRANCH   1  17
BRANCH  13  18
ATOM     18  N   UNL     1      -0.074  11.308  19.271  0.00  0.00    +0.000 N 
ATOM     19  H   UNL     1       0.624  12.030  19.454  0.00  0.00    +0.000 HD
BRANCH  18  20
ATOM     20  C   UNL     1       0.460  10.025  19.544  0.00  0.00    +0.000 A 
ATOM     21  C   UNL     1       0.207   9.368  20.757  0.00  0.00    +0.000 A 
ATOM     22  C   UNL     1       0.943   8.239  21.115  0.00  0.00    +0.000 A 
ATOM     23  C   UNL     1       1.882   7.709  20.231  0.00  0.00    +0.000 A 
ATOM     24  C   UNL     1       2.055   8.279  18.969  0.00  0.00    +0.000 A 
ATOM     25  C   UNL     1       1.343   9.430  18.633  0.00  0.00    +0.000 A 
BRANCH  25  26
ATOM     26  O   UNL     1       1.540  10.049  17.425  0.00  0.00    +0.000 OA
ATOM     27  H   UNL     1       0.965   9.621  16.768  0.00  0.00    +0.000 HD
ENDBRANCH  25  26
ENDBRANCH  18  20
ENDBRANCH  13  18
TORSDOF 4
ENDMDL
MODEL 6
REMARK VINA RESULT:      -7.5      4.259      7.202
REMARK  Name = 
REMARK  5 active torsions:
REMARK  status: ('A' for Active; 'I' for Inactive)
REMARK    1  A    between atoms: C_1  and  O_2
REMARK    2  A    between atoms: O_2  and  C_3
REMARK    3  A    between atoms: C_15  and  N_16
REMARK    4  A    between atoms: N_16  and  C_17
REMARK    5  A    between atoms: C_22  and  O_23
REMARK                            x       y       z     vdW  Elec       q    Type
REMARK                         _______ _______ _______ _____ _____    ______ ____
ROOT
ATOM      1  C   UNL     1       7.183   7.561  17.513  0.00  0.00    +0.000 A 
ATOM      2  C   UNL     1       7.856   6.363  17.697  0.00  0.00    +0.000 A 
ATOM      3  C   UNL     1       7.134   5.193  17.942  0.00  0.00    +0.000 A 
ATOM      4  C   UNL     1       5.749   5.182  17.997  0.00  0.00    +0.000 A 
ATOM      5  N   UNL     1       5.158   4.017  18.277  0.00  0.00    +0.000 NA
ATOM      6  C   UNL     1       3.823   3.938  18.290  0.00  0.00    +0.000 A 
ATOM      7  C   UNL     1       3.266   2.711  18.624  0.00  0.00    +0.000 A 
ATOM      8  C   UNL     1       1.888   2.517  18.639  0.00  0.00    +0.000 A 
ATOM      9 CL   UNL     1       1.233   1.009  19.141  0.00  0.00    +0.000 Cl
ATOM     10  C   UNL     1       1.043   3.535  18.240  0.00  0.00    +0.000 A 
ATOM     11  C   UNL     1       1.594   4.765  17.888  0.00  0.00    +0.000 A 
ATOM     12  C   UNL     1       2.988   5.026  17.993  0.00  0.00    +0.000 A 
ATOM     13  C   UNL     1       3.620   6.302  17.831  0.00  0.00    +0.000 A 
ATOM     14  C   UNL     1       5.043   6.375  17.780  0.00  0.00    +0.000 A 
ATOM     15  C   UNL     1       5.785   7.565  17.556  0.00  0.00    +0.000 A 
ENDROOT
BRANCH   1  17
ATOM     16  C   UNL     1       8.548   9.318  18.341  0.00  0.00    +0.000 C 
ATOM     17  O   UNL     1       7.767   8.777  17.282  0.00  0.00    +0.000 OA
ENDBRANCH   1  17
BRANCH  13  18
ATOM     18  N   UNL     1       2.882   7.521  17.722  0.00  0.00    +0.000 N 
ATOM     19  H   UNL     1       2.360   7.588  16.847  0.00  0.00    +0.000 HD
BRANCH  18  20
ATOM     20  C   UNL     1       2.208   8.218  18.754  0.00  0.00    +0.000 A 
ATOM     21  C   UNL     1       2.010   7.646  20.018  0.00  0.00    +0.000 A 
ATOM     22  C   UNL     1       1.126   8.229  20.927  0.00  0.00    +0.000 A 
ATOM     23  C   UNL     1       0.495   9.432  20.611  0.00  0.00    +0.000 A 
ATOM     24  C   UNL     1       0.778  10.076  19.407  0.00  0.00    +0.000 A 
ATOM     25  C   UNL     1       1.633   9.468  18.488  0.00  0.00    +0.000 A 
BRANCH  25  26
ATOM     26  O   UNL     1       1.880  10.048  17.270  0.00  0.00    +0.000 OA
ATOM     27  H   UNL     1       1.494  10.940  17.274  0.00  0.00    +0.000 HD
ENDBRANCH  25  26
ENDBRANCH  18  20
ENDBRANCH  13  18
TORSDOF 4
ENDMDL
MODEL 7
REMARK VINA RESULT:      -7.4      4.823      8.212
REMARK  Name = 
REMARK  5 active torsions:
REMARK  status: ('A' for Active; 'I' for Inactive)
REMARK    1  A    between atoms: C_1  and  O_2
REMARK    2  A    between atoms: O_2  and  C_3
REMARK    3  A    between atoms: C_15  and  N_16
REMARK    4  A    between atoms: N_16  and  C_17
REMARK    5  A    between atoms: C_22  and  O_23
REMARK                            x       y       z     vdW  Elec       q    Type
REMARK                         _______ _______ _______ _____ _____    ______ ____
ROOT
ATOM      1  C   UNL     1       3.104   2.529  20.215  0.00  0.00    +0.000 A 
ATOM      2  C   UNL     1       2.144   2.756  21.189  0.00  0.00    +0.000 A 
ATOM      3  C   UNL     1       1.580   4.026  21.325  0.00  0.00    +0.000 A 
ATOM      4  C   UNL     1       1.940   5.082  20.501  0.00  0.00    +0.000 A 
ATOM      5  N   UNL     1       1.368   6.265  20.742  0.00  0.00    +0.000 NA
ATOM      6  C   UNL     1       1.639   7.304  19.946  0.00  0.00    +0.000 A 
ATOM      7  C   UNL     1       1.045   8.518  20.267  0.00  0.00    +0.000 A 
ATOM      8  C   UNL     1       1.240   9.653  19.485  0.00  0.00    +0.000 A 
ATOM      9 CL   UNL     1       0.559  11.158  19.962  0.00  0.00    +0.000 Cl
ATOM     10  C   UNL     1       1.976   9.570  18.318  0.00  0.00    +0.000 A 
ATOM     11  C   UNL     1       2.563   8.353  17.980  0.00  0.00    +0.000 A 
ATOM     12  C   UNL     1       2.487   7.216  18.831  0.00  0.00    +0.000 A 
ATOM     13  C   UNL     1       3.203   5.987  18.659  0.00  0.00    +0.000 A 
ATOM     14  C   UNL     1       2.884   4.870  19.486  0.00  0.00    +0.000 A 
ATOM     15  C   UNL     1       3.472   3.583  19.370  0.00  0.00    +0.000 A 
ENDROOT
BRANCH   1  17
ATOM     16  C   UNL     1       4.008   1.014  18.626  0.00  0.00    +0.000 C 
ATOM     17  O   UNL     1       3.745   1.343  19.986  0.00  0.00    +0.000 OA
ENDBRANCH   1  17
BRANCH  13  18
ATOM     18  N   UNL     1       4.241   5.827  17.689  0.00  0.00    +0.000 N 
ATOM     19  H   UNL     1       3.944   6.094  16.749  0.00  0.00    +0.000 HD
BRANCH  18  20
ATOM     20  C   UNL     1       5.626   6.067  17.858  0.00  0.00    +0.000 A 
ATOM     21  C   UNL     1       6.342   5.515  18.929  0.00  0.00    +0.000 A 
ATOM     22  C   UNL     1       7.627   5.968  19.228  0.00  0.00    +0.000 A 
ATOM     23  C   UNL     1       8.239   6.917  18.411  0.00  0.00    +0.000 A 
ATOM     24  C   UNL     1       7.586   7.384  17.270  0.00  0.00    +0.000 A 
ATOM     25  C   UNL     1       6.287   6.956  16.999  0.00  0.00    +0.000 A 
BRANCH  25  26
ATOM     26  O   UNL     1       5.598   7.446  15.920  0.00  0.00    +0.000 OA
ATOM     27  H   UNL     1       5.987   7.068  15.113  0.00  0.00    +0.000 HD
ENDBRANCH  25  26
ENDBRANCH  18  20
ENDBRANCH  13  18
TORSDOF 4
ENDMDL
MODEL 8
REMARK VINA RESULT:      -7.4      4.235      7.202
REMARK  Name = 
REMARK  5 active torsions:
REMARK  status: ('A' for Active; 'I' for Inactive)
REMARK    1  A    between atoms: C_1  and  O_2
REMARK    2  A    between atoms: O_2  and  C_3
REMARK    3  A    between atoms: C_15  and  N_16
REMARK    4  A    between atoms: N_16  and  C_17
REMARK    5  A    between atoms: C_22  and  O_23
REMARK                            x       y       z     vdW  Elec       q    Type
REMARK                         _______ _______ _______ _____ _____    ______ ____
ROOT
ATOM      1  C   UNL     1       6.911   6.800  17.532  0.00  0.00    +0.000 A 
ATOM      2  C   UNL     1       7.576   5.701  18.053  0.00  0.00    +0.000 A 
ATOM      3  C   UNL     1       6.873   4.751  18.796  0.00  0.00    +0.000 A 
ATOM      4  C   UNL     1       5.510   4.862  19.026  0.00  0.00    +0.000 A 
ATOM      5  N   UNL     1       4.941   3.919  19.783  0.00  0.00    +0.000 NA
ATOM      6  C   UNL     1       3.621   3.948  19.993  0.00  0.00    +0.000 A 
ATOM      7  C   UNL     1       3.092   2.964  20.819  0.00  0.00    +0.000 A 
ATOM      8  C   UNL     1       1.726   2.889  21.078  0.00  0.00    +0.000 A 
ATOM      9 CL   UNL     1       1.118   1.711  22.173  0.00  0.00    +0.000 Cl
ATOM     10  C   UNL     1       0.854   3.756  20.448  0.00  0.00    +0.000 A 
ATOM     11  C   UNL     1       1.375   4.736  19.607  0.00  0.00    +0.000 A 
ATOM     12  C   UNL     1       2.775   4.915  19.431  0.00  0.00    +0.000 A 
ATOM     13  C   UNL     1       3.404   6.000  18.737  0.00  0.00    +0.000 A 
ATOM     14  C   UNL     1       4.806   5.947  18.483  0.00  0.00    +0.000 A 
ATOM     15  C   UNL     1       5.533   6.921  17.749  0.00  0.00    +0.000 A 
ENDROOT
BRANCH   1  17
ATOM     16  C   UNL     1       8.022   8.898  17.541  0.00  0.00    +0.000 C 
ATOM     17  O   UNL     1       7.481   7.807  16.803  0.00  0.00    +0.000 OA
ENDBRANCH   1  17
BRANCH  13  18
ATOM     18  N   UNL     1       2.685   7.150  18.288  0.00  0.00    +0.000 N 
ATOM     19  H   UNL     1       2.131   6.965  17.450  0.00  0.00    +0.000 HD
BRANCH  18  20
ATOM     20  C   UNL     1       2.065   8.146  19.081  0.00  0.00    +0.000 A 
ATOM     21  C   UNL     1       1.757   7.923  20.431  0.00  0.00    +0.000 A 
ATOM     22  C   UNL     1       0.920   8.801  21.119  0.00  0.00    +0.000 A 
ATOM     23  C   UNL     1       0.446   9.951  20.488  0.00  0.00    +0.000 A 
ATOM     24  C   UNL     1       0.844  10.249  19.185  0.00  0.00    +0.000 A 
ATOM     25  C   UNL     1       1.651   9.348  18.490  0.00  0.00    +0.000 A 
BRANCH  25  26
ATOM     26  O   UNL     1       2.006   9.583  17.187  0.00  0.00    +0.000 OA
ATOM     27  H   UNL     1       1.889  10.531  17.008  0.00  0.00    +0.000 HD
ENDBRANCH  25  26
ENDBRANCH  18  20
ENDBRANCH  13  18
TORSDOF 4
ENDMDL
MODEL 9
REMARK VINA RESULT:      -7.4      4.919      8.141
REMARK  Name = 
REMARK  5 active torsions:
REMARK  status: ('A' for Active; 'I' for Inactive)
REMARK    1  A    between atoms: C_1  and  O_2
REMARK    2  A    between atoms: O_2  and  C_3
REMARK    3  A    between atoms: C_15  and  N_16
REMARK    4  A    between atoms: N_16  and  C_17
REMARK    5  A    between atoms: C_22  and  O_23
REMARK                            x       y       z     vdW  Elec       q    Type
REMARK                         _______ _______ _______ _____ _____    ______ ____
ROOT
ATOM      1  C   UNL     1       3.225   2.944  19.929  0.00  0.00    +0.000 A 
ATOM      2  C   UNL     1       2.495   3.160  21.088  0.00  0.00    +0.000 A 
ATOM      3  C   UNL     1       1.943   4.418  21.336  0.00  0.00    +0.000 A 
ATOM      4  C   UNL     1       2.090   5.473  20.448  0.00  0.00    +0.000 A 
ATOM      5  N   UNL     1       1.556   6.646  20.801  0.00  0.00    +0.000 NA
ATOM      6  C   UNL     1       1.623   7.682  19.959  0.00  0.00    +0.000 A 
ATOM      7  C   UNL     1       1.084   8.886  20.395  0.00  0.00    +0.000 A 
ATOM      8  C   UNL     1       1.077  10.017  19.584  0.00  0.00    +0.000 A 
ATOM      9 CL   UNL     1       0.480  11.511  20.189  0.00  0.00    +0.000 Cl
ATOM     10  C   UNL     1       1.543   9.938  18.285  0.00  0.00    +0.000 A 
ATOM     11  C   UNL     1       2.071   8.731  17.834  0.00  0.00    +0.000 A 
ATOM     12  C   UNL     1       2.210   7.601  18.687  0.00  0.00    +0.000 A 
ATOM     13  C   UNL     1       2.901   6.386  18.370  0.00  0.00    +0.000 A 
ATOM     14  C   UNL     1       2.796   5.272  19.253  0.00  0.00    +0.000 A 
ATOM     15  C   UNL     1       3.375   3.997  19.019  0.00  0.00    +0.000 A 
ENDROOT
BRANCH   1  17
ATOM     16  C   UNL     1       3.709   1.381  18.209  0.00  0.00    +0.000 C 
ATOM     17  O   UNL     1       3.829   1.770  19.573  0.00  0.00    +0.000 OA
ENDBRANCH   1  17
BRANCH  13  18
ATOM     18  N   UNL     1       3.706   6.240  17.198  0.00  0.00    +0.000 N 
ATOM     19  H   UNL     1       3.425   6.871  16.446  0.00  0.00    +0.000 HD
BRANCH  18  20
ATOM     20  C   UNL     1       5.096   5.980  17.132  0.00  0.00    +0.000 A 
ATOM     21  C   UNL     1       6.033   6.839  17.723  0.00  0.00    +0.000 A 
ATOM     22  C   UNL     1       7.390   6.716  17.428  0.00  0.00    +0.000 A 
ATOM     23  C   UNL     1       7.833   5.682  16.604  0.00  0.00    +0.000 A 
ATOM     24  C   UNL     1       6.926   4.745  16.108  0.00  0.00    +0.000 A 
ATOM     25  C   UNL     1       5.566   4.897  16.376  0.00  0.00    +0.000 A 
BRANCH  25  26
ATOM     26  O   UNL     1       4.646   4.028  15.850  0.00  0.00    +0.000 OA
ATOM     27  H   UNL     1       4.675   4.104  14.882  0.00  0.00    +0.000 HD
ENDBRANCH  25  26
ENDBRANCH  18  20
ENDBRANCH  13  18
TORSDOF 4
ENDMDL
