MODEL 1
REMARK VINA RESULT:      -9.0      0.000      0.000
REMARK  Name = 
REMARK  5 active torsions:
REMARK  status: ('A' for Active; 'I' for Inactive)
REMARK    1  A    between atoms: C_1  and  C_2
REMARK    2  A    between atoms: C_4  and  C_5
REMARK    3  A    between atoms: N_7  and  C_8
REMARK    4  A    between atoms: N_7  and  C_15
REMARK    5  A    between atoms: C_8  and  C_9
REMARK                            x       y       z     vdW  Elec       q    Type
REMARK                         _______ _______ _______ _____ _____    ______ ____
ROOT
ATOM      1  C   UNL     1       4.753   4.523  17.079  0.00  0.00    +0.000 C 
ATOM      2  O   UNL     1       4.245   3.562  16.489  0.00  0.00    +0.000 OA
ATOM      3  N   UNL     1       6.106   4.835  16.819  0.00  0.00    +0.000 N 
ENDROOT
BRANCH   1   7
ATOM      4  C   UNL     1       1.987   8.668  17.977  0.00  0.00    +0.000 C 
ATOM      5  C   UNL     1       2.469   7.292  18.322  0.00  0.00    +0.000 A 
ATOM      6  C   UNL     1       3.392   6.610  17.543  0.00  0.00    +0.000 A 
ATOM      7  C   UNL     1       3.819   5.337  17.947  0.00  0.00    +0.000 A 
ATOM      8  C   UNL     1       3.228   4.749  19.123  0.00  0.00    +0.000 A 
ATOM      9  C   UNL     1       3.463   3.445  19.651  0.00  0.00    +0.000 A 
ATOM     10  C   UNL     1       2.781   2.954  20.770  0.00  0.00    +0.000 A 
ATOM     11  C   UNL     1       1.867   3.757  21.417  0.00  0.00    +0.000 A 
ATOM     12  C   UNL     1       1.641   5.040  20.941  0.00  0.00    +0.000 A 
ATOM     13  C   UNL     1       2.290   5.539  19.820  0.00  0.00    +0.000 A 
ATOM     14  N   UNL     1       1.949   6.774  19.450  0.00  0.00    +0.000 NA
ENDBRANCH   1   7
BRANCH   3  15
ATOM     15  C   UNL     1       6.893   5.885  17.383  0.00  0.00    +0.000 A 
ATOM     16  C   UNL     1       6.908   7.168  16.832  0.00  0.00    +0.000 A 
ATOM     17  C   UNL     1       7.660   8.183  17.444  0.00  0.00    +0.000 A 
ATOM     18  C   UNL     1       8.385   7.916  18.597  0.00  0.00    +0.000 A 
ATOM     19  F   UNL     1       9.094   8.892  19.173  0.00  0.00    +0.000 F 
ATOM     20  C   UNL     1       8.381   6.656  19.162  0.00  0.00    +0.000 A 
ATOM     21  C   UNL     1       7.642   5.650  18.552  0.00  0.00    +0.000 A 
ENDBRANCH   3  15
BRANCH   3  22
ATOM     22  C   UNL     1       6.843   3.899  15.911  0.00  0.00    +0.000 C 
BRANCH  22  23
ATOM     23  C   UNL     1       6.776   4.277  14.443  0.00  0.00    +0.000 A 
ATOM     24  C   UNL     1       7.629   5.253  13.929  0.00  0.00    +0.000 A 
ATOM     25  C   UNL     1       7.806   5.323  12.552  0.00  0.00    +0.000 A 
ATOM     26  C   UNL     1       7.083   4.473  11.724  0.00  0.00    +0.000 A 
ATOM     27  C   UNL     1       6.176   3.605  12.306  0.00  0.00    +0.000 A 
ATOM     28  N   UNL     1       6.014   3.484  13.641  0.00  0.00    +0.000 NA
ENDBRANCH  22  23
ENDBRANCH   3  22
TORSDOF 4
ENDMDL
MODEL 2
REMARK VINA RESULT:      -7.9      2.478      6.438
REMARK  Name = 
REMARK  5 active torsions:
REMARK  status: ('A' for Active; 'I' for Inactive)
REMARK    1  A    between atoms: C_1  and  C_2
REMARK    2  A    between atoms: C_4  and  C_5
REMARK    3  A    between atoms: N_7  and  C_8
REMARK    4  A    between atoms: N_7  and  C_15
REMARK    5  A    between atoms: C_8  and  C_9
REMARK                            x       y       z     vdW  Elec       q    Type
REMARK                         _______ _______ _______ _____ _____    ______ ____
ROOT
ATOM      1  C   UNL     1       5.003   4.956  19.197  0.00  0.00    +0.000 C 
ATOM      2  O   UNL     1       5.468   3.918  19.684  0.00  0.00    +0.000 OA
ATOM      3  N   UNL     1       3.785   5.455  19.712  0.00  0.00    +0.000 N 
ENDROOT
BRANCH   1   7
ATOM      4  C   UNL     1       8.357   8.496  17.835  0.00  0.00    +0.000 C 
ATOM      5  C   UNL     1       7.499   7.300  17.553  0.00  0.00    +0.000 A 
ATOM      6  C   UNL     1       6.658   6.746  18.508  0.00  0.00    +0.000 A 
ATOM      7  C   UNL     1       5.862   5.645  18.161  0.00  0.00    +0.000 A 
ATOM      8  C   UNL     1       5.997   5.082  16.841  0.00  0.00    +0.000 A 
ATOM      9  C   UNL     1       5.343   3.924  16.323  0.00  0.00    +0.000 A 
ATOM     10  C   UNL     1       5.601   3.428  15.041  0.00  0.00    +0.000 A 
ATOM     11  C   UNL     1       6.492   4.087  14.221  0.00  0.00    +0.000 A 
ATOM     12  C   UNL     1       7.119   5.232  14.691  0.00  0.00    +0.000 A 
ATOM     13  C   UNL     1       6.896   5.728  15.967  0.00  0.00    +0.000 A 
ATOM     14  N   UNL     1       7.595   6.813  16.302  0.00  0.00    +0.000 NA
ENDBRANCH   1   7
BRANCH   3  15
ATOM     15  C   UNL     1       3.067   6.620  19.304  0.00  0.00    +0.000 A 
ATOM     16  C   UNL     1       3.130   7.100  17.995  0.00  0.00    +0.000 A 
ATOM     17  C   UNL     1       2.373   8.223  17.625  0.00  0.00    +0.000 A 
ATOM     18  C   UNL     1       1.558   8.853  18.556  0.00  0.00    +0.000 A 
ATOM     19  F   UNL     1       0.839   9.919  18.190  0.00  0.00    +0.000 F 
ATOM     20  C   UNL     1       1.477   8.392  19.854  0.00  0.00    +0.000 A 
ATOM     21  C   UNL     1       2.231   7.285  20.222  0.00  0.00    +0.000 A 
ENDBRANCH   3  15
BRANCH   3  22
ATOM     22  C   UNL     1       3.107   4.615  20.750  0.00  0.00    +0.000 C 
BRANCH  22  23
ATOM     23  C   UNL     1       2.199   3.540  20.183  0.00  0.00    +0.000 A 
ATOM     24  C   UNL     1       0.843   3.797  19.985  0.00  0.00    +0.000 A 
ATOM     25  C   UNL     1       0.121   2.956  19.147  0.00  0.00    +0.000 A 
ATOM     26  C   UNL     1       0.745   1.847  18.586  0.00  0.00    +0.000 A 
ATOM     27  C   UNL     1       2.066   1.601  18.918  0.00  0.00    +0.000 A 
ATOM     28  N   UNL     1       2.804   2.423  19.693  0.00  0.00    +0.000 NA
ENDBRANCH  22  23
ENDBRANCH   3  22
TORSDOF 4
ENDMDL
MODEL 3
REMARK VINA RESULT:      -7.5      2.026      6.779
REMARK  Name = 
REMARK  5 active torsions:
REMARK  status: ('A' for Active; 'I' for Inactive)
REMARK    1  A    between atoms: C_1  and  C_2
REMARK    2  A    between atoms: C_4  and  C_5
REMARK    3  A    between atoms: N_7  and  C_8
REMARK    4  A    between atoms: N_7  and  C_15
REMARK    5  A    between atoms: C_8  and  C_9
REMARK                            x       y       z     vdW  Elec       q    Type
REMARK                         _______ _______ _______ _____ _____    ______ ____
ROOT
ATOM      1  C   UNL     1       3.998   4.094  17.065  0.00  0.00    +0.000 C 
ATOM      2  O   UNL     1       4.030   2.882  16.819  0.00  0.00    +0.000 OA
ATOM      3  N   UNL     1       2.887   4.609  17.773  0.00  0.00    +0.000 N 
ENDROOT
BRANCH   1   7
ATOM      4  C   UNL     1       7.859   7.175  18.176  0.00  0.00    +0.000 C 
ATOM      5  C   UNL     1       7.084   6.301  17.237  0.00  0.00    +0.000 A 
ATOM      6  C   UNL     1       5.913   5.659  17.614  0.00  0.00    +0.000 A 
ATOM      7  C   UNL     1       5.226   4.883  16.670  0.00  0.00    +0.000 A 
ATOM      8  C   UNL     1       5.799   4.721  15.357  0.00  0.00    +0.000 A 
ATOM      9  C   UNL     1       5.303   3.915  14.290  0.00  0.00    +0.000 A 
ATOM     10  C   UNL     1       5.980   3.782  13.073  0.00  0.00    +0.000 A 
ATOM     11  C   UNL     1       7.156   4.473  12.868  0.00  0.00    +0.000 A 
ATOM     12  C   UNL     1       7.644   5.286  13.881  0.00  0.00    +0.000 A 
ATOM     13  C   UNL     1       7.001   5.415  15.103  0.00  0.00    +0.000 A 
ATOM     14  N   UNL     1       7.601   6.198  15.999  0.00  0.00    +0.000 NA
ENDBRANCH   1   7
BRANCH   3  15
ATOM     15  C   UNL     1       2.638   5.961  18.159  0.00  0.00    +0.000 A 
ATOM     16  C   UNL     1       2.593   6.995  17.223  0.00  0.00    +0.000 A 
ATOM     17  C   UNL     1       2.301   8.304  17.639  0.00  0.00    +0.000 A 
ATOM     18  C   UNL     1       2.051   8.570  18.978  0.00  0.00    +0.000 A 
ATOM     19  F   UNL     1       1.770   9.820  19.361  0.00  0.00    +0.000 F 
ATOM     20  C   UNL     1       2.085   7.562  19.920  0.00  0.00    +0.000 A 
ATOM     21  C   UNL     1       2.382   6.269  19.509  0.00  0.00    +0.000 A 
ENDBRANCH   3  15
BRANCH   3  22
ATOM     22  C   UNL     1       1.786   3.642  18.078  0.00  0.00    +0.000 C 
BRANCH  22  23
ATOM     23  C   UNL     1       1.884   3.003  19.451  0.00  0.00    +0.000 A 
ATOM     24  C   UNL     1       3.100   2.494  19.904  0.00  0.00    +0.000 A 
ATOM     25  C   UNL     1       3.256   2.254  21.264  0.00  0.00    +0.000 A 
ATOM     26  C   UNL     1       2.183   2.459  22.123  0.00  0.00    +0.000 A 
ATOM     27  C   UNL     1       0.976   2.862  21.580  0.00  0.00    +0.000 A 
ATOM     28  N   UNL     1       0.806   3.145  20.271  0.00  0.00    +0.000 NA
ENDBRANCH  22  23
ENDBRANCH   3  22
TORSDOF 4
ENDMDL
MODEL 4
REMARK VINA RESULT:      -7.4      3.440      6.191
REMARK  Name = 
REMARK  5 active torsions:
REMARK  status: ('A' for Active; 'I' for Inactive)
REMARK    1  A    between atoms: C_1  and  C_2
REMARK    2  A    between atoms: C_4  and  C_5
REMARK    3  A    between atoms: N_7  and  C_8
REMARK    4  A    between atoms: N_7  and  C_15
REMARK    5  A    between atoms: C_8  and  C_9
REMARK                            x       y       z     vdW  Elec       q    Type
REMARK                         _______ _______ _______ _____ _____    ______ ____
ROOT
ATOM      1  C   UNL     1       2.423   7.840  18.328  0.00  0.00    +0.000 C 
ATOM      2  O   UNL     1       2.958   8.594  17.507  0.00  0.00    +0.000 OA
ATOM      3  N   UNL     1       2.763   6.469  18.306  0.00  0.00    +0.000 N 
ENDROOT
BRANCH   1   7
ATOM      4  C   UNL     1       1.374   9.245  23.078  0.00  0.00    +0.000 C 
ATOM      5  C   UNL     1       1.084   9.209  21.608  0.00  0.00    +0.000 A 
ATOM      6  C   UNL     1       1.883   8.518  20.709  0.00  0.00    +0.000 A 
ATOM      7  C   UNL     1       1.529   8.503  19.353  0.00  0.00    +0.000 A 
ATOM      8  C   UNL     1       0.384   9.268  18.927  0.00  0.00    +0.000 A 
ATOM      9  C   UNL     1      -0.090   9.448  17.594  0.00  0.00    +0.000 A 
ATOM     10  C   UNL     1      -1.181  10.270  17.290  0.00  0.00    +0.000 A 
ATOM     11  C   UNL     1      -1.855  10.913  18.307  0.00  0.00    +0.000 A 
ATOM     12  C   UNL     1      -1.431  10.731  19.615  0.00  0.00    +0.000 A 
ATOM     13  C   UNL     1      -0.338   9.939  19.937  0.00  0.00    +0.000 A 
ATOM     14  N   UNL     1      -0.017   9.884  21.230  0.00  0.00    +0.000 NA
ENDBRANCH   1   7
BRANCH   3  15
ATOM     15  C   UNL     1       2.271   5.424  19.147  0.00  0.00    +0.000 A 
ATOM     16  C   UNL     1       1.475   4.393  18.647  0.00  0.00    +0.000 A 
ATOM     17  C   UNL     1       1.050   3.362  19.500  0.00  0.00    +0.000 A 
ATOM     18  C   UNL     1       1.423   3.362  20.836  0.00  0.00    +0.000 A 
ATOM     19  F   UNL     1       1.015   2.373  21.637  0.00  0.00    +0.000 F 
ATOM     20  C   UNL     1       2.215   4.370  21.351  0.00  0.00    +0.000 A 
ATOM     21  C   UNL     1       2.629   5.393  20.509  0.00  0.00    +0.000 A 
ENDBRANCH   3  15
BRANCH   3  22
ATOM     22  C   UNL     1       3.682   6.028  17.209  0.00  0.00    +0.000 C 
BRANCH  22  23
ATOM     23  C   UNL     1       5.146   5.981  17.607  0.00  0.00    +0.000 A 
ATOM     24  C   UNL     1       6.066   6.838  17.005  0.00  0.00    +0.000 A 
ATOM     25  C   UNL     1       7.295   7.035  17.623  0.00  0.00    +0.000 A 
ATOM     26  C   UNL     1       7.603   6.325  18.778  0.00  0.00    +0.000 A 
ATOM     27  C   UNL     1       6.677   5.412  19.253  0.00  0.00    +0.000 A 
ATOM     28  N   UNL     1       5.459   5.232  18.700  0.00  0.00    +0.000 NA
ENDBRANCH  22  23
ENDBRANCH   3  22
TORSDOF 4
ENDMDL
MODEL 5
REMARK VINA RESULT:      -7.1      3.375      6.115
REMARK  Name = 
REMARK  5 active torsions:
REMARK  status: ('A' for Active; 'I' for Inactive)
REMARK    1  A    between atoms: C_1  and  C_2
REMARK    2  A    between atoms: C_4  and  C_5
REMARK    3  A    between atoms: N_7  and  C_8
REMARK    4  A    between atoms: N_7  and  C_15
REMARK    5  A    between atoms: C_8  and  C_9
REMARK                            x       y       z     vdW  Elec       q    Type
REMARK                         _______ _______ _______ _____ _____    ______ ____
ROOT
ATOM      1  C   UNL     1       2.393   8.467  18.154  0.00  0.00    +0.000 C 
ATOM      2  O   UNL     1       2.890   9.371  17.471  0.00  0.00    +0.000 OA
ATOM      3  N   UNL     1       2.867   7.148  17.974  0.00  0.00    +0.000 N 
ENDROOT
BRANCH   1   7
ATOM      4  C   UNL     1       1.068   9.305  22.968  0.00  0.00    +0.000 C 
ATOM      5  C   UNL     1       0.810   9.345  21.493  0.00  0.00    +0.000 A 
ATOM      6  C   UNL     1       1.719   8.858  20.565  0.00  0.00    +0.000 A 
ATOM      7  C   UNL     1       1.393   8.902  19.202  0.00  0.00    +0.000 A 
ATOM      8  C   UNL     1       0.151   9.518  18.806  0.00  0.00    +0.000 A 
ATOM      9  C   UNL     1      -0.324   9.733  17.478  0.00  0.00    +0.000 A 
ATOM     10  C   UNL     1      -1.522  10.403  17.209  0.00  0.00    +0.000 A 
ATOM     11  C   UNL     1      -2.302  10.851  18.254  0.00  0.00    +0.000 A 
ATOM     12  C   UNL     1      -1.875  10.629  19.555  0.00  0.00    +0.000 A 
ATOM     13  C   UNL     1      -0.680   9.987  19.844  0.00  0.00    +0.000 A 
ATOM     14  N   UNL     1      -0.375   9.876  21.138  0.00  0.00    +0.000 NA
ENDBRANCH   1   7
BRANCH   3  15
ATOM     15  C   UNL     1       2.441   5.959  18.642  0.00  0.00    +0.000 A 
ATOM     16  C   UNL     1       2.634   5.779  20.012  0.00  0.00    +0.000 A 
ATOM     17  C   UNL     1       2.160   4.615  20.638  0.00  0.00    +0.000 A 
ATOM     18  C   UNL     1       1.496   3.646  19.898  0.00  0.00    +0.000 A 
ATOM     19  F   UNL     1       1.046   2.544  20.506  0.00  0.00    +0.000 F 
ATOM     20  C   UNL     1       1.290   3.806  18.543  0.00  0.00    +0.000 A 
ATOM     21  C   UNL     1       1.765   4.955  17.923  0.00  0.00    +0.000 A 
ENDBRANCH   3  15
BRANCH   3  22
ATOM     22  C   UNL     1       3.874   6.945  16.885  0.00  0.00    +0.000 C 
BRANCH  22  23
ATOM     23  C   UNL     1       5.001   5.997  17.250  0.00  0.00    +0.000 A 
ATOM     24  C   UNL     1       5.245   4.864  16.474  0.00  0.00    +0.000 A 
ATOM     25  C   UNL     1       6.472   4.224  16.599  0.00  0.00    +0.000 A 
ATOM     26  C   UNL     1       7.391   4.682  17.536  0.00  0.00    +0.000 A 
ATOM     27  C   UNL     1       7.030   5.746  18.343  0.00  0.00    +0.000 A 
ATOM     28  N   UNL     1       5.865   6.415  18.215  0.00  0.00    +0.000 NA
ENDBRANCH  22  23
ENDBRANCH   3  22
TORSDOF 4
ENDMDL
MODEL 6
REMARK VINA RESULT:      -7.1      2.778      7.388
REMARK  Name = 
REMARK  5 active torsions:
REMARK  status: ('A' for Active; 'I' for Inactive)
REMARK    1  A    between atoms: C_1  and  C_2
REMARK    2  A    between atoms: C_4  and  C_5
REMARK    3  A    between atoms: N_7  and  C_8
REMARK    4  A    between atoms: N_7  and  C_15
REMARK    5  A    between atoms: C_8  and  C_9
REMARK                            x       y       z     vdW  Elec       q    Type
REMARK                         _______ _______ _______ _____ _____    ______ ____
ROOT
ATOM      1  C   UNL     1       3.993   7.199  17.548  0.00  0.00    +0.000 C 
ATOM      2  O   UNL     1       4.022   8.330  17.047  0.00  0.00    +0.000 OA
ATOM      3  N   UNL     1       2.754   6.697  18.007  0.00  0.00    +0.000 N 
ENDROOT
BRANCH   1   7
ATOM      4  C   UNL     1       8.212   5.472  19.750  0.00  0.00    +0.000 C 
ATOM      5  C   UNL     1       7.259   5.569  18.598  0.00  0.00    +0.000 A 
ATOM      6  C   UNL     1       6.119   6.359  18.640  0.00  0.00    +0.000 A 
ATOM      7  C   UNL     1       5.291   6.424  17.511  0.00  0.00    +0.000 A 
ATOM      8  C   UNL     1       5.615   5.609  16.367  0.00  0.00    +0.000 A 
ATOM      9  C   UNL     1       4.864   5.470  15.162  0.00  0.00    +0.000 A 
ATOM     10  C   UNL     1       5.242   4.595  14.138  0.00  0.00    +0.000 A 
ATOM     11  C   UNL     1       6.398   3.855  14.267  0.00  0.00    +0.000 A 
ATOM     12  C   UNL     1       7.162   3.993  15.417  0.00  0.00    +0.000 A 
ATOM     13  C   UNL     1       6.793   4.837  16.454  0.00  0.00    +0.000 A 
ATOM     14  N   UNL     1       7.598   4.843  17.517  0.00  0.00    +0.000 NA
ENDBRANCH   1   7
BRANCH   3  15
ATOM     15  C   UNL     1       2.486   5.434  18.617  0.00  0.00    +0.000 A 
ATOM     16  C   UNL     1       2.831   5.172  19.944  0.00  0.00    +0.000 A 
ATOM     17  C   UNL     1       2.509   3.932  20.518  0.00  0.00    +0.000 A 
ATOM     18  C   UNL     1       1.843   2.970  19.773  0.00  0.00    +0.000 A 
ATOM     19  F   UNL     1       1.538   1.795  20.333  0.00  0.00    +0.000 F 
ATOM     20  C   UNL     1       1.487   3.209  18.461  0.00  0.00    +0.000 A 
ATOM     21  C   UNL     1       1.813   4.433  17.891  0.00  0.00    +0.000 A 
ENDBRANCH   3  15
BRANCH   3  22
ATOM     22  C   UNL     1       1.588   7.634  17.934  0.00  0.00    +0.000 C 
BRANCH  22  23
ATOM     23  C   UNL     1       1.540   8.653  19.058  0.00  0.00    +0.000 A 
ATOM     24  C   UNL     1       1.304   9.998  18.777  0.00  0.00    +0.000 A 
ATOM     25  C   UNL     1       0.907  10.835  19.813  0.00  0.00    +0.000 A 
ATOM     26  C   UNL     1       0.821  10.331  21.105  0.00  0.00    +0.000 A 
ATOM     27  C   UNL     1       1.175   9.011  21.320  0.00  0.00    +0.000 A 
ATOM     28  N   UNL     1       1.523   8.163  20.328  0.00  0.00    +0.000 NA
ENDBRANCH  22  23
ENDBRANCH   3  22
TORSDOF 4
ENDMDL
MODEL 7
REMARK VINA RESULT:      -7.0      0.703      2.657
REMARK  Name = 
REMARK  5 active torsions:
REMARK  status: ('A' for Active; 'I' for Inactive)
REMARK    1  A    between atoms: C_1  and  C_2
REMARK    2  A    between atoms: C_4  and  C_5
REMARK    3  A    between atoms: N_7  and  C_8
REMARK    4  A    between atoms: N_7  and  C_15
REMARK    5  A    between atoms: C_8  and  C_9
REMARK                            x       y       z     vdW  Elec       q    Type
REMARK                         _______ _______ _______ _____ _____    ______ ____
ROOT
ATOM      1  C   UNL     1       4.744   3.847  17.304  0.00  0.00    +0.000 C 
ATOM      2  O   UNL     1       4.293   2.879  16.681  0.00  0.00    +0.000 OA
ATOM      3  N   UNL     1       6.024   4.336  16.956  0.00  0.00    +0.000 N 
ENDROOT
BRANCH   1   7
ATOM      4  C   UNL     1       2.236   3.785  21.702  0.00  0.00    +0.000 C 
ATOM      5  C   UNL     1       2.676   4.448  20.433  0.00  0.00    +0.000 A 
ATOM      6  C   UNL     1       3.465   3.804  19.491  0.00  0.00    +0.000 A 
ATOM      7  C   UNL     1       3.810   4.480  18.312  0.00  0.00    +0.000 A 
ATOM      8  C   UNL     1       3.392   5.850  18.151  0.00  0.00    +0.000 A 
ATOM      9  C   UNL     1       3.706   6.730  17.073  0.00  0.00    +0.000 A 
ATOM     10  C   UNL     1       3.296   8.068  17.053  0.00  0.00    +0.000 A 
ATOM     11  C   UNL     1       2.533   8.563  18.089  0.00  0.00    +0.000 A 
ATOM     12  C   UNL     1       2.191   7.719  19.136  0.00  0.00    +0.000 A 
ATOM     13  C   UNL     1       2.605   6.396  19.187  0.00  0.00    +0.000 A 
ATOM     14  N   UNL     1       2.237   5.710  20.269  0.00  0.00    +0.000 NA
ENDBRANCH   1   7
BRANCH   3  15
ATOM     15  C   UNL     1       6.738   5.429  17.536  0.00  0.00    +0.000 A 
ATOM     16  C   UNL     1       7.439   5.293  18.735  0.00  0.00    +0.000 A 
ATOM     17  C   UNL     1       8.165   6.380  19.248  0.00  0.00    +0.000 A 
ATOM     18  C   UNL     1       8.192   7.586  18.563  0.00  0.00    +0.000 A 
ATOM     19  F   UNL     1       8.890   8.612  19.059  0.00  0.00    +0.000 F 
ATOM     20  C   UNL     1       7.510   7.741  17.373  0.00  0.00    +0.000 A 
ATOM     21  C   UNL     1       6.786   6.668  16.870  0.00  0.00    +0.000 A 
ENDBRANCH   3  15
BRANCH   3  22
ATOM     22  C   UNL     1       6.771   3.563  15.915  0.00  0.00    +0.000 C 
BRANCH  22  23
ATOM     23  C   UNL     1       6.631   4.118  14.509  0.00  0.00    +0.000 A 
ATOM     24  C   UNL     1       7.550   5.047  14.026  0.00  0.00    +0.000 A 
ATOM     25  C   UNL     1       7.623   5.261  12.655  0.00  0.00    +0.000 A 
ATOM     26  C   UNL     1       6.737   4.600  11.811  0.00  0.00    +0.000 A 
ATOM     27  C   UNL     1       5.783   3.775  12.378  0.00  0.00    +0.000 A 
ATOM     28  N   UNL     1       5.716   3.514  13.701  0.00  0.00    +0.000 NA
ENDBRANCH  22  23
ENDBRANCH   3  22
TORSDOF 4
ENDMDL
MODEL 8
REMARK VINA RESULT:      -6.8      8.551     10.909
REMARK  Name = 
REMARK  5 active torsions:
REMARK  status: ('A' for Active; 'I' for Inactive)
REMARK    1  A    between atoms: C_1  and  C_2
REMARK    2  A    between atoms: C_4  and  C_5
REMARK    3  A    between atoms: N_7  and  C_8
REMARK    4  A    between atoms: N_7  and  C_15
REMARK    5  A    between atoms: C_8  and  C_9
REMARK                            x       y       z     vdW  Elec       q    Type
REMARK                         _______ _______ _______ _____ _____    ______ ____
ROOT
ATOM      1  C   UNL     1      -2.048  13.449  20.760  0.00  0.00    +0.000 C 
ATOM      2  O   UNL     1      -2.132  14.682  20.786  0.00  0.00    +0.000 OA
ATOM      3  N   UNL     1      -0.889  12.841  21.295  0.00  0.00    +0.000 N 
ENDROOT
BRANCH   1   7
ATOM      4  C   UNL     1      -6.937  12.171  21.070  0.00  0.00    +0.000 C 
ATOM      5  C   UNL     1      -5.604  12.167  20.387  0.00  0.00    +0.000 A 
ATOM      6  C   UNL     1      -4.487  12.785  20.931  0.00  0.00    +0.000 A 
ATOM      7  C   UNL     1      -3.265  12.712  20.248  0.00  0.00    +0.000 A 
ATOM      8  C   UNL     1      -3.227  12.055  18.965  0.00  0.00    +0.000 A 
ATOM      9  C   UNL     1      -2.112  11.944  18.082  0.00  0.00    +0.000 A 
ATOM     10  C   UNL     1      -2.208  11.337  16.825  0.00  0.00    +0.000 A 
ATOM     11  C   UNL     1      -3.408  10.791  16.422  0.00  0.00    +0.000 A 
ATOM     12  C   UNL     1      -4.500  10.861  17.274  0.00  0.00    +0.000 A 
ATOM     13  C   UNL     1      -4.433  11.479  18.515  0.00  0.00    +0.000 A 
ATOM     14  N   UNL     1      -5.568  11.507  19.215  0.00  0.00    +0.000 NA
ENDBRANCH   1   7
BRANCH   3  15
ATOM     15  C   UNL     1      -0.577  11.449  21.367  0.00  0.00    +0.000 A 
ATOM     16  C   UNL     1       0.001  10.770  20.293  0.00  0.00    +0.000 A 
ATOM     17  C   UNL     1       0.333   9.412  20.421  0.00  0.00    +0.000 A 
ATOM     18  C   UNL     1       0.094   8.745  21.614  0.00  0.00    +0.000 A 
ATOM     19  F   UNL     1       0.419   7.453  21.724  0.00  0.00    +0.000 F 
ATOM     20  C   UNL     1      -0.472   9.397  22.691  0.00  0.00    +0.000 A 
ATOM     21  C   UNL     1      -0.807  10.739  22.561  0.00  0.00    +0.000 A 
ENDBRANCH   3  15
BRANCH   3  22
ATOM     22  C   UNL     1       0.192  13.765  21.763  0.00  0.00    +0.000 C 
BRANCH  22  23
ATOM     23  C   UNL     1       1.373  13.868  20.818  0.00  0.00    +0.000 A 
ATOM     24  C   UNL     1       1.175  14.198  19.478  0.00  0.00    +0.000 A 
ATOM     25  C   UNL     1       2.262  14.638  18.733  0.00  0.00    +0.000 A 
ATOM     26  C   UNL     1       3.524  14.671  19.316  0.00  0.00    +0.000 A 
ATOM     27  C   UNL     1       3.656  14.224  20.619  0.00  0.00    +0.000 A 
ATOM     28  N   UNL     1       2.613  13.833  21.381  0.00  0.00    +0.000 NA
ENDBRANCH  22  23
ENDBRANCH   3  22
TORSDOF 4
ENDMDL
MODEL 9
REMARK VINA RESULT:      -6.7      7.953     10.541
REMARK  Name = 
REMARK  5 active torsions:
REMARK  status: ('A' for Active; 'I' for Inactive)
REMARK    1  A    between atoms: C_1  and  C_2
REMARK    2  A    between atoms: C_4  and  C_5
REMARK    3  A    between atoms: N_7  and  C_8
REMARK    4  A    between atoms: N_7  and  C_15
REMARK    5  A    between atoms: C_8  and  C_9
REMARK                            x       y       z     vdW  Elec       q    Type
REMARK                         _______ _______ _______ _____ _____    ______ ____
ROOT
ATOM      1  C   UNL     1      -1.318  13.236  19.925  0.00  0.00    +0.000 C 
ATOM      2  O   UNL     1      -1.433  14.466  19.978  0.00  0.00    +0.000 OA
ATOM      3  N   UNL     1      -0.334  12.615  20.728  0.00  0.00    +0.000 N 
ENDROOT
BRANCH   1   7
ATOM      4  C   UNL     1      -2.574  10.451  15.887  0.00  0.00    +0.000 C 
ATOM      5  C   UNL     1      -2.896  11.140  17.178  0.00  0.00    +0.000 A 
ATOM      6  C   UNL     1      -1.952  11.868  17.889  0.00  0.00    +0.000 A 
ATOM      7  C   UNL     1      -2.337  12.511  19.073  0.00  0.00    +0.000 A 
ATOM      8  C   UNL     1      -3.686  12.336  19.551  0.00  0.00    +0.000 A 
ATOM      9  C   UNL     1      -4.246  12.834  20.764  0.00  0.00    +0.000 A 
ATOM     10  C   UNL     1      -5.557  12.546  21.159  0.00  0.00    +0.000 A 
ATOM     11  C   UNL     1      -6.362  11.779  20.343  0.00  0.00    +0.000 A 
ATOM     12  C   UNL     1      -5.849  11.306  19.145  0.00  0.00    +0.000 A 
ATOM     13  C   UNL     1      -4.545  11.561  18.744  0.00  0.00    +0.000 A 
ATOM     14  N   UNL     1      -4.171  11.012  17.588  0.00  0.00    +0.000 NA
ENDBRANCH   1   7
BRANCH   3  15
ATOM     15  C   UNL     1      -0.023  11.225  20.824  0.00  0.00    +0.000 A 
ATOM     16  C   UNL     1       0.720  10.569  19.841  0.00  0.00    +0.000 A 
ATOM     17  C   UNL     1       1.042   9.212  19.997  0.00  0.00    +0.000 A 
ATOM     18  C   UNL     1       0.628   8.522  21.128  0.00  0.00    +0.000 A 
ATOM     19  F   UNL     1       0.945   7.230  21.266  0.00  0.00    +0.000 F 
ATOM     20  C   UNL     1      -0.103   9.151  22.115  0.00  0.00    +0.000 A 
ATOM     21  C   UNL     1      -0.428  10.493  21.957  0.00  0.00    +0.000 A 
ENDBRANCH   3  15
BRANCH   3  22
ATOM     22  C   UNL     1       0.560  13.528  21.508  0.00  0.00    +0.000 C 
BRANCH  22  23
ATOM     23  C   UNL     1       1.914  13.767  20.867  0.00  0.00    +0.000 A 
ATOM     24  C   UNL     1       2.007  14.046  19.504  0.00  0.00    +0.000 A 
ATOM     25  C   UNL     1       3.180  14.611  19.018  0.00  0.00    +0.000 A 
ATOM     26  C   UNL     1       4.249  14.818  19.882  0.00  0.00    +0.000 A 
ATOM     27  C   UNL     1       4.116  14.415  21.200  0.00  0.00    +0.000 A 
ATOM     28  N   UNL     1       2.975  13.905  21.710  0.00  0.00    +0.000 NA
ENDBRANCH  22  23
ENDBRANCH   3  22
TORSDOF 4
ENDMDL
