MODEL 1
REMARK VINA RESULT:      -7.1      0.000      0.000
REMARK  Name = 
REMARK  2 active torsions:
REMARK  status: ('A' for Active; 'I' for Inactive)
REMARK    1  A    between atoms: C_2  and  C_3
REMARK    2  A    between atoms: C_3  and  N_4
REMARK                            x       y       z     vdW  Elec       q    Type
REMARK                         _______ _______ _______ _____ _____    ______ ____
ROOT
ATOM      1  N   UNL     1       5.295   3.808  17.362  0.00  0.00    +0.000 N 
ATOM      2  C   UNL     1       5.605   4.463  18.554  0.00  0.00    +0.000 C 
ATOM      3  O   UNL     1       5.392   3.959  19.662  0.00  0.00    +0.000 OA
ATOM      4  C   UNL     1       6.022   5.907  18.456  0.00  0.00    +0.000 C 
ATOM      5  S   UNL     1       7.418   6.153  17.374  0.00  0.00    +0.000 S 
ATOM      6  C   UNL     1       6.816   5.236  15.981  0.00  0.00    +0.000 A 
ATOM      7  N   UNL     1       7.378   5.624  14.808  0.00  0.00    +0.000 NA
ATOM      8  C   UNL     1       7.069   4.927  13.702  0.00  0.00    +0.000 A 
ATOM      9  C   UNL     1       6.234   3.832  13.718  0.00  0.00    +0.000 A 
ATOM     10  C   UNL     1       5.653   3.454  14.927  0.00  0.00    +0.000 A 
ATOM     11  C   UNL     1       5.897   4.178  16.103  0.00  0.00    +0.000 A 
ENDROOT
BRANCH   1  12
ATOM     12  C   UNL     1       4.369   2.665  17.448  0.00  0.00    +0.000 C 
BRANCH  12  14
ATOM     13  O   UNL     1       2.286   3.642  16.761  0.00  0.00    +0.000 OA
ATOM     14  C   UNL     1       2.893   3.064  17.669  0.00  0.00    +0.000 C 
ATOM     15  N   UNL     1       2.271   2.802  18.876  0.00  0.00    +0.000 N 
ATOM     16  C   UNL     1       0.864   3.176  19.061  0.00  0.00    +0.000 C 
ATOM     17  C   UNL     1       0.667   3.874  20.411  0.00  0.00    +0.000 C 
ATOM     18  O   UNL     1       1.157   3.062  21.491  0.00  0.00    +0.000 OA
ATOM     19  C   UNL     1       2.553   2.770  21.320  0.00  0.00    +0.000 C 
ATOM     20  C   UNL     1       2.804   2.030  20.000  0.00  0.00    +0.000 C 
ENDBRANCH  12  14
ENDBRANCH   1  12
TORSDOF 2
ENDMDL
MODEL 2
REMARK VINA RESULT:      -6.1      2.970      6.321
REMARK  Name = 
REMARK  2 active torsions:
REMARK  status: ('A' for Active; 'I' for Inactive)
REMARK    1  A    between atoms: C_2  and  C_3
REMARK    2  A    between atoms: C_3  and  N_4
REMARK                            x       y       z     vdW  Elec       q    Type
REMARK                         _______ _______ _______ _____ _____    ______ ____
ROOT
ATOM      1  N   UNL     1       3.100   3.712  18.442  0.00  0.00    +0.000 N 
ATOM      2  C   UNL     1       2.695   2.401  18.691  0.00  0.00    +0.000 C 
ATOM      3  O   UNL     1       3.372   1.422  18.357  0.00  0.00    +0.000 OA
ATOM      4  C   UNL     1       1.291   2.201  19.200  0.00  0.00    +0.000 C 
ATOM      5  S   UNL     1       0.959   3.118  20.692  0.00  0.00    +0.000 S 
ATOM      6  C   UNL     1       1.565   4.695  20.153  0.00  0.00    +0.000 A 
ATOM      7  N   UNL     1       1.016   5.734  20.833  0.00  0.00    +0.000 NA
ATOM      8  C   UNL     1       1.478   6.968  20.576  0.00  0.00    +0.000 A 
ATOM      9  C   UNL     1       2.494   7.214  19.678  0.00  0.00    +0.000 A 
ATOM     10  C   UNL     1       3.038   6.139  18.977  0.00  0.00    +0.000 A 
ATOM     11  C   UNL     1       2.557   4.835  19.166  0.00  0.00    +0.000 A 
ENDROOT
BRANCH   1  12
ATOM     12  C   UNL     1       4.169   3.903  17.444  0.00  0.00    +0.000 C 
BRANCH  12  14
ATOM     13  O   UNL     1       5.938   3.501  19.019  0.00  0.00    +0.000 OA
ATOM     14  C   UNL     1       5.560   4.178  18.055  0.00  0.00    +0.000 C 
ATOM     15  N   UNL     1       6.360   5.186  17.548  0.00  0.00    +0.000 N 
ATOM     16  C   UNL     1       7.684   5.423  18.134  0.00  0.00    +0.000 C 
ATOM     17  C   UNL     1       7.908   6.920  18.370  0.00  0.00    +0.000 C 
ATOM     18  O   UNL     1       7.710   7.671  17.161  0.00  0.00    +0.000 OA
ATOM     19  C   UNL     1       6.381   7.476  16.649  0.00  0.00    +0.000 C 
ATOM     20  C   UNL     1       6.117   5.995  16.352  0.00  0.00    +0.000 C 
ENDBRANCH  12  14
ENDBRANCH   1  12
TORSDOF 2
ENDMDL
MODEL 3
REMARK VINA RESULT:      -6.1      2.944      6.223
REMARK  Name = 
REMARK  2 active torsions:
REMARK  status: ('A' for Active; 'I' for Inactive)
REMARK    1  A    between atoms: C_2  and  C_3
REMARK    2  A    between atoms: C_3  and  N_4
REMARK                            x       y       z     vdW  Elec       q    Type
REMARK                         _______ _______ _______ _____ _____    ______ ____
ROOT
ATOM      1  N   UNL     1       4.134   3.900  19.445  0.00  0.00    +0.000 N 
ATOM      2  C   UNL     1       4.046   2.661  20.081  0.00  0.00    +0.000 C 
ATOM      3  O   UNL     1       4.985   1.858  20.099  0.00  0.00    +0.000 OA
ATOM      4  C   UNL     1       2.688   2.237  20.574  0.00  0.00    +0.000 C 
ATOM      5  S   UNL     1       1.954   3.422  21.687  0.00  0.00    +0.000 S 
ATOM      6  C   UNL     1       2.201   4.874  20.700  0.00  0.00    +0.000 A 
ATOM      7  N   UNL     1       1.328   5.870  20.995  0.00  0.00    +0.000 NA
ATOM      8  C   UNL     1       1.491   7.052  20.378  0.00  0.00    +0.000 A 
ATOM      9  C   UNL     1       2.513   7.296  19.487  0.00  0.00    +0.000 A 
ATOM     10  C   UNL     1       3.393   6.259  19.183  0.00  0.00    +0.000 A 
ATOM     11  C   UNL     1       3.239   4.988  19.757  0.00  0.00    +0.000 A 
ENDROOT
BRANCH   1  12
ATOM     12  C   UNL     1       5.233   4.079  18.479  0.00  0.00    +0.000 C 
BRANCH  12  14
ATOM     13  O   UNL     1       3.855   3.169  16.736  0.00  0.00    +0.000 OA
ATOM     14  C   UNL     1       4.810   3.907  17.004  0.00  0.00    +0.000 C 
ATOM     15  N   UNL     1       5.508   4.549  15.997  0.00  0.00    +0.000 N 
ATOM     16  C   UNL     1       5.082   4.383  14.603  0.00  0.00    +0.000 C 
ATOM     17  C   UNL     1       6.288   4.101  13.702  0.00  0.00    +0.000 C 
ATOM     18  O   UNL     1       7.291   5.122  13.843  0.00  0.00    +0.000 OA
ATOM     19  C   UNL     1       7.741   5.212  15.205  0.00  0.00    +0.000 C 
ATOM     20  C   UNL     1       6.577   5.538  16.149  0.00  0.00    +0.000 C 
ENDBRANCH  12  14
ENDBRANCH   1  12
TORSDOF 2
ENDMDL
MODEL 4
REMARK VINA RESULT:      -6.0      4.301      5.914
REMARK  Name = 
REMARK  2 active torsions:
REMARK  status: ('A' for Active; 'I' for Inactive)
REMARK    1  A    between atoms: C_2  and  C_3
REMARK    2  A    between atoms: C_3  and  N_4
REMARK                            x       y       z     vdW  Elec       q    Type
REMARK                         _______ _______ _______ _____ _____    ______ ____
ROOT
ATOM      1  N   UNL     1       3.347   5.831  18.635  0.00  0.00    +0.000 N 
ATOM      2  C   UNL     1       4.472   5.947  17.819  0.00  0.00    +0.000 C 
ATOM      3  O   UNL     1       5.316   6.836  17.976  0.00  0.00    +0.000 OA
ATOM      4  C   UNL     1       4.527   5.072  16.594  0.00  0.00    +0.000 C 
ATOM      5  S   UNL     1       4.362   3.338  16.975  0.00  0.00    +0.000 S 
ATOM      6  C   UNL     1       2.926   3.446  18.009  0.00  0.00    +0.000 A 
ATOM      7  N   UNL     1       2.225   2.285  18.065  0.00  0.00    +0.000 NA
ATOM      8  C   UNL     1       1.174   2.226  18.900  0.00  0.00    +0.000 A 
ATOM      9  C   UNL     1       0.803   3.276  19.710  0.00  0.00    +0.000 A 
ATOM     10  C   UNL     1       1.524   4.466  19.632  0.00  0.00    +0.000 A 
ATOM     11  C   UNL     1       2.596   4.603  18.738  0.00  0.00    +0.000 A 
ENDROOT
BRANCH   1  12
ATOM     12  C   UNL     1       2.988   7.006  19.450  0.00  0.00    +0.000 C 
BRANCH  12  14
ATOM     13  O   UNL     1       2.361   8.212  17.470  0.00  0.00    +0.000 OA
ATOM     14  C   UNL     1       2.184   8.081  18.686  0.00  0.00    +0.000 C 
ATOM     15  N   UNL     1       1.300   8.904  19.361  0.00  0.00    +0.000 N 
ATOM     16  C   UNL     1       0.535   9.909  18.615  0.00  0.00    +0.000 C 
ATOM     17  C   UNL     1       0.570  11.258  19.342  0.00  0.00    +0.000 C 
ATOM     18  O   UNL     1       0.112  11.127  20.698  0.00  0.00    +0.000 OA
ATOM     19  C   UNL     1       0.923  10.190  21.424  0.00  0.00    +0.000 C 
ATOM     20  C   UNL     1       0.891   8.806  20.763  0.00  0.00    +0.000 C 
ENDBRANCH  12  14
ENDBRANCH   1  12
TORSDOF 2
ENDMDL
MODEL 5
REMARK VINA RESULT:      -5.9      3.875      4.928
REMARK  Name = 
REMARK  2 active torsions:
REMARK  status: ('A' for Active; 'I' for Inactive)
REMARK    1  A    between atoms: C_2  and  C_3
REMARK    2  A    between atoms: C_3  and  N_4
REMARK                            x       y       z     vdW  Elec       q    Type
REMARK                         _______ _______ _______ _____ _____    ______ ____
ROOT
ATOM      1  N   UNL     1       3.112   5.662  17.776  0.00  0.00    +0.000 N 
ATOM      2  C   UNL     1       2.380   4.479  17.681  0.00  0.00    +0.000 C 
ATOM      3  O   UNL     1       1.154   4.469  17.522  0.00  0.00    +0.000 OA
ATOM      4  C   UNL     1       3.105   3.195  17.989  0.00  0.00    +0.000 C 
ATOM      5  S   UNL     1       4.560   2.964  16.984  0.00  0.00    +0.000 S 
ATOM      6  C   UNL     1       5.292   4.560  17.237  0.00  0.00    +0.000 A 
ATOM      7  N   UNL     1       6.635   4.564  17.041  0.00  0.00    +0.000 NA
ATOM      8  C   UNL     1       7.276   5.742  17.107  0.00  0.00    +0.000 A 
ATOM      9  C   UNL     1       6.626   6.935  17.337  0.00  0.00    +0.000 A 
ATOM     10  C   UNL     1       5.249   6.913  17.550  0.00  0.00    +0.000 A 
ATOM     11  C   UNL     1       4.536   5.705  17.547  0.00  0.00    +0.000 A 
ENDROOT
BRANCH   1  12
ATOM     12  C   UNL     1       2.355   6.896  18.057  0.00  0.00    +0.000 C 
BRANCH  12  14
ATOM     13  O   UNL     1       2.388   6.266  20.374  0.00  0.00    +0.000 OA
ATOM     14  C   UNL     1       2.094   7.147  19.558  0.00  0.00    +0.000 C 
ATOM     15  N   UNL     1       1.514   8.330  19.979  0.00  0.00    +0.000 N 
ATOM     16  C   UNL     1       1.287   8.555  21.411  0.00  0.00    +0.000 C 
ATOM     17  C   UNL     1      -0.122   9.105  21.651  0.00  0.00    +0.000 C 
ATOM     18  O   UNL     1      -0.356  10.291  20.874  0.00  0.00    +0.000 OA
ATOM     19  C   UNL     1      -0.197  10.024  19.471  0.00  0.00    +0.000 C 
ATOM     20  C   UNL     1       1.216   9.510  19.166  0.00  0.00    +0.000 C 
ENDBRANCH  12  14
ENDBRANCH   1  12
TORSDOF 2
ENDMDL
MODEL 6
REMARK VINA RESULT:      -5.9      4.338      5.392
REMARK  Name = 
REMARK  2 active torsions:
REMARK  status: ('A' for Active; 'I' for Inactive)
REMARK    1  A    between atoms: C_2  and  C_3
REMARK    2  A    between atoms: C_3  and  N_4
REMARK                            x       y       z     vdW  Elec       q    Type
REMARK                         _______ _______ _______ _____ _____    ______ ____
ROOT
ATOM      1  N   UNL     1       3.145   5.653  18.632  0.00  0.00    +0.000 N 
ATOM      2  C   UNL     1       2.434   4.579  19.166  0.00  0.00    +0.000 C 
ATOM      3  O   UNL     1       1.207   4.479  19.062  0.00  0.00    +0.000 OA
ATOM      4  C   UNL     1       3.187   3.635  20.067  0.00  0.00    +0.000 C 
ATOM      5  S   UNL     1       4.631   2.938  19.286  0.00  0.00    +0.000 S 
ATOM      6  C   UNL     1       5.337   4.448  18.678  0.00  0.00    +0.000 A 
ATOM      7  N   UNL     1       6.676   4.363  18.478  0.00  0.00    +0.000 NA
ATOM      8  C   UNL     1       7.297   5.418  17.923  0.00  0.00    +0.000 A 
ATOM      9  C   UNL     1       6.628   6.556  17.531  0.00  0.00    +0.000 A 
ATOM     10  C   UNL     1       5.255   6.634  17.756  0.00  0.00    +0.000 A 
ATOM     11  C   UNL     1       4.565   5.585  18.381  0.00  0.00    +0.000 A 
ENDROOT
BRANCH   1  12
ATOM     12  C   UNL     1       2.370   6.852  18.266  0.00  0.00    +0.000 C 
BRANCH  12  14
ATOM     13  O   UNL     1       2.253   7.360  20.610  0.00  0.00    +0.000 OA
ATOM     14  C   UNL     1       1.983   7.744  19.466  0.00  0.00    +0.000 C 
ATOM     15  N   UNL     1       1.320   8.940  19.262  0.00  0.00    +0.000 N 
ATOM     16  C   UNL     1       0.974   9.780  20.415  0.00  0.00    +0.000 C 
ATOM     17  C   UNL     1      -0.473  10.271  20.306  0.00  0.00    +0.000 C 
ATOM     18  O   UNL     1      -0.699  10.947  19.058  0.00  0.00    +0.000 OA
ATOM     19  C   UNL     1      -0.421  10.078  17.948  0.00  0.00    +0.000 C 
ATOM     20  C   UNL     1       1.033   9.589  17.982  0.00  0.00    +0.000 C 
ENDBRANCH  12  14
ENDBRANCH   1  12
TORSDOF 2
ENDMDL
MODEL 7
REMARK VINA RESULT:      -5.8      7.029      8.767
REMARK  Name = 
REMARK  2 active torsions:
REMARK  status: ('A' for Active; 'I' for Inactive)
REMARK    1  A    between atoms: C_2  and  C_3
REMARK    2  A    between atoms: C_3  and  N_4
REMARK                            x       y       z     vdW  Elec       q    Type
REMARK                         _______ _______ _______ _____ _____    ______ ____
ROOT
ATOM      1  N   UNL     1       0.197  10.816  19.553  0.00  0.00    +0.000 N 
ATOM      2  C   UNL     1       0.315  11.620  20.686  0.00  0.00    +0.000 C 
ATOM      3  O   UNL     1       1.410  11.959  21.148  0.00  0.00    +0.000 OA
ATOM      4  C   UNL     1      -0.944  11.898  21.466  0.00  0.00    +0.000 C 
ATOM      5  S   UNL     1      -2.230  12.626  20.467  0.00  0.00    +0.000 S 
ATOM      6  C   UNL     1      -2.175  11.479  19.116  0.00  0.00    +0.000 A 
ATOM      7  N   UNL     1      -3.339  11.423  18.421  0.00  0.00    +0.000 NA
ATOM      8  C   UNL     1      -3.375  10.661  17.316  0.00  0.00    +0.000 A 
ATOM      9  C   UNL     1      -2.282   9.964  16.853  0.00  0.00    +0.000 A 
ATOM     10  C   UNL     1      -1.097  10.020  17.584  0.00  0.00    +0.000 A 
ATOM     11  C   UNL     1      -1.018  10.756  18.776  0.00  0.00    +0.000 A 
ENDROOT
BRANCH   1  12
ATOM     12  C   UNL     1       1.399  10.072  19.134  0.00  0.00    +0.000 C 
BRANCH  12  14
ATOM     13  O   UNL     1       1.127   8.515  20.942  0.00  0.00    +0.000 OA
ATOM     14  C   UNL     1       1.539   8.680  19.788  0.00  0.00    +0.000 C 
ATOM     15  N   UNL     1       2.141   7.642  19.100  0.00  0.00    +0.000 N 
ATOM     16  C   UNL     1       2.251   6.323  19.734  0.00  0.00    +0.000 C 
ATOM     17  C   UNL     1       3.661   5.754  19.548  0.00  0.00    +0.000 C 
ATOM     18  O   UNL     1       4.026   5.717  18.158  0.00  0.00    +0.000 OA
ATOM     19  C   UNL     1       3.978   7.033  17.582  0.00  0.00    +0.000 C 
ATOM     20  C   UNL     1       2.572   7.636  17.702  0.00  0.00    +0.000 C 
ENDBRANCH  12  14
ENDBRANCH   1  12
TORSDOF 2
ENDMDL
MODEL 8
REMARK VINA RESULT:      -5.7      4.049      5.480
REMARK  Name = 
REMARK  2 active torsions:
REMARK  status: ('A' for Active; 'I' for Inactive)
REMARK    1  A    between atoms: C_2  and  C_3
REMARK    2  A    between atoms: C_3  and  N_4
REMARK                            x       y       z     vdW  Elec       q    Type
REMARK                         _______ _______ _______ _____ _____    ______ ____
ROOT
ATOM      1  N   UNL     1       3.146   6.134  17.738  0.00  0.00    +0.000 N 
ATOM      2  C   UNL     1       4.414   6.555  17.338  0.00  0.00    +0.000 C 
ATOM      3  O   UNL     1       4.836   7.695  17.563  0.00  0.00    +0.000 OA
ATOM      4  C   UNL     1       5.188   5.637  16.427  0.00  0.00    +0.000 C 
ATOM      5  S   UNL     1       5.397   4.003  17.108  0.00  0.00    +0.000 S 
ATOM      6  C   UNL     1       3.707   3.703  17.557  0.00  0.00    +0.000 A 
ATOM      7  N   UNL     1       3.406   2.382  17.635  0.00  0.00    +0.000 NA
ATOM      8  C   UNL     1       2.180   2.041  18.067  0.00  0.00    +0.000 A 
ATOM      9  C   UNL     1       1.239   2.970  18.452  0.00  0.00    +0.000 A 
ATOM     10  C   UNL     1       1.558   4.323  18.353  0.00  0.00    +0.000 A 
ATOM     11  C   UNL     1       2.803   4.738  17.858  0.00  0.00    +0.000 A 
ENDROOT
BRANCH   1  12
ATOM     12  C   UNL     1       2.178   7.183  18.105  0.00  0.00    +0.000 C 
BRANCH  12  14
ATOM     13  O   UNL     1       2.577   6.634  20.408  0.00  0.00    +0.000 OA
ATOM     14  C   UNL     1       2.083   7.451  19.623  0.00  0.00    +0.000 C 
ATOM     15  N   UNL     1       1.430   8.575  20.095  0.00  0.00    +0.000 N 
ATOM     16  C   UNL     1       1.363   8.818  21.541  0.00  0.00    +0.000 C 
ATOM     17  C   UNL     1      -0.058   9.215  21.953  0.00  0.00    +0.000 C 
ATOM     18  O   UNL     1      -0.523  10.343  21.193  0.00  0.00    +0.000 OA
ATOM     19  C   UNL     1      -0.514  10.051  19.786  0.00  0.00    +0.000 C 
ATOM     20  C   UNL     1       0.898   9.689  19.308  0.00  0.00    +0.000 C 
ENDBRANCH  12  14
ENDBRANCH   1  12
TORSDOF 2
ENDMDL
MODEL 9
REMARK VINA RESULT:      -5.7      3.677      5.820
REMARK  Name = 
REMARK  2 active torsions:
REMARK  status: ('A' for Active; 'I' for Inactive)
REMARK    1  A    between atoms: C_2  and  C_3
REMARK    2  A    between atoms: C_3  and  N_4
REMARK                            x       y       z     vdW  Elec       q    Type
REMARK                         _______ _______ _______ _____ _____    ______ ____
ROOT
ATOM      1  N   UNL     1       4.034   4.725  18.721  0.00  0.00    +0.000 N 
ATOM      2  C   UNL     1       4.699   4.114  17.659  0.00  0.00    +0.000 C 
ATOM      3  O   UNL     1       5.722   4.590  17.155  0.00  0.00    +0.000 OA
ATOM      4  C   UNL     1       4.011   2.949  16.996  0.00  0.00    +0.000 C 
ATOM      5  S   UNL     1       3.597   1.647  18.141  0.00  0.00    +0.000 S 
ATOM      6  C   UNL     1       2.809   2.645  19.377  0.00  0.00    +0.000 A 
ATOM      7  N   UNL     1       1.933   1.947  20.142  0.00  0.00    +0.000 NA
ATOM      8  C   UNL     1       1.355   2.582  21.175  0.00  0.00    +0.000 A 
ATOM      9  C   UNL     1       1.634   3.892  21.498  0.00  0.00    +0.000 A 
ATOM     10  C   UNL     1       2.526   4.600  20.694  0.00  0.00    +0.000 A 
ATOM     11  C   UNL     1       3.117   4.004  19.571  0.00  0.00    +0.000 A 
ENDROOT
BRANCH   1  12
ATOM     12  C   UNL     1       4.358   6.138  18.989  0.00  0.00    +0.000 C 
BRANCH  12  14
ATOM     13  O   UNL     1       3.994   7.364  16.956  0.00  0.00    +0.000 OA
ATOM     14  C   UNL     1       3.587   7.141  18.102  0.00  0.00    +0.000 C 
ATOM     15  N   UNL     1       2.475   7.799  18.594  0.00  0.00    +0.000 N 
ATOM     16  C   UNL     1       1.748   8.736  17.730  0.00  0.00    +0.000 C 
ATOM     17  C   UNL     1       1.440  10.033  18.486  0.00  0.00    +0.000 C 
ATOM     18  O   UNL     1       0.732   9.765  19.708  0.00  0.00    +0.000 OA
ATOM     19  C   UNL     1       1.498   8.902  20.564  0.00  0.00    +0.000 C 
ATOM     20  C   UNL     1       1.800   7.567  19.872  0.00  0.00    +0.000 C 
ENDBRANCH  12  14
ENDBRANCH   1  12
TORSDOF 2
ENDMDL
