MODEL 1
REMARK VINA RESULT:      -7.9      0.000      0.000
REMARK  Name = 
REMARK  7 active torsions:
REMARK  status: ('A' for Active; 'I' for Inactive)
REMARK    1  A    between atoms: C_1  and  C_2
REMARK    2  A    between atoms: C_2  and  C_3
REMARK    3  A    between atoms: C_2  and  S_4
REMARK    4  A    between atoms: S_4  and  C_5
REMARK    5  A    between atoms: C_5  and  C_6
REMARK    6  A    between atoms: C_5  and  N_15
REMARK    7  A    between atoms: C_6  and  C_8
REMARK                            x       y       z     vdW  Elec       q    Type
REMARK                         _______ _______ _______ _____ _____    ______ ____
ROOT
ATOM      1  C   UNL     1       4.480   5.493  18.109  0.00  0.00    +0.000 C 
ENDROOT
BRANCH   1   2
ATOM      2  N   UNL     1       3.461   4.432  18.220  0.00  0.00    +0.000 N 
ATOM      3  C   UNL     1       2.995   3.669  17.175  0.00  0.00    +0.000 A 
ATOM      4  N   UNL     1       2.102   2.791  17.556  0.00  0.00    +0.000 NA
ATOM      5  C   UNL     1       2.012   2.943  18.912  0.00  0.00    +0.000 A 
ATOM      6  C   UNL     1       1.212   2.232  19.821  0.00  0.00    +0.000 A 
ATOM      7  C   UNL     1       1.293   2.546  21.178  0.00  0.00    +0.000 A 
ATOM      8  C   UNL     1       2.158   3.547  21.624  0.00  0.00    +0.000 A 
ATOM      9  C   UNL     1       2.967   4.271  20.729  0.00  0.00    +0.000 A 
ATOM     10  C   UNL     1       2.863   3.952  19.368  0.00  0.00    +0.000 A 
ENDBRANCH   1   2
BRANCH   1  11
ATOM     11  C   UNL     1       3.877   6.775  17.506  0.00  0.00    +0.000 C 
ATOM     12  O   UNL     1       4.328   7.266  16.474  0.00  0.00    +0.000 OA
BRANCH  11  13
ATOM     13  C   UNL     1       2.838   7.566  18.239  0.00  0.00    +0.000 A 
ATOM     14  C   UNL     1       2.224   8.654  17.592  0.00  0.00    +0.000 A 
ATOM     15  C   UNL     1       1.366   9.500  18.306  0.00  0.00    +0.000 A 
ATOM     16  C   UNL     1       1.103   9.254  19.647  0.00  0.00    +0.000 A 
ATOM     17 CL   UNL     1       0.157  10.352  20.566  0.00  0.00    +0.000 Cl
ATOM     18  C   UNL     1       1.634   8.125  20.265  0.00  0.00    +0.000 A 
ATOM     19  C   UNL     1       2.481   7.269  19.557  0.00  0.00    +0.000 A 
ENDBRANCH  11  13
ENDBRANCH   1  11
BRANCH   1  20
ATOM     20  S   UNL     1       5.989   4.798  17.316  0.00  0.00    +0.000 S 
BRANCH  20  22
ATOM     21  C   UNL     1       7.541   7.142  17.616  0.00  0.00    +0.000 C 
ATOM     22  C   UNL     1       7.429   5.681  18.025  0.00  0.00    +0.000 C 
ATOM     23  C   UNL     1       7.219   5.591  19.545  0.00  0.00    +0.000 C 
ENDBRANCH  20  22
ENDBRANCH   1  20
TORSDOF 5
ENDMDL
MODEL 2
REMARK VINA RESULT:      -7.9      1.482      1.956
REMARK  Name = 
REMARK  7 active torsions:
REMARK  status: ('A' for Active; 'I' for Inactive)
REMARK    1  A    between atoms: C_1  and  C_2
REMARK    2  A    between atoms: C_2  and  C_3
REMARK    3  A    between atoms: C_2  and  S_4
REMARK    4  A    between atoms: S_4  and  C_5
REMARK    5  A    between atoms: C_5  and  C_6
REMARK    6  A    between atoms: C_5  and  N_15
REMARK    7  A    between atoms: C_6  and  C_8
REMARK                            x       y       z     vdW  Elec       q    Type
REMARK                         _______ _______ _______ _____ _____    ______ ____
ROOT
ATOM      1  C   UNL     1       3.152   6.897  18.552  0.00  0.00    +0.000 C 
ENDROOT
BRANCH   1   2
ATOM      2  N   UNL     1       2.382   5.639  18.525  0.00  0.00    +0.000 N 
ATOM      3  C   UNL     1       1.805   5.087  17.405  0.00  0.00    +0.000 A 
ATOM      4  N   UNL     1       1.192   3.960  17.662  0.00  0.00    +0.000 NA
ATOM      5  C   UNL     1       1.414   3.730  18.992  0.00  0.00    +0.000 A 
ATOM      6  C   UNL     1       0.991   2.645  19.776  0.00  0.00    +0.000 A 
ATOM      7  C   UNL     1       1.351   2.606  21.124  0.00  0.00    +0.000 A 
ATOM      8  C   UNL     1       2.121   3.628  21.681  0.00  0.00    +0.000 A 
ATOM      9  C   UNL     1       2.554   4.725  20.912  0.00  0.00    +0.000 A 
ATOM     10  C   UNL     1       2.173   4.754  19.564  0.00  0.00    +0.000 A 
ENDBRANCH   1   2
BRANCH   1  11
ATOM     11  C   UNL     1       2.230   8.112  18.344  0.00  0.00    +0.000 C 
ATOM     12  O   UNL     1       2.248   8.752  17.295  0.00  0.00    +0.000 OA
BRANCH  11  13
ATOM     13  C   UNL     1       1.405   8.664  19.465  0.00  0.00    +0.000 A 
ATOM     14  C   UNL     1       0.534   9.739  19.208  0.00  0.00    +0.000 A 
ATOM     15  C   UNL     1      -0.130  10.371  20.267  0.00  0.00    +0.000 A 
ATOM     16  C   UNL     1       0.053   9.923  21.569  0.00  0.00    +0.000 A 
ATOM     17 CL   UNL     1      -0.653  10.765  22.888  0.00  0.00    +0.000 Cl
ATOM     18  C   UNL     1       0.839   8.801  21.816  0.00  0.00    +0.000 A 
ATOM     19  C   UNL     1       1.496   8.159  20.764  0.00  0.00    +0.000 A 
ENDBRANCH  11  13
ENDBRANCH   1  11
BRANCH   1  20
ATOM     20  S   UNL     1       4.615   6.730  17.447  0.00  0.00    +0.000 S 
BRANCH  20  22
ATOM     21  C   UNL     1       5.704   4.276  18.336  0.00  0.00    +0.000 C 
ATOM     22  C   UNL     1       5.885   5.785  18.371  0.00  0.00    +0.000 C 
ATOM     23  C   UNL     1       7.209   6.157  17.683  0.00  0.00    +0.000 C 
ENDBRANCH  20  22
ENDBRANCH   1  20
TORSDOF 5
ENDMDL
MODEL 3
REMARK VINA RESULT:      -7.8      1.542      2.264
REMARK  Name = 
REMARK  7 active torsions:
REMARK  status: ('A' for Active; 'I' for Inactive)
REMARK    1  A    between atoms: C_1  and  C_2
REMARK    2  A    between atoms: C_2  and  C_3
REMARK    3  A    between atoms: C_2  and  S_4
REMARK    4  A    between atoms: S_4  and  C_5
REMARK    5  A    between atoms: C_5  and  C_6
REMARK    6  A    between atoms: C_5  and  N_15
REMARK    7  A    between atoms: C_6  and  C_8
REMARK                            x       y       z     vdW  Elec       q    Type
REMARK                         _______ _______ _______ _____ _____    ______ ____
ROOT
ATOM      1  C   UNL     1       3.061   6.946  18.587  0.00  0.00    +0.000 C 
ENDROOT
BRANCH   1   2
ATOM      2  N   UNL     1       2.328   5.666  18.549  0.00  0.00    +0.000 N 
ATOM      3  C   UNL     1       1.775   5.103  17.423  0.00  0.00    +0.000 A 
ATOM      4  N   UNL     1       1.193   3.957  17.672  0.00  0.00    +0.000 NA
ATOM      5  C   UNL     1       1.414   3.728  19.002  0.00  0.00    +0.000 A 
ATOM      6  C   UNL     1       1.019   2.627  19.778  0.00  0.00    +0.000 A 
ATOM      7  C   UNL     1       1.373   2.592  21.128  0.00  0.00    +0.000 A 
ATOM      8  C   UNL     1       2.109   3.634  21.695  0.00  0.00    +0.000 A 
ATOM      9  C   UNL     1       2.514   4.746  20.933  0.00  0.00    +0.000 A 
ATOM     10  C   UNL     1       2.139   4.771  19.584  0.00  0.00    +0.000 A 
ENDBRANCH   1   2
BRANCH   1  11
ATOM     11  C   UNL     1       2.101   8.136  18.404  0.00  0.00    +0.000 C 
ATOM     12  O   UNL     1       1.951   8.669  17.306  0.00  0.00    +0.000 OA
BRANCH  11  13
ATOM     13  C   UNL     1       1.449   8.798  19.578  0.00  0.00    +0.000 A 
ATOM     14  C   UNL     1       1.583   8.216  20.852  0.00  0.00    +0.000 A 
ATOM     15  C   UNL     1       0.857   8.728  21.935  0.00  0.00    +0.000 A 
ATOM     16  C   UNL     1       0.023   9.824  21.758  0.00  0.00    +0.000 A 
ATOM     17 CL   UNL     1      -0.968  10.383  23.043  0.00  0.00    +0.000 Cl
ATOM     18  C   UNL     1      -0.039  10.460  20.520  0.00  0.00    +0.000 A 
ATOM     19  C   UNL     1       0.690   9.963  19.438  0.00  0.00    +0.000 A 
ENDBRANCH  11  13
ENDBRANCH   1  11
BRANCH   1  20
ATOM     20  S   UNL     1       4.519   6.837  17.467  0.00  0.00    +0.000 S 
BRANCH  20  22
ATOM     21  C   UNL     1       5.569   4.237  17.824  0.00  0.00    +0.000 C 
ATOM     22  C   UNL     1       5.716   5.690  18.248  0.00  0.00    +0.000 C 
ATOM     23  C   UNL     1       7.091   6.216  17.802  0.00  0.00    +0.000 C 
ENDBRANCH  20  22
ENDBRANCH   1  20
TORSDOF 5
ENDMDL
MODEL 4
REMARK VINA RESULT:      -7.8      0.165      1.020
REMARK  Name = 
REMARK  7 active torsions:
REMARK  status: ('A' for Active; 'I' for Inactive)
REMARK    1  A    between atoms: C_1  and  C_2
REMARK    2  A    between atoms: C_2  and  C_3
REMARK    3  A    between atoms: C_2  and  S_4
REMARK    4  A    between atoms: S_4  and  C_5
REMARK    5  A    between atoms: C_5  and  C_6
REMARK    6  A    between atoms: C_5  and  N_15
REMARK    7  A    between atoms: C_6  and  C_8
REMARK                            x       y       z     vdW  Elec       q    Type
REMARK                         _______ _______ _______ _____ _____    ______ ____
ROOT
ATOM      1  C   UNL     1       4.485   5.468  18.073  0.00  0.00    +0.000 C 
ENDROOT
BRANCH   1   2
ATOM      2  N   UNL     1       3.460   4.413  18.192  0.00  0.00    +0.000 N 
ATOM      3  C   UNL     1       2.995   3.641  17.153  0.00  0.00    +0.000 A 
ATOM      4  N   UNL     1       2.096   2.771  17.540  0.00  0.00    +0.000 NA
ATOM      5  C   UNL     1       2.000   2.939  18.894  0.00  0.00    +0.000 A 
ATOM      6  C   UNL     1       1.193   2.243  19.808  0.00  0.00    +0.000 A 
ATOM      7  C   UNL     1       1.270   2.572  21.162  0.00  0.00    +0.000 A 
ATOM      8  C   UNL     1       2.137   3.574  21.600  0.00  0.00    +0.000 A 
ATOM      9  C   UNL     1       2.954   4.283  20.700  0.00  0.00    +0.000 A 
ATOM     10  C   UNL     1       2.855   3.949  19.343  0.00  0.00    +0.000 A 
ENDBRANCH   1   2
BRANCH   1  11
ATOM     11  C   UNL     1       3.897   6.737  17.428  0.00  0.00    +0.000 C 
ATOM     12  O   UNL     1       4.281   7.126  16.327  0.00  0.00    +0.000 OA
BRANCH  11  13
ATOM     13  C   UNL     1       2.969   7.636  18.184  0.00  0.00    +0.000 A 
ATOM     14  C   UNL     1       2.648   7.322  19.517  0.00  0.00    +0.000 A 
ATOM     15  C   UNL     1       1.666   8.058  20.193  0.00  0.00    +0.000 A 
ATOM     16  C   UNL     1       1.023   9.112  19.555  0.00  0.00    +0.000 A 
ATOM     17 CL   UNL     1      -0.268   9.939  20.323  0.00  0.00    +0.000 Cl
ATOM     18  C   UNL     1       1.405   9.484  18.269  0.00  0.00    +0.000 A 
ATOM     19  C   UNL     1       2.392   8.763  17.593  0.00  0.00    +0.000 A 
ENDBRANCH  11  13
ENDBRANCH   1  11
BRANCH   1  20
ATOM     20  S   UNL     1       6.005   4.749  17.326  0.00  0.00    +0.000 S 
BRANCH  20  22
ATOM     21  C   UNL     1       7.498   7.138  17.560  0.00  0.00    +0.000 C 
ATOM     22  C   UNL     1       7.432   5.683  17.996  0.00  0.00    +0.000 C 
ATOM     23  C   UNL     1       7.248   5.614  19.521  0.00  0.00    +0.000 C 
ENDBRANCH  20  22
ENDBRANCH   1  20
TORSDOF 5
ENDMDL
MODEL 5
REMARK VINA RESULT:      -7.8      2.096      4.660
REMARK  Name = 
REMARK  7 active torsions:
REMARK  status: ('A' for Active; 'I' for Inactive)
REMARK    1  A    between atoms: C_1  and  C_2
REMARK    2  A    between atoms: C_2  and  C_3
REMARK    3  A    between atoms: C_2  and  S_4
REMARK    4  A    between atoms: S_4  and  C_5
REMARK    5  A    between atoms: C_5  and  C_6
REMARK    6  A    between atoms: C_5  and  N_15
REMARK    7  A    between atoms: C_6  and  C_8
REMARK                            x       y       z     vdW  Elec       q    Type
REMARK                         _______ _______ _______ _____ _____    ______ ____
ROOT
ATOM      1  C   UNL     1       2.771   5.633  18.206  0.00  0.00    +0.000 C 
ENDROOT
BRANCH   1   2
ATOM      2  N   UNL     1       4.221   5.368  18.285  0.00  0.00    +0.000 N 
ATOM      3  C   UNL     1       4.944   5.263  19.449  0.00  0.00    +0.000 A 
ATOM      4  N   UNL     1       6.210   5.011  19.230  0.00  0.00    +0.000 NA
ATOM      5  C   UNL     1       6.319   4.891  17.873  0.00  0.00    +0.000 A 
ATOM      6  C   UNL     1       7.460   4.603  17.107  0.00  0.00    +0.000 A 
ATOM      7  C   UNL     1       7.335   4.511  15.720  0.00  0.00    +0.000 A 
ATOM      8  C   UNL     1       6.096   4.699  15.105  0.00  0.00    +0.000 A 
ATOM      9  C   UNL     1       4.941   4.989  15.855  0.00  0.00    +0.000 A 
ATOM     10  C   UNL     1       5.087   5.091  17.245  0.00  0.00    +0.000 A 
ENDBRANCH   1   2
BRANCH   1  11
ATOM     11  C   UNL     1       2.296   6.459  19.415  0.00  0.00    +0.000 C 
ATOM     12  O   UNL     1       2.035   5.921  20.489  0.00  0.00    +0.000 OA
BRANCH  11  13
ATOM     13  C   UNL     1       1.969   7.914  19.284  0.00  0.00    +0.000 A 
ATOM     14  C   UNL     1       1.338   8.571  20.356  0.00  0.00    +0.000 A 
ATOM     15  C   UNL     1       0.884   9.887  20.201  0.00  0.00    +0.000 A 
ATOM     16  C   UNL     1       1.075  10.552  18.996  0.00  0.00    +0.000 A 
ATOM     17 CL   UNL     1       0.413  12.115  18.748  0.00  0.00    +0.000 Cl
ATOM     18  C   UNL     1       1.782   9.937  17.966  0.00  0.00    +0.000 A 
ATOM     19  C   UNL     1       2.248   8.629  18.117  0.00  0.00    +0.000 A 
ENDBRANCH  11  13
ENDBRANCH   1  11
BRANCH   1  20
ATOM     20  S   UNL     1       1.891   4.058  17.840  0.00  0.00    +0.000 S 
BRANCH  20  22
ATOM     21  C   UNL     1       1.491   2.066  19.806  0.00  0.00    +0.000 C 
ATOM     22  C   UNL     1       2.549   2.791  18.989  0.00  0.00    +0.000 C 
ATOM     23  C   UNL     1       3.266   1.785  18.073  0.00  0.00    +0.000 C 
ENDBRANCH  20  22
ENDBRANCH   1  20
TORSDOF 5
ENDMDL
MODEL 6
REMARK VINA RESULT:      -7.6      2.100      4.589
REMARK  Name = 
REMARK  7 active torsions:
REMARK  status: ('A' for Active; 'I' for Inactive)
REMARK    1  A    between atoms: C_1  and  C_2
REMARK    2  A    between atoms: C_2  and  C_3
REMARK    3  A    between atoms: C_2  and  S_4
REMARK    4  A    between atoms: S_4  and  C_5
REMARK    5  A    between atoms: C_5  and  C_6
REMARK    6  A    between atoms: C_5  and  N_15
REMARK    7  A    between atoms: C_6  and  C_8
REMARK                            x       y       z     vdW  Elec       q    Type
REMARK                         _______ _______ _______ _____ _____    ______ ____
ROOT
ATOM      1  C   UNL     1       2.766   5.695  18.204  0.00  0.00    +0.000 C 
ENDROOT
BRANCH   1   2
ATOM      2  N   UNL     1       4.211   5.407  18.284  0.00  0.00    +0.000 N 
ATOM      3  C   UNL     1       4.929   5.274  19.449  0.00  0.00    +0.000 A 
ATOM      4  N   UNL     1       6.191   5.006  19.230  0.00  0.00    +0.000 NA
ATOM      5  C   UNL     1       6.302   4.905  17.871  0.00  0.00    +0.000 A 
ATOM      6  C   UNL     1       7.442   4.610  17.105  0.00  0.00    +0.000 A 
ATOM      7  C   UNL     1       7.320   4.541  15.716  0.00  0.00    +0.000 A 
ATOM      8  C   UNL     1       6.086   4.757  15.101  0.00  0.00    +0.000 A 
ATOM      9  C   UNL     1       4.933   5.053  15.851  0.00  0.00    +0.000 A 
ATOM     10  C   UNL     1       5.076   5.133  17.242  0.00  0.00    +0.000 A 
ENDBRANCH   1   2
BRANCH   1  11
ATOM     11  C   UNL     1       2.307   6.544  19.404  0.00  0.00    +0.000 C 
ATOM     12  O   UNL     1       2.157   6.043  20.516  0.00  0.00    +0.000 OA
BRANCH  11  13
ATOM     13  C   UNL     1       1.861   7.962  19.230  0.00  0.00    +0.000 A 
ATOM     14  C   UNL     1       2.111   8.612  18.007  0.00  0.00    +0.000 A 
ATOM     15  C   UNL     1       1.844   9.980  17.873  0.00  0.00    +0.000 A 
ATOM     16  C   UNL     1       1.312  10.693  18.940  0.00  0.00    +0.000 A 
ATOM     17 CL   UNL     1       1.099  12.392  18.834  0.00  0.00    +0.000 Cl
ATOM     18  C   UNL     1       0.976  10.034  20.120  0.00  0.00    +0.000 A 
ATOM     19  C   UNL     1       1.229   8.667  20.257  0.00  0.00    +0.000 A 
ENDBRANCH  11  13
ENDBRANCH   1  11
BRANCH   1  20
ATOM     20  S   UNL     1       1.858   4.131  17.860  0.00  0.00    +0.000 S 
BRANCH  20  22
ATOM     21  C   UNL     1       1.499   2.161  19.856  0.00  0.00    +0.000 C 
ATOM     22  C   UNL     1       2.536   2.853  18.985  0.00  0.00    +0.000 C 
ATOM     23  C   UNL     1       3.182   1.823  18.043  0.00  0.00    +0.000 C 
ENDBRANCH  20  22
ENDBRANCH   1  20
TORSDOF 5
ENDMDL
MODEL 7
REMARK VINA RESULT:      -7.6      3.307      5.971
REMARK  Name = 
REMARK  7 active torsions:
REMARK  status: ('A' for Active; 'I' for Inactive)
REMARK    1  A    between atoms: C_1  and  C_2
REMARK    2  A    between atoms: C_2  and  C_3
REMARK    3  A    between atoms: C_2  and  S_4
REMARK    4  A    between atoms: S_4  and  C_5
REMARK    5  A    between atoms: C_5  and  C_6
REMARK    6  A    between atoms: C_5  and  N_15
REMARK    7  A    between atoms: C_6  and  C_8
REMARK                            x       y       z     vdW  Elec       q    Type
REMARK                         _______ _______ _______ _____ _____    ______ ____
ROOT
ATOM      1  C   UNL     1       2.825   5.660  18.900  0.00  0.00    +0.000 C 
ENDROOT
BRANCH   1   2
ATOM      2  N   UNL     1       2.421   7.070  18.737  0.00  0.00    +0.000 N 
ATOM      3  C   UNL     1       2.525   7.794  17.573  0.00  0.00    +0.000 A 
ATOM      4  N   UNL     1       2.080   9.018  17.704  0.00  0.00    +0.000 NA
ATOM      5  C   UNL     1       1.617   9.092  18.988  0.00  0.00    +0.000 A 
ATOM      6  C   UNL     1       1.018  10.180  19.642  0.00  0.00    +0.000 A 
ATOM      7  C   UNL     1       0.601  10.025  20.965  0.00  0.00    +0.000 A 
ATOM      8  C   UNL     1       0.774   8.808  21.625  0.00  0.00    +0.000 A 
ATOM      9  C   UNL     1       1.373   7.705  20.987  0.00  0.00    +0.000 A 
ATOM     10  C   UNL     1       1.798   7.882  19.664  0.00  0.00    +0.000 A 
ENDBRANCH   1   2
BRANCH   1  11
ATOM     11  C   UNL     1       4.346   5.500  18.726  0.00  0.00    +0.000 C 
ATOM     12  O   UNL     1       5.127   5.837  19.613  0.00  0.00    +0.000 OA
BRANCH  11  13
ATOM     13  C   UNL     1       4.941   5.093  17.413  0.00  0.00    +0.000 A 
ATOM     14  C   UNL     1       5.180   6.078  16.437  0.00  0.00    +0.000 A 
ATOM     15  C   UNL     1       5.589   5.704  15.150  0.00  0.00    +0.000 A 
ATOM     16  C   UNL     1       5.780   4.362  14.844  0.00  0.00    +0.000 A 
ATOM     17 CL   UNL     1       6.157   3.880  13.240  0.00  0.00    +0.000 Cl
ATOM     18  C   UNL     1       5.636   3.394  15.834  0.00  0.00    +0.000 A 
ATOM     19  C   UNL     1       5.240   3.760  17.122  0.00  0.00    +0.000 A 
ENDBRANCH  11  13
ENDBRANCH   1  11
BRANCH   1  20
ATOM     20  S   UNL     1       1.725   4.597  17.876  0.00  0.00    +0.000 S 
BRANCH  20  22
ATOM     21  C   UNL     1       2.136   2.024  18.973  0.00  0.00    +0.000 C 
ATOM     22  C   UNL     1       1.179   3.205  18.935  0.00  0.00    +0.000 C 
ATOM     23  C   UNL     1       1.067   3.818  20.341  0.00  0.00    +0.000 C 
ENDBRANCH  20  22
ENDBRANCH   1  20
TORSDOF 5
ENDMDL
MODEL 8
REMARK VINA RESULT:      -7.5      2.185      4.962
REMARK  Name = 
REMARK  7 active torsions:
REMARK  status: ('A' for Active; 'I' for Inactive)
REMARK    1  A    between atoms: C_1  and  C_2
REMARK    2  A    between atoms: C_2  and  C_3
REMARK    3  A    between atoms: C_2  and  S_4
REMARK    4  A    between atoms: S_4  and  C_5
REMARK    5  A    between atoms: C_5  and  C_6
REMARK    6  A    between atoms: C_5  and  N_15
REMARK    7  A    between atoms: C_6  and  C_8
REMARK                            x       y       z     vdW  Elec       q    Type
REMARK                         _______ _______ _______ _____ _____    ______ ____
ROOT
ATOM      1  C   UNL     1       3.482   4.454  18.853  0.00  0.00    +0.000 C 
ENDROOT
BRANCH   1   2
ATOM      2  N   UNL     1       4.821   4.833  18.363  0.00  0.00    +0.000 N 
ATOM      3  C   UNL     1       5.850   5.298  19.148  0.00  0.00    +0.000 A 
ATOM      4  N   UNL     1       6.933   5.547  18.457  0.00  0.00    +0.000 NA
ATOM      5  C   UNL     1       6.626   5.185  17.174  0.00  0.00    +0.000 A 
ATOM      6  C   UNL     1       7.443   5.230  16.033  0.00  0.00    +0.000 A 
ATOM      7  C   UNL     1       6.923   4.790  14.815  0.00  0.00    +0.000 A 
ATOM      8  C   UNL     1       5.615   4.310  14.734  0.00  0.00    +0.000 A 
ATOM      9  C   UNL     1       4.781   4.257  15.866  0.00  0.00    +0.000 A 
ATOM     10  C   UNL     1       5.314   4.715  17.078  0.00  0.00    +0.000 A 
ENDBRANCH   1   2
BRANCH   1  11
ATOM     11  C   UNL     1       2.979   5.453  19.911  0.00  0.00    +0.000 C 
ATOM     12  O   UNL     1       2.840   5.119  21.086  0.00  0.00    +0.000 OA
BRANCH  11  13
ATOM     13  C   UNL     1       2.478   6.810  19.524  0.00  0.00    +0.000 A 
ATOM     14  C   UNL     1       1.828   7.599  20.490  0.00  0.00    +0.000 A 
ATOM     15  C   UNL     1       1.217   8.803  20.115  0.00  0.00    +0.000 A 
ATOM     16  C   UNL     1       1.270   9.228  18.794  0.00  0.00    +0.000 A 
ATOM     17 CL   UNL     1       0.418  10.632  18.295  0.00  0.00    +0.000 Cl
ATOM     18  C   UNL     1       1.992   8.496  17.855  0.00  0.00    +0.000 A 
ATOM     19  C   UNL     1       2.615   7.302  18.224  0.00  0.00    +0.000 A 
ENDBRANCH  11  13
ENDBRANCH   1  11
BRANCH   1  20
ATOM     20  S   UNL     1       3.488   2.666  19.294  0.00  0.00    +0.000 S 
BRANCH  20  22
ATOM     21  C   UNL     1       1.205   2.540  20.958  0.00  0.00    +0.000 C 
ATOM     22  C   UNL     1       1.747   2.174  19.584  0.00  0.00    +0.000 C 
ATOM     23  C   UNL     1       0.954   2.930  18.505  0.00  0.00    +0.000 C 
ENDBRANCH  20  22
ENDBRANCH   1  20
TORSDOF 5
ENDMDL
MODEL 9
REMARK VINA RESULT:      -7.5      2.196      4.901
REMARK  Name = 
REMARK  7 active torsions:
REMARK  status: ('A' for Active; 'I' for Inactive)
REMARK    1  A    between atoms: C_1  and  C_2
REMARK    2  A    between atoms: C_2  and  C_3
REMARK    3  A    between atoms: C_2  and  S_4
REMARK    4  A    between atoms: S_4  and  C_5
REMARK    5  A    between atoms: C_5  and  C_6
REMARK    6  A    between atoms: C_5  and  N_15
REMARK    7  A    between atoms: C_6  and  C_8
REMARK                            x       y       z     vdW  Elec       q    Type
REMARK                         _______ _______ _______ _____ _____    ______ ____
ROOT
ATOM      1  C   UNL     1       3.446   4.309  18.972  0.00  0.00    +0.000 C 
ENDROOT
BRANCH   1   2
ATOM      2  N   UNL     1       4.811   4.628  18.510  0.00  0.00    +0.000 N 
ATOM      3  C   UNL     1       5.863   4.973  19.327  0.00  0.00    +0.000 A 
ATOM      4  N   UNL     1       6.965   5.192  18.655  0.00  0.00    +0.000 NA
ATOM      5  C   UNL     1       6.645   4.932  17.352  0.00  0.00    +0.000 A 
ATOM      6  C   UNL     1       7.471   4.993  16.218  0.00  0.00    +0.000 A 
ATOM      7  C   UNL     1       6.931   4.665  14.973  0.00  0.00    +0.000 A 
ATOM      8  C   UNL     1       5.595   4.279  14.858  0.00  0.00    +0.000 A 
ATOM      9  C   UNL     1       4.751   4.212  15.983  0.00  0.00    +0.000 A 
ATOM     10  C   UNL     1       5.305   4.557  17.223  0.00  0.00    +0.000 A 
ENDBRANCH   1   2
BRANCH   1  11
ATOM     11  C   UNL     1       2.958   5.343  20.003  0.00  0.00    +0.000 C 
ATOM     12  O   UNL     1       2.890   5.065  21.198  0.00  0.00    +0.000 OA
BRANCH  11  13
ATOM     13  C   UNL     1       2.385   6.658  19.575  0.00  0.00    +0.000 A 
ATOM     14  C   UNL     1       2.569   7.084  18.247  0.00  0.00    +0.000 A 
ATOM     15  C   UNL     1       2.179   8.374  17.864  0.00  0.00    +0.000 A 
ATOM     16  C   UNL     1       1.591   9.226  18.790  0.00  0.00    +0.000 A 
ATOM     17 CL   UNL     1       1.225  10.849  18.371  0.00  0.00    +0.000 Cl
ATOM     18  C   UNL     1       1.322   8.775  20.080  0.00  0.00    +0.000 A 
ATOM     19  C   UNL     1       1.697   7.486  20.465  0.00  0.00    +0.000 A 
ENDBRANCH  11  13
ENDBRANCH   1  11
BRANCH   1  20
ATOM     20  S   UNL     1       3.370   2.529  19.437  0.00  0.00    +0.000 S 
BRANCH  20  22
ATOM     21  C   UNL     1       1.094   2.606  21.113  0.00  0.00    +0.000 C 
ATOM     22  C   UNL     1       1.612   2.130  19.764  0.00  0.00    +0.000 C 
ATOM     23  C   UNL     1       0.845   2.846  18.640  0.00  0.00    +0.000 C 
ENDBRANCH  20  22
ENDBRANCH   1  20
TORSDOF 5
ENDMDL
