MODEL 1
REMARK VINA RESULT:      -6.5      0.000      0.000
REMARK  Name = 
REMARK  3 active torsions:
REMARK  status: ('A' for Active; 'I' for Inactive)
REMARK    1  A    between atoms: C_7  and  S_8
REMARK    2  A    between atoms: S_8  and  C_9
REMARK    3  A    between atoms: C_9  and  C_10
REMARK                            x       y       z     vdW  Elec       q    Type
REMARK                         _______ _______ _______ _____ _____    ______ ____
ROOT
ATOM      1  S   UNL     1       4.018   3.439  17.636  0.00  0.00    +0.000 S 
ENDROOT
BRANCH   1   8
ATOM      2 CL   UNL     1       4.851   1.787  20.467  0.00  0.00    +0.000 Cl
ATOM      3  C   UNL     1       3.390   2.697  20.312  0.00  0.00    +0.000 A 
ATOM      4  C   UNL     1       2.502   2.656  21.398  0.00  0.00    +0.000 A 
ATOM      5  C   UNL     1       1.273   3.311  21.331  0.00  0.00    +0.000 A 
ATOM      6  C   UNL     1       0.930   4.019  20.184  0.00  0.00    +0.000 A 
ATOM      7  C   UNL     1       1.815   4.068  19.103  0.00  0.00    +0.000 A 
ATOM      8  C   UNL     1       3.058   3.414  19.150  0.00  0.00    +0.000 A 
ENDBRANCH   1   8
BRANCH   1   9
ATOM      9  C   UNL     1       4.174   5.238  17.313  0.00  0.00    +0.000 C 
BRANCH   9  10
ATOM     10  C   UNL     1       5.532   5.777  17.727  0.00  0.00    +0.000 A 
ATOM     11  C   UNL     1       6.234   5.208  18.792  0.00  0.00    +0.000 A 
ATOM     12  C   UNL     1       7.472   5.736  19.153  0.00  0.00    +0.000 A 
ATOM     13  C   UNL     1       7.972   6.830  18.459  0.00  0.00    +0.000 A 
ATOM     14  C   UNL     1       7.210   7.349  17.428  0.00  0.00    +0.000 A 
ATOM     15  N   UNL     1       6.009   6.854  17.049  0.00  0.00    +0.000 NA
ENDBRANCH   9  10
ENDBRANCH   1   9
TORSDOF 3
ENDMDL
MODEL 2
REMARK VINA RESULT:      -6.5      0.709      1.237
REMARK  Name = 
REMARK  3 active torsions:
REMARK  status: ('A' for Active; 'I' for Inactive)
REMARK    1  A    between atoms: C_7  and  S_8
REMARK    2  A    between atoms: S_8  and  C_9
REMARK    3  A    between atoms: C_9  and  C_10
REMARK                            x       y       z     vdW  Elec       q    Type
REMARK                         _______ _______ _______ _____ _____    ______ ____
ROOT
ATOM      1  S   UNL     1       4.054   3.416  17.559  0.00  0.00    +0.000 S 
ENDROOT
BRANCH   1   8
ATOM      2 CL   UNL     1       4.884   1.817  20.421  0.00  0.00    +0.000 Cl
ATOM      3  C   UNL     1       3.410   2.702  20.239  0.00  0.00    +0.000 A 
ATOM      4  C   UNL     1       2.511   2.662  21.316  0.00  0.00    +0.000 A 
ATOM      5  C   UNL     1       1.273   3.297  21.228  0.00  0.00    +0.000 A 
ATOM      6  C   UNL     1       0.931   3.983  20.067  0.00  0.00    +0.000 A 
ATOM      7  C   UNL     1       1.827   4.031  18.994  0.00  0.00    +0.000 A 
ATOM      8  C   UNL     1       3.079   3.397  19.064  0.00  0.00    +0.000 A 
ENDBRANCH   1   8
BRANCH   1   9
ATOM      9  C   UNL     1       4.208   5.214  17.227  0.00  0.00    +0.000 C 
BRANCH   9  10
ATOM     10  C   UNL     1       5.535   5.772  17.705  0.00  0.00    +0.000 A 
ATOM     11  C   UNL     1       6.118   6.874  17.076  0.00  0.00    +0.000 A 
ATOM     12  C   UNL     1       7.344   7.353  17.533  0.00  0.00    +0.000 A 
ATOM     13  C   UNL     1       7.971   6.712  18.593  0.00  0.00    +0.000 A 
ATOM     14  C   UNL     1       7.340   5.615  19.154  0.00  0.00    +0.000 A 
ATOM     15  N   UNL     1       6.147   5.132  18.736  0.00  0.00    +0.000 NA
ENDBRANCH   9  10
ENDBRANCH   1   9
TORSDOF 3
ENDMDL
MODEL 3
REMARK VINA RESULT:      -6.5      3.660      4.501
REMARK  Name = 
REMARK  3 active torsions:
REMARK  status: ('A' for Active; 'I' for Inactive)
REMARK    1  A    between atoms: C_7  and  S_8
REMARK    2  A    between atoms: S_8  and  C_9
REMARK    3  A    between atoms: C_9  and  C_10
REMARK                            x       y       z     vdW  Elec       q    Type
REMARK                         _______ _______ _______ _____ _____    ______ ____
ROOT
ATOM      1  S   UNL     1       5.348   6.321  16.514  0.00  0.00    +0.000 S 
ENDROOT
BRANCH   1   8
ATOM      2 CL   UNL     1       2.594   7.421  18.139  0.00  0.00    +0.000 Cl
ATOM      3  C   UNL     1       2.938   5.742  17.915  0.00  0.00    +0.000 A 
ATOM      4  C   UNL     1       2.058   4.830  18.519  0.00  0.00    +0.000 A 
ATOM      5  C   UNL     1       2.297   3.458  18.440  0.00  0.00    +0.000 A 
ATOM      6  C   UNL     1       3.411   2.991  17.750  0.00  0.00    +0.000 A 
ATOM      7  C   UNL     1       4.286   3.896  17.141  0.00  0.00    +0.000 A 
ATOM      8  C   UNL     1       4.062   5.282  17.210  0.00  0.00    +0.000 A 
ENDBRANCH   1   8
BRANCH   1   9
ATOM      9  C   UNL     1       6.681   5.105  16.179  0.00  0.00    +0.000 C 
BRANCH   9  10
ATOM     10  C   UNL     1       6.834   4.820  14.696  0.00  0.00    +0.000 A 
ATOM     11  C   UNL     1       6.060   3.841  14.071  0.00  0.00    +0.000 A 
ATOM     12  C   UNL     1       6.236   3.596  12.710  0.00  0.00    +0.000 A 
ATOM     13  C   UNL     1       7.192   4.318  12.009  0.00  0.00    +0.000 A 
ATOM     14  C   UNL     1       7.933   5.260  12.701  0.00  0.00    +0.000 A 
ATOM     15  N   UNL     1       7.779   5.525  14.019  0.00  0.00    +0.000 NA
ENDBRANCH   9  10
ENDBRANCH   1   9
TORSDOF 3
ENDMDL
MODEL 4
REMARK VINA RESULT:      -6.4      1.435      1.894
REMARK  Name = 
REMARK  3 active torsions:
REMARK  status: ('A' for Active; 'I' for Inactive)
REMARK    1  A    between atoms: C_7  and  S_8
REMARK    2  A    between atoms: S_8  and  C_9
REMARK    3  A    between atoms: C_9  and  C_10
REMARK                            x       y       z     vdW  Elec       q    Type
REMARK                         _______ _______ _______ _____ _____    ______ ____
ROOT
ATOM      1  S   UNL     1       4.277   3.360  17.639  0.00  0.00    +0.000 S 
ENDROOT
BRANCH   1   8
ATOM      2 CL   UNL     1       1.088   4.481  17.513  0.00  0.00    +0.000 Cl
ATOM      3  C   UNL     1       1.761   3.737  18.920  0.00  0.00    +0.000 A 
ATOM      4  C   UNL     1       0.947   3.689  20.061  0.00  0.00    +0.000 A 
ATOM      5  C   UNL     1       1.434   3.162  21.257  0.00  0.00    +0.000 A 
ATOM      6  C   UNL     1       2.734   2.671  21.315  0.00  0.00    +0.000 A 
ATOM      7  C   UNL     1       3.547   2.710  20.177  0.00  0.00    +0.000 A 
ATOM      8  C   UNL     1       3.074   3.238  18.964  0.00  0.00    +0.000 A 
ENDBRANCH   1   8
BRANCH   1   9
ATOM      9  C   UNL     1       4.354   5.172  17.361  0.00  0.00    +0.000 C 
BRANCH   9  10
ATOM     10  C   UNL     1       5.686   5.760  17.790  0.00  0.00    +0.000 A 
ATOM     11  C   UNL     1       6.373   5.249  18.893  0.00  0.00    +0.000 A 
ATOM     12  C   UNL     1       7.588   5.821  19.266  0.00  0.00    +0.000 A 
ATOM     13  C   UNL     1       8.080   6.900  18.545  0.00  0.00    +0.000 A 
ATOM     14  C   UNL     1       7.334   7.362  17.475  0.00  0.00    +0.000 A 
ATOM     15  N   UNL     1       6.155   6.823  17.085  0.00  0.00    +0.000 NA
ENDBRANCH   9  10
ENDBRANCH   1   9
TORSDOF 3
ENDMDL
MODEL 5
REMARK VINA RESULT:      -6.3      1.616      2.160
REMARK  Name = 
REMARK  3 active torsions:
REMARK  status: ('A' for Active; 'I' for Inactive)
REMARK    1  A    between atoms: C_7  and  S_8
REMARK    2  A    between atoms: S_8  and  C_9
REMARK    3  A    between atoms: C_9  and  C_10
REMARK                            x       y       z     vdW  Elec       q    Type
REMARK                         _______ _______ _______ _____ _____    ______ ____
ROOT
ATOM      1  S   UNL     1       4.454   3.487  18.087  0.00  0.00    +0.000 S 
ENDROOT
BRANCH   1   8
ATOM      2 CL   UNL     1       1.257   4.454  17.555  0.00  0.00    +0.000 Cl
ATOM      3  C   UNL     1       1.772   3.697  19.021  0.00  0.00    +0.000 A 
ATOM      4  C   UNL     1       0.813   3.571  20.038  0.00  0.00    +0.000 A 
ATOM      5  C   UNL     1       1.162   3.028  21.274  0.00  0.00    +0.000 A 
ATOM      6  C   UNL     1       2.466   2.599  21.497  0.00  0.00    +0.000 A 
ATOM      7  C   UNL     1       3.422   2.716  20.483  0.00  0.00    +0.000 A 
ATOM      8  C   UNL     1       3.091   3.261  19.231  0.00  0.00    +0.000 A 
ENDBRANCH   1   8
BRANCH   1   9
ATOM      9  C   UNL     1       5.758   4.175  19.179  0.00  0.00    +0.000 C 
BRANCH   9  10
ATOM     10  C   UNL     1       6.401   5.417  18.590  0.00  0.00    +0.000 A 
ATOM     11  C   UNL     1       7.612   5.902  19.087  0.00  0.00    +0.000 A 
ATOM     12  C   UNL     1       8.168   7.052  18.531  0.00  0.00    +0.000 A 
ATOM     13  C   UNL     1       7.495   7.704  17.506  0.00  0.00    +0.000 A 
ATOM     14  C   UNL     1       6.290   7.173  17.079  0.00  0.00    +0.000 A 
ATOM     15  N   UNL     1       5.730   6.054  17.594  0.00  0.00    +0.000 NA
ENDBRANCH   9  10
ENDBRANCH   1   9
TORSDOF 3
ENDMDL
MODEL 6
REMARK VINA RESULT:      -6.3      1.869      2.140
REMARK  Name = 
REMARK  3 active torsions:
REMARK  status: ('A' for Active; 'I' for Inactive)
REMARK    1  A    between atoms: C_7  and  S_8
REMARK    2  A    between atoms: S_8  and  C_9
REMARK    3  A    between atoms: C_9  and  C_10
REMARK                            x       y       z     vdW  Elec       q    Type
REMARK                         _______ _______ _______ _____ _____    ______ ____
ROOT
ATOM      1  S   UNL     1       3.120   6.263  17.880  0.00  0.00    +0.000 S 
ENDROOT
BRANCH   1   8
ATOM      2 CL   UNL     1       1.513   5.861  20.828  0.00  0.00    +0.000 Cl
ATOM      3  C   UNL     1       1.720   4.573  19.694  0.00  0.00    +0.000 A 
ATOM      4  C   UNL     1       1.261   3.306  20.086  0.00  0.00    +0.000 A 
ATOM      5  C   UNL     1       1.445   2.200  19.256  0.00  0.00    +0.000 A 
ATOM      6  C   UNL     1       2.078   2.357  18.028  0.00  0.00    +0.000 A 
ATOM      7  C   UNL     1       2.530   3.620  17.631  0.00  0.00    +0.000 A 
ATOM      8  C   UNL     1       2.355   4.746  18.453  0.00  0.00    +0.000 A 
ENDBRANCH   1   8
BRANCH   1   9
ATOM      9  C   UNL     1       4.565   5.632  16.943  0.00  0.00    +0.000 C 
BRANCH   9  10
ATOM     10  C   UNL     1       5.881   6.105  17.534  0.00  0.00    +0.000 A 
ATOM     11  C   UNL     1       6.469   5.431  18.606  0.00  0.00    +0.000 A 
ATOM     12  C   UNL     1       7.671   5.901  19.132  0.00  0.00    +0.000 A 
ATOM     13  C   UNL     1       8.248   7.042  18.591  0.00  0.00    +0.000 A 
ATOM     14  C   UNL     1       7.597   7.665  17.542  0.00  0.00    +0.000 A 
ATOM     15  N   UNL     1       6.434   7.229  17.005  0.00  0.00    +0.000 NA
ENDBRANCH   9  10
ENDBRANCH   1   9
TORSDOF 3
ENDMDL
MODEL 7
REMARK VINA RESULT:      -6.3      2.475      5.754
REMARK  Name = 
REMARK  3 active torsions:
REMARK  status: ('A' for Active; 'I' for Inactive)
REMARK    1  A    between atoms: C_7  and  S_8
REMARK    2  A    between atoms: S_8  and  C_9
REMARK    3  A    between atoms: C_9  and  C_10
REMARK                            x       y       z     vdW  Elec       q    Type
REMARK                         _______ _______ _______ _____ _____    ______ ____
ROOT
ATOM      1  S   UNL     1       3.538   3.948  16.933  0.00  0.00    +0.000 S 
ENDROOT
BRANCH   1   8
ATOM      2 CL   UNL     1       6.339   3.768  15.046  0.00  0.00    +0.000 Cl
ATOM      3  C   UNL     1       6.328   4.437  16.640  0.00  0.00    +0.000 A 
ATOM      4  C   UNL     1       7.566   4.834  17.168  0.00  0.00    +0.000 A 
ATOM      5  C   UNL     1       7.655   5.326  18.470  0.00  0.00    +0.000 A 
ATOM      6  C   UNL     1       6.506   5.433  19.247  0.00  0.00    +0.000 A 
ATOM      7  C   UNL     1       5.269   5.045  18.722  0.00  0.00    +0.000 A 
ATOM      8  C   UNL     1       5.159   4.546  17.413  0.00  0.00    +0.000 A 
ENDBRANCH   1   8
BRANCH   1   9
ATOM      9  C   UNL     1       3.409   2.388  17.889  0.00  0.00    +0.000 C 
BRANCH   9  10
ATOM     10  C   UNL     1       2.676   2.581  19.204  0.00  0.00    +0.000 A 
ATOM     11  C   UNL     1       1.335   2.971  19.226  0.00  0.00    +0.000 A 
ATOM     12  C   UNL     1       0.697   3.152  20.451  0.00  0.00    +0.000 A 
ATOM     13  C   UNL     1       1.413   2.960  21.625  0.00  0.00    +0.000 A 
ATOM     14  C   UNL     1       2.742   2.592  21.523  0.00  0.00    +0.000 A 
ATOM     15  N   UNL     1       3.387   2.402  20.348  0.00  0.00    +0.000 NA
ENDBRANCH   9  10
ENDBRANCH   1   9
TORSDOF 3
ENDMDL
MODEL 8
REMARK VINA RESULT:      -6.3      2.611      5.971
REMARK  Name = 
REMARK  3 active torsions:
REMARK  status: ('A' for Active; 'I' for Inactive)
REMARK    1  A    between atoms: C_7  and  S_8
REMARK    2  A    between atoms: S_8  and  C_9
REMARK    3  A    between atoms: C_9  and  C_10
REMARK                            x       y       z     vdW  Elec       q    Type
REMARK                         _______ _______ _______ _____ _____    ______ ____
ROOT
ATOM      1  S   UNL     1       4.382   4.069  17.160  0.00  0.00    +0.000 S 
ENDROOT
BRANCH   1   8
ATOM      2 CL   UNL     1       5.025   6.921  15.459  0.00  0.00    +0.000 Cl
ATOM      3  C   UNL     1       5.935   6.436  16.847  0.00  0.00    +0.000 A 
ATOM      4  C   UNL     1       7.027   7.242  17.201  0.00  0.00    +0.000 A 
ATOM      5  C   UNL     1       7.851   6.888  18.269  0.00  0.00    +0.000 A 
ATOM      6  C   UNL     1       7.581   5.733  18.995  0.00  0.00    +0.000 A 
ATOM      7  C   UNL     1       6.488   4.931  18.651  0.00  0.00    +0.000 A 
ATOM      8  C   UNL     1       5.647   5.270  17.577  0.00  0.00    +0.000 A 
ENDBRANCH   1   8
BRANCH   1   9
ATOM      9  C   UNL     1       2.859   4.893  17.766  0.00  0.00    +0.000 C 
BRANCH   9  10
ATOM     10  C   UNL     1       2.299   4.218  19.005  0.00  0.00    +0.000 A 
ATOM     11  C   UNL     1       2.642   4.667  20.282  0.00  0.00    +0.000 A 
ATOM     12  C   UNL     1       2.119   4.016  21.398  0.00  0.00    +0.000 A 
ATOM     13  C   UNL     1       1.284   2.921  21.217  0.00  0.00    +0.000 A 
ATOM     14  C   UNL     1       1.005   2.525  19.921  0.00  0.00    +0.000 A 
ATOM     15  N   UNL     1       1.491   3.141  18.818  0.00  0.00    +0.000 NA
ENDBRANCH   9  10
ENDBRANCH   1   9
TORSDOF 3
ENDMDL
MODEL 9
REMARK VINA RESULT:      -6.2      2.540      6.009
REMARK  Name = 
REMARK  3 active torsions:
REMARK  status: ('A' for Active; 'I' for Inactive)
REMARK    1  A    between atoms: C_7  and  S_8
REMARK    2  A    between atoms: S_8  and  C_9
REMARK    3  A    between atoms: C_9  and  C_10
REMARK                            x       y       z     vdW  Elec       q    Type
REMARK                         _______ _______ _______ _____ _____    ______ ____
ROOT
ATOM      1  S   UNL     1       3.872   4.277  17.145  0.00  0.00    +0.000 S 
ENDROOT
BRANCH   1   8
ATOM      2 CL   UNL     1       5.198   6.816  15.347  0.00  0.00    +0.000 Cl
ATOM      3  C   UNL     1       5.868   6.287  16.850  0.00  0.00    +0.000 A 
ATOM      4  C   UNL     1       7.056   6.906  17.266  0.00  0.00    +0.000 A 
ATOM      5  C   UNL     1       7.696   6.496  18.435  0.00  0.00    +0.000 A 
ATOM      6  C   UNL     1       7.146   5.473  19.200  0.00  0.00    +0.000 A 
ATOM      7  C   UNL     1       5.957   4.858  18.793  0.00  0.00    +0.000 A 
ATOM      8  C   UNL     1       5.298   5.257  17.618  0.00  0.00    +0.000 A 
ENDBRANCH   1   8
BRANCH   1   9
ATOM      9  C   UNL     1       4.028   2.820  18.249  0.00  0.00    +0.000 C 
BRANCH   9  10
ATOM     10  C   UNL     1       3.004   2.839  19.369  0.00  0.00    +0.000 A 
ATOM     11  C   UNL     1       1.665   3.139  19.111  0.00  0.00    +0.000 A 
ATOM     12  C   UNL     1       0.754   3.160  20.165  0.00  0.00    +0.000 A 
ATOM     13  C   UNL     1       1.201   2.901  21.454  0.00  0.00    +0.000 A 
ATOM     14  C   UNL     1       2.546   2.630  21.633  0.00  0.00    +0.000 A 
ATOM     15  N   UNL     1       3.453   2.595  20.629  0.00  0.00    +0.000 NA
ENDBRANCH   9  10
ENDBRANCH   1   9
TORSDOF 3
ENDMDL
