MODEL 1
REMARK VINA RESULT:      -7.8      0.000      0.000
REMARK  Name = 
REMARK  10 active torsions:
REMARK  status: ('A' for Active; 'I' for Inactive)
REMARK    1  A    between atoms: C_1  and  C_2
REMARK    2  A    between atoms: C_2  and  C_3
REMARK    3  A    between atoms: C_2  and  N_4
REMARK    4  A    between atoms: C_5  and  C_7
REMARK    5  A    between atoms: C_12  and  C_13
REMARK    6  A    between atoms: C_15  and  C_16
REMARK    7  A    between atoms: C_16  and  O_17
REMARK    8  A    between atoms: C_18  and  O_19
REMARK    9  A    between atoms: C_20  and  O_21
REMARK   10  A    between atoms: C_22  and  O_23
REMARK                            x       y       z     vdW  Elec       q    Type
REMARK                         _______ _______ _______ _____ _____    ______ ____
ROOT
ATOM      1  C   UNL     1       0.459   9.953  21.155  0.00  0.00    +0.000 A 
ATOM      2  C   UNL     1       0.421  10.671  19.947  0.00  0.00    +0.000 A 
ATOM      3  C   UNL     1       1.003  10.163  18.773  0.00  0.00    +0.000 A 
ATOM      4  C   UNL     1       1.622   8.918  18.873  0.00  0.00    +0.000 A 
ATOM      5  N   UNL     1       2.282   8.132  17.960  0.00  0.00    +0.000 N 
ATOM      6  C   UNL     1       2.604   6.943  18.570  0.00  0.00    +0.000 A 
ATOM      7  N   UNL     1       2.303   6.986  19.858  0.00  0.00    +0.000 NA
ATOM      8  C   UNL     1       1.667   8.185  20.051  0.00  0.00    +0.000 A 
ATOM      9  C   UNL     1       1.089   8.702  21.218  0.00  0.00    +0.000 A 
ATOM     10  H   UNL     1       2.428   8.355  16.988  0.00  0.00    +0.000 HD
ENDROOT
BRANCH   6  11
ATOM     11  C   UNL     1       3.069   5.726  17.834  0.00  0.00    +0.000 C 
ATOM     12  O   UNL     1       2.724   4.551  18.600  0.00  0.00    +0.000 OA
ATOM     13  C   UNL     1       3.030   3.346  17.847  0.00  0.00    +0.000 C 
ATOM     14  C   UNL     1       4.555   3.262  17.656  0.00  0.00    +0.000 C 
ATOM     15  C   UNL     1       5.033   4.490  16.870  0.00  0.00    +0.000 C 
ATOM     16  C   UNL     1       4.589   5.790  17.561  0.00  0.00    +0.000 C 
BRANCH  14  17
ATOM     17  O   UNL     1       5.232   3.247  18.926  0.00  0.00    +0.000 OA
ATOM     18  H   UNL     1       5.381   4.169  19.205  0.00  0.00    +0.000 HD
ENDBRANCH  14  17
BRANCH  15  19
ATOM     19  O   UNL     1       6.456   4.449  16.742  0.00  0.00    +0.000 OA
ATOM     20  H   UNL     1       6.669   3.621  16.269  0.00  0.00    +0.000 HD
ENDBRANCH  15  19
BRANCH  16  21
ATOM     21  O   UNL     1       4.956   6.926  16.772  0.00  0.00    +0.000 OA
ATOM     22  H   UNL     1       5.006   7.713  17.345  0.00  0.00    +0.000 HD
ENDBRANCH  16  21
BRANCH  13  23
ATOM     23  C   UNL     1       2.487   2.123  18.592  0.00  0.00    +0.000 C 
BRANCH  23  24
ATOM     24  O   UNL     1       3.384   1.022  18.463  0.00  0.00    +0.000 OA
ATOM     25  H   UNL     1       3.142   0.536  17.652  0.00  0.00    +0.000 HD
ENDBRANCH  23  24
ENDBRANCH  13  23
ENDBRANCH   6  11
BRANCH   1  27
ATOM     26  N   UNL     1      -0.815  11.774  22.181  0.00  0.00    +0.000 N 
ATOM     27  C   UNL     1      -0.137  10.581  22.367  0.00  0.00    +0.000 C 
ATOM     28  O   UNL     1      -0.001  10.047  23.461  0.00  0.00    +0.000 OA
ATOM     29  H   UNL     1      -0.869  12.182  21.258  0.00  0.00    +0.000 HD
BRANCH  26  31
ATOM     30  C   UNL     1      -1.173  13.945  23.249  0.00  0.00    +0.000 C 
ATOM     31  C   UNL     1      -1.498  12.455  23.275  0.00  0.00    +0.000 C 
ATOM     32  C   UNL     1      -3.006  12.232  23.196  0.00  0.00    +0.000 C 
ENDBRANCH  26  31
ENDBRANCH   1  27
TORSDOF 8
ENDMDL
MODEL 2
REMARK VINA RESULT:      -7.6      2.739      3.889
REMARK  Name = 
REMARK  10 active torsions:
REMARK  status: ('A' for Active; 'I' for Inactive)
REMARK    1  A    between atoms: C_1  and  C_2
REMARK    2  A    between atoms: C_2  and  C_3
REMARK    3  A    between atoms: C_2  and  N_4
REMARK    4  A    between atoms: C_5  and  C_7
REMARK    5  A    between atoms: C_12  and  C_13
REMARK    6  A    between atoms: C_15  and  C_16
REMARK    7  A    between atoms: C_16  and  O_17
REMARK    8  A    between atoms: C_18  and  O_19
REMARK    9  A    between atoms: C_20  and  O_21
REMARK   10  A    between atoms: C_22  and  O_23
REMARK                            x       y       z     vdW  Elec       q    Type
REMARK                         _______ _______ _______ _____ _____    ______ ____
ROOT
ATOM      1  C   UNL     1       0.597   9.577  19.150  0.00  0.00    +0.000 A 
ATOM      2  C   UNL     1       0.606   9.158  20.493  0.00  0.00    +0.000 A 
ATOM      3  C   UNL     1       1.367   8.053  20.912  0.00  0.00    +0.000 A 
ATOM      4  C   UNL     1       2.102   7.394  19.927  0.00  0.00    +0.000 A 
ATOM      5  N   UNL     1       2.935   6.303  19.963  0.00  0.00    +0.000 N 
ATOM      6  C   UNL     1       3.490   6.143  18.716  0.00  0.00    +0.000 A 
ATOM      7  N   UNL     1       2.950   6.993  17.857  0.00  0.00    +0.000 NA
ATOM      8  C   UNL     1       2.118   7.792  18.597  0.00  0.00    +0.000 A 
ATOM      9  C   UNL     1       1.352   8.892  18.188  0.00  0.00    +0.000 A 
ATOM     10  H   UNL     1       3.166   5.765  20.785  0.00  0.00    +0.000 HD
ENDROOT
BRANCH   6  11
ATOM     11  C   UNL     1       4.654   5.250  18.427  0.00  0.00    +0.000 C 
ATOM     12  O   UNL     1       5.872   5.918  18.822  0.00  0.00    +0.000 OA
ATOM     13  C   UNL     1       7.009   5.022  18.692  0.00  0.00    +0.000 C 
ATOM     14  C   UNL     1       7.203   4.691  17.202  0.00  0.00    +0.000 C 
ATOM     15  C   UNL     1       5.942   3.996  16.671  0.00  0.00    +0.000 C 
ATOM     16  C   UNL     1       4.693   4.853  16.934  0.00  0.00    +0.000 C 
BRANCH  14  17
ATOM     17  O   UNL     1       7.416   5.889  16.433  0.00  0.00    +0.000 OA
ATOM     18  H   UNL     1       7.365   5.660  15.487  0.00  0.00    +0.000 HD
ENDBRANCH  14  17
BRANCH  15  19
ATOM     19  O   UNL     1       6.092   3.742  15.272  0.00  0.00    +0.000 OA
ATOM     20  H   UNL     1       6.657   4.456  14.919  0.00  0.00    +0.000 HD
ENDBRANCH  15  19
BRANCH  16  21
ATOM     21  O   UNL     1       3.512   4.156  16.523  0.00  0.00    +0.000 OA
ATOM     22  H   UNL     1       2.898   4.090  17.276  0.00  0.00    +0.000 HD
ENDBRANCH  16  21
BRANCH  13  23
ATOM     23  C   UNL     1       8.255   5.681  19.290  0.00  0.00    +0.000 C 
BRANCH  23  24
ATOM     24  O   UNL     1       8.381   5.349  20.670  0.00  0.00    +0.000 OA
ATOM     25  H   UNL     1       9.134   5.857  21.030  0.00  0.00    +0.000 HD
ENDBRANCH  23  24
ENDBRANCH  13  23
ENDBRANCH   6  11
BRANCH   1  27
ATOM     26  N   UNL     1      -1.189  10.511  17.762  0.00  0.00    +0.000 N 
ATOM     27  C   UNL     1      -0.272  10.727  18.777  0.00  0.00    +0.000 C 
ATOM     28  O   UNL     1      -0.143  11.802  19.349  0.00  0.00    +0.000 OA
ATOM     29  H   UNL     1      -1.228   9.610  17.305  0.00  0.00    +0.000 HD
BRANCH  26  31
ATOM     30  C   UNL     1      -2.752  11.166  15.999  0.00  0.00    +0.000 C 
ATOM     31  C   UNL     1      -2.140  11.534  17.347  0.00  0.00    +0.000 C 
ATOM     32  C   UNL     1      -3.231  11.720  18.399  0.00  0.00    +0.000 C 
ENDBRANCH  26  31
ENDBRANCH   1  27
TORSDOF 8
ENDMDL
MODEL 3
REMARK VINA RESULT:      -7.3      6.648      8.092
REMARK  Name = 
REMARK  10 active torsions:
REMARK  status: ('A' for Active; 'I' for Inactive)
REMARK    1  A    between atoms: C_1  and  C_2
REMARK    2  A    between atoms: C_2  and  C_3
REMARK    3  A    between atoms: C_2  and  N_4
REMARK    4  A    between atoms: C_5  and  C_7
REMARK    5  A    between atoms: C_12  and  C_13
REMARK    6  A    between atoms: C_15  and  C_16
REMARK    7  A    between atoms: C_16  and  O_17
REMARK    8  A    between atoms: C_18  and  O_19
REMARK    9  A    between atoms: C_20  and  O_21
REMARK   10  A    between atoms: C_22  and  O_23
REMARK                            x       y       z     vdW  Elec       q    Type
REMARK                         _______ _______ _______ _____ _____    ______ ____
ROOT
ATOM      1  C   UNL     1       8.945  12.122  18.244  0.00  0.00    +0.000 A 
ATOM      2  C   UNL     1       9.727  11.694  19.331  0.00  0.00    +0.000 A 
ATOM      3  C   UNL     1       9.751  10.346  19.731  0.00  0.00    +0.000 A 
ATOM      4  C   UNL     1       8.957   9.465  18.999  0.00  0.00    +0.000 A 
ATOM      5  N   UNL     1       8.732   8.113  19.100  0.00  0.00    +0.000 N 
ATOM      6  C   UNL     1       7.937   7.730  18.048  0.00  0.00    +0.000 A 
ATOM      7  N   UNL     1       7.534   8.787  17.361  0.00  0.00    +0.000 NA
ATOM      8  C   UNL     1       8.182   9.860  17.917  0.00  0.00    +0.000 A 
ATOM      9  C   UNL     1       8.160  11.206  17.529  0.00  0.00    +0.000 A 
ATOM     10  H   UNL     1       9.150   7.496  19.779  0.00  0.00    +0.000 HD
ENDROOT
BRANCH   6  11
ATOM     11  C   UNL     1       7.706   6.306  17.649  0.00  0.00    +0.000 C 
ATOM     12  O   UNL     1       7.247   6.268  16.280  0.00  0.00    +0.000 OA
ATOM     13  C   UNL     1       7.155   4.894  15.814  0.00  0.00    +0.000 C 
ATOM     14  C   UNL     1       6.059   4.176  16.620  0.00  0.00    +0.000 C 
ATOM     15  C   UNL     1       6.439   4.186  18.107  0.00  0.00    +0.000 C 
ATOM     16  C   UNL     1       6.697   5.620  18.597  0.00  0.00    +0.000 C 
BRANCH  14  17
ATOM     17  O   UNL     1       4.792   4.844  16.474  0.00  0.00    +0.000 OA
ATOM     18  H   UNL     1       4.413   4.982  17.361  0.00  0.00    +0.000 HD
ENDBRANCH  14  17
BRANCH  15  19
ATOM     19  O   UNL     1       5.395   3.575  18.870  0.00  0.00    +0.000 OA
ATOM     20  H   UNL     1       5.703   3.555  19.797  0.00  0.00    +0.000 HD
ENDBRANCH  15  19
BRANCH  16  21
ATOM     21  O   UNL     1       7.144   5.612  19.957  0.00  0.00    +0.000 OA
ATOM     22  H   UNL     1       7.391   6.517  20.221  0.00  0.00    +0.000 HD
ENDBRANCH  16  21
BRANCH  13  23
ATOM     23  C   UNL     1       6.851   4.880  14.313  0.00  0.00    +0.000 C 
BRANCH  23  24
ATOM     24  O   UNL     1       6.264   3.637  13.935  0.00  0.00    +0.000 OA
ATOM     25  H   UNL     1       6.990   3.004  13.771  0.00  0.00    +0.000 HD
ENDBRANCH  23  24
ENDBRANCH  13  23
ENDBRANCH   6  11
BRANCH   1  27
ATOM     26  N   UNL     1      10.160  14.216  17.885  0.00  0.00    +0.000 N 
ATOM     27  C   UNL     1       8.934  13.574  17.912  0.00  0.00    +0.000 C 
ATOM     28  O   UNL     1       7.871  14.143  17.697  0.00  0.00    +0.000 OA
ATOM     29  H   UNL     1      11.002  13.699  18.101  0.00  0.00    +0.000 HD
BRANCH  26  31
ATOM     30  C   UNL     1       9.929  16.512  18.693  0.00  0.00    +0.000 C 
ATOM     31  C   UNL     1      10.292  15.619  17.511  0.00  0.00    +0.000 C 
ATOM     32  C   UNL     1      11.707  15.921  17.024  0.00  0.00    +0.000 C 
ENDBRANCH  26  31
ENDBRANCH   1  27
TORSDOF 8
ENDMDL
MODEL 4
REMARK VINA RESULT:      -7.3      1.365      2.681
REMARK  Name = 
REMARK  10 active torsions:
REMARK  status: ('A' for Active; 'I' for Inactive)
REMARK    1  A    between atoms: C_1  and  C_2
REMARK    2  A    between atoms: C_2  and  C_3
REMARK    3  A    between atoms: C_2  and  N_4
REMARK    4  A    between atoms: C_5  and  C_7
REMARK    5  A    between atoms: C_12  and  C_13
REMARK    6  A    between atoms: C_15  and  C_16
REMARK    7  A    between atoms: C_16  and  O_17
REMARK    8  A    between atoms: C_18  and  O_19
REMARK    9  A    between atoms: C_20  and  O_21
REMARK   10  A    between atoms: C_22  and  O_23
REMARK                            x       y       z     vdW  Elec       q    Type
REMARK                         _______ _______ _______ _____ _____    ______ ____
ROOT
ATOM      1  C   UNL     1       0.095  10.045  21.220  0.00  0.00    +0.000 A 
ATOM      2  C   UNL     1       0.444  10.490  19.932  0.00  0.00    +0.000 A 
ATOM      3  C   UNL     1       1.201   9.690  19.059  0.00  0.00    +0.000 A 
ATOM      4  C   UNL     1       1.591   8.441  19.541  0.00  0.00    +0.000 A 
ATOM      5  N   UNL     1       2.322   7.418  18.986  0.00  0.00    +0.000 N 
ATOM      6  C   UNL     1       2.316   6.361  19.864  0.00  0.00    +0.000 A 
ATOM      7  N   UNL     1       1.735   6.706  21.002  0.00  0.00    +0.000 NA
ATOM      8  C   UNL     1       1.254   7.974  20.804  0.00  0.00    +0.000 A 
ATOM      9  C   UNL     1       0.504   8.782  21.669  0.00  0.00    +0.000 A 
ATOM     10  H   UNL     1       2.720   7.414  18.060  0.00  0.00    +0.000 HD
ENDROOT
BRANCH   6  11
ATOM     11  C   UNL     1       2.756   4.976  19.508  0.00  0.00    +0.000 C 
ATOM     12  O   UNL     1       3.538   5.026  18.294  0.00  0.00    +0.000 OA
ATOM     13  C   UNL     1       4.104   3.720  18.000  0.00  0.00    +0.000 C 
ATOM     14  C   UNL     1       2.953   2.746  17.691  0.00  0.00    +0.000 C 
ATOM     15  C   UNL     1       2.038   2.641  18.919  0.00  0.00    +0.000 C 
ATOM     16  C   UNL     1       1.543   4.030  19.353  0.00  0.00    +0.000 C 
BRANCH  14  17
ATOM     17  O   UNL     1       2.166   3.216  16.581  0.00  0.00    +0.000 OA
ATOM     18  H   UNL     1       2.642   3.952  16.156  0.00  0.00    +0.000 HD
ENDBRANCH  14  17
BRANCH  15  19
ATOM     19  O   UNL     1       0.933   1.786  18.617  0.00  0.00    +0.000 OA
ATOM     20  H   UNL     1       0.789   1.229  19.407  0.00  0.00    +0.000 HD
ENDBRANCH  15  19
BRANCH  16  21
ATOM     21  O   UNL     1       0.770   3.933  20.554  0.00  0.00    +0.000 OA
ATOM     22  H   UNL     1       1.369   3.913  21.322  0.00  0.00    +0.000 HD
ENDBRANCH  16  21
BRANCH  13  23
ATOM     23  C   UNL     1       5.076   3.835  16.822  0.00  0.00    +0.000 C 
BRANCH  23  24
ATOM     24  O   UNL     1       6.411   4.004  17.292  0.00  0.00    +0.000 OA
ATOM     25  H   UNL     1       6.940   4.371  16.558  0.00  0.00    +0.000 HD
ENDBRANCH  23  24
ENDBRANCH  13  23
ENDBRANCH   6  11
BRANCH   1  27
ATOM     26  N   UNL     1      -1.527  11.859  21.480  0.00  0.00    +0.000 N 
ATOM     27  C   UNL     1      -0.667  10.971  22.103  0.00  0.00    +0.000 C 
ATOM     28  O   UNL     1      -0.503  10.932  23.316  0.00  0.00    +0.000 OA
ATOM     29  H   UNL     1      -1.598  11.865  20.471  0.00  0.00    +0.000 HD
BRANCH  26  31
ATOM     30  C   UNL     1      -1.769  14.171  22.240  0.00  0.00    +0.000 C 
ATOM     31  C   UNL     1      -2.377  12.772  22.234  0.00  0.00    +0.000 C 
ATOM     32  C   UNL     1      -3.790  12.803  21.655  0.00  0.00    +0.000 C 
ENDBRANCH  26  31
ENDBRANCH   1  27
TORSDOF 8
ENDMDL
MODEL 5
REMARK VINA RESULT:      -7.3      1.460      1.751
REMARK  Name = 
REMARK  10 active torsions:
REMARK  status: ('A' for Active; 'I' for Inactive)
REMARK    1  A    between atoms: C_1  and  C_2
REMARK    2  A    between atoms: C_2  and  C_3
REMARK    3  A    between atoms: C_2  and  N_4
REMARK    4  A    between atoms: C_5  and  C_7
REMARK    5  A    between atoms: C_12  and  C_13
REMARK    6  A    between atoms: C_15  and  C_16
REMARK    7  A    between atoms: C_16  and  O_17
REMARK    8  A    between atoms: C_18  and  O_19
REMARK    9  A    between atoms: C_20  and  O_21
REMARK   10  A    between atoms: C_22  and  O_23
REMARK                            x       y       z     vdW  Elec       q    Type
REMARK                         _______ _______ _______ _____ _____    ______ ____
ROOT
ATOM      1  C   UNL     1       0.554  10.856  20.132  0.00  0.00    +0.000 A 
ATOM      2  C   UNL     1       0.915  11.283  18.842  0.00  0.00    +0.000 A 
ATOM      3  C   UNL     1       1.594  10.434  17.951  0.00  0.00    +0.000 A 
ATOM      4  C   UNL     1       1.894   9.154  18.417  0.00  0.00    +0.000 A 
ATOM      5  N   UNL     1       2.534   8.083  17.843  0.00  0.00    +0.000 N 
ATOM      6  C   UNL     1       2.460   7.022  18.713  0.00  0.00    +0.000 A 
ATOM      7  N   UNL     1       1.926   7.401  19.862  0.00  0.00    +0.000 NA
ATOM      8  C   UNL     1       1.542   8.705  19.682  0.00  0.00    +0.000 A 
ATOM      9  C   UNL     1       0.870   9.560  20.565  0.00  0.00    +0.000 A 
ATOM     10  H   UNL     1       2.916   8.056  16.910  0.00  0.00    +0.000 HD
ENDROOT
BRANCH   6  11
ATOM     11  C   UNL     1       2.785   5.610  18.339  0.00  0.00    +0.000 C 
ATOM     12  O   UNL     1       1.825   4.725  18.957  0.00  0.00    +0.000 OA
ATOM     13  C   UNL     1       2.023   3.361  18.496  0.00  0.00    +0.000 C 
ATOM     14  C   UNL     1       3.394   2.869  18.993  0.00  0.00    +0.000 C 
ATOM     15  C   UNL     1       4.493   3.769  18.412  0.00  0.00    +0.000 C 
ATOM     16  C   UNL     1       4.229   5.245  18.750  0.00  0.00    +0.000 C 
BRANCH  14  17
ATOM     17  O   UNL     1       3.473   2.933  20.429  0.00  0.00    +0.000 OA
ATOM     18  H   UNL     1       3.059   2.130  20.796  0.00  0.00    +0.000 HD
ENDBRANCH  14  17
BRANCH  15  19
ATOM     19  O   UNL     1       5.764   3.356  18.919  0.00  0.00    +0.000 OA
ATOM     20  H   UNL     1       5.663   3.275  19.888  0.00  0.00    +0.000 HD
ENDBRANCH  15  19
BRANCH  16  21
ATOM     21  O   UNL     1       5.205   6.084  18.123  0.00  0.00    +0.000 OA
ATOM     22  H   UNL     1       4.789   6.565  17.385  0.00  0.00    +0.000 HD
ENDBRANCH  16  21
BRANCH  13  23
ATOM     23  C   UNL     1       0.886   2.474  19.012  0.00  0.00    +0.000 C 
BRANCH  23  24
ATOM     24  O   UNL     1       0.400   2.963  20.261  0.00  0.00    +0.000 OA
ATOM     25  H   UNL     1      -0.474   2.557  20.418  0.00  0.00    +0.000 HD
ENDBRANCH  23  24
ENDBRANCH  13  23
ENDBRANCH   6  11
BRANCH   1  27
ATOM     26  N   UNL     1      -1.504  11.854  21.003  0.00  0.00    +0.000 N 
ATOM     27  C   UNL     1      -0.120  11.830  21.034  0.00  0.00    +0.000 C 
ATOM     28  O   UNL     1       0.551  12.571  21.743  0.00  0.00    +0.000 OA
ATOM     29  H   UNL     1      -2.002  11.239  20.375  0.00  0.00    +0.000 HD
BRANCH  26  31
ATOM     30  C   UNL     1      -3.555  13.175  21.177  0.00  0.00    +0.000 C 
ATOM     31  C   UNL     1      -2.283  12.716  21.884  0.00  0.00    +0.000 C 
ATOM     32  C   UNL     1      -2.623  11.996  23.187  0.00  0.00    +0.000 C 
ENDBRANCH  26  31
ENDBRANCH   1  27
TORSDOF 8
ENDMDL
MODEL 6
REMARK VINA RESULT:      -7.2      2.671      4.144
REMARK  Name = 
REMARK  10 active torsions:
REMARK  status: ('A' for Active; 'I' for Inactive)
REMARK    1  A    between atoms: C_1  and  C_2
REMARK    2  A    between atoms: C_2  and  C_3
REMARK    3  A    between atoms: C_2  and  N_4
REMARK    4  A    between atoms: C_5  and  C_7
REMARK    5  A    between atoms: C_12  and  C_13
REMARK    6  A    between atoms: C_15  and  C_16
REMARK    7  A    between atoms: C_16  and  O_17
REMARK    8  A    between atoms: C_18  and  O_19
REMARK    9  A    between atoms: C_20  and  O_21
REMARK   10  A    between atoms: C_22  and  O_23
REMARK                            x       y       z     vdW  Elec       q    Type
REMARK                         _______ _______ _______ _____ _____    ______ ____
ROOT
ATOM      1  C   UNL     1      -0.101  10.101  18.700  0.00  0.00    +0.000 A 
ATOM      2  C   UNL     1      -0.124  10.067  20.106  0.00  0.00    +0.000 A 
ATOM      3  C   UNL     1       0.656   9.149  20.830  0.00  0.00    +0.000 A 
ATOM      4  C   UNL     1       1.443   8.274  20.082  0.00  0.00    +0.000 A 
ATOM      5  N   UNL     1       2.307   7.267  20.437  0.00  0.00    +0.000 N 
ATOM      6  C   UNL     1       2.907   6.793  19.295  0.00  0.00    +0.000 A 
ATOM      7  N   UNL     1       2.370   7.353  18.223  0.00  0.00    +0.000 NA
ATOM      8  C   UNL     1       1.490   8.292  18.695  0.00  0.00    +0.000 A 
ATOM      9  C   UNL     1       0.705   9.207  17.981  0.00  0.00    +0.000 A 
ATOM     10  H   UNL     1       2.527   6.984  21.379  0.00  0.00    +0.000 HD
ENDROOT
BRANCH   6  11
ATOM     11  C   UNL     1       4.107   5.899  19.290  0.00  0.00    +0.000 C 
ATOM     12  O   UNL     1       4.886   6.160  18.101  0.00  0.00    +0.000 OA
ATOM     13  C   UNL     1       6.133   5.415  18.138  0.00  0.00    +0.000 C 
ATOM     14  C   UNL     1       5.808   3.913  18.077  0.00  0.00    +0.000 C 
ATOM     15  C   UNL     1       4.951   3.533  19.292  0.00  0.00    +0.000 C 
ATOM     16  C   UNL     1       3.693   4.412  19.372  0.00  0.00    +0.000 C 
BRANCH  14  17
ATOM     17  O   UNL     1       5.066   3.595  16.885  0.00  0.00    +0.000 OA
ATOM     18  H   UNL     1       5.572   3.911  16.115  0.00  0.00    +0.000 HD
ENDBRANCH  14  17
BRANCH  15  19
ATOM     19  O   UNL     1       4.594   2.151  19.210  0.00  0.00    +0.000 OA
ATOM     20  H   UNL     1       5.090   1.693  19.916  0.00  0.00    +0.000 HD
ENDBRANCH  15  19
BRANCH  16  21
ATOM     21  O   UNL     1       2.950   4.117  20.559  0.00  0.00    +0.000 OA
ATOM     22  H   UNL     1       2.152   4.675  20.587  0.00  0.00    +0.000 HD
ENDBRANCH  16  21
BRANCH  13  23
ATOM     23  C   UNL     1       7.023   5.847  16.969  0.00  0.00    +0.000 C 
BRANCH  23  24
ATOM     24  O   UNL     1       7.710   4.723  16.424  0.00  0.00    +0.000 OA
ATOM     25  H   UNL     1       8.637   4.988  16.269  0.00  0.00    +0.000 HD
ENDBRANCH  23  24
ENDBRANCH  13  23
ENDBRANCH   6  11
BRANCH   1  27
ATOM     26  N   UNL     1      -1.913  10.541  17.115  0.00  0.00    +0.000 N 
ATOM     27  C   UNL     1      -0.993  11.070  18.004  0.00  0.00    +0.000 C 
ATOM     28  O   UNL     1      -0.877  12.270  18.220  0.00  0.00    +0.000 OA
ATOM     29  H   UNL     1      -1.942   9.544  16.955  0.00  0.00    +0.000 HD
BRANCH  26  31
ATOM     30  C   UNL     1      -3.193  10.790  15.046  0.00  0.00    +0.000 C 
ATOM     31  C   UNL     1      -2.885  11.376  16.419  0.00  0.00    +0.000 C 
ATOM     32  C   UNL     1      -4.164  11.521  17.241  0.00  0.00    +0.000 C 
ENDBRANCH  26  31
ENDBRANCH   1  27
TORSDOF 8
ENDMDL
MODEL 7
REMARK VINA RESULT:      -7.2      2.365      3.538
REMARK  Name = 
REMARK  10 active torsions:
REMARK  status: ('A' for Active; 'I' for Inactive)
REMARK    1  A    between atoms: C_1  and  C_2
REMARK    2  A    between atoms: C_2  and  C_3
REMARK    3  A    between atoms: C_2  and  N_4
REMARK    4  A    between atoms: C_5  and  C_7
REMARK    5  A    between atoms: C_12  and  C_13
REMARK    6  A    between atoms: C_15  and  C_16
REMARK    7  A    between atoms: C_16  and  O_17
REMARK    8  A    between atoms: C_18  and  O_19
REMARK    9  A    between atoms: C_20  and  O_21
REMARK   10  A    between atoms: C_22  and  O_23
REMARK                            x       y       z     vdW  Elec       q    Type
REMARK                         _______ _______ _______ _____ _____    ______ ____
ROOT
ATOM      1  C   UNL     1       0.657   9.594  19.205  0.00  0.00    +0.000 A 
ATOM      2  C   UNL     1       0.665   9.150  20.539  0.00  0.00    +0.000 A 
ATOM      3  C   UNL     1       1.412   8.027  20.935  0.00  0.00    +0.000 A 
ATOM      4  C   UNL     1       2.134   7.377  19.935  0.00  0.00    +0.000 A 
ATOM      5  N   UNL     1       2.952   6.273  19.947  0.00  0.00    +0.000 N 
ATOM      6  C   UNL     1       3.499   6.129  18.695  0.00  0.00    +0.000 A 
ATOM      7  N   UNL     1       2.968   7.001  17.854  0.00  0.00    +0.000 NA
ATOM      8  C   UNL     1       2.150   7.798  18.612  0.00  0.00    +0.000 A 
ATOM      9  C   UNL     1       1.398   8.916  18.227  0.00  0.00    +0.000 A 
ATOM     10  H   UNL     1       3.178   5.717  20.758  0.00  0.00    +0.000 HD
ENDROOT
BRANCH   6  11
ATOM     11  C   UNL     1       4.650   5.224  18.385  0.00  0.00    +0.000 C 
ATOM     12  O   UNL     1       5.876   5.856  18.814  0.00  0.00    +0.000 OA
ATOM     13  C   UNL     1       6.997   4.943  18.661  0.00  0.00    +0.000 C 
ATOM     14  C   UNL     1       7.199   4.661  17.162  0.00  0.00    +0.000 C 
ATOM     15  C   UNL     1       5.930   4.009  16.596  0.00  0.00    +0.000 C 
ATOM     16  C   UNL     1       4.695   4.880  16.879  0.00  0.00    +0.000 C 
BRANCH  14  17
ATOM     17  O   UNL     1       7.441   5.882  16.438  0.00  0.00    +0.000 OA
ATOM     18  H   UNL     1       7.049   6.620  16.939  0.00  0.00    +0.000 HD
ENDBRANCH  14  17
BRANCH  15  19
ATOM     19  O   UNL     1       6.088   3.801  15.191  0.00  0.00    +0.000 OA
ATOM     20  H   UNL     1       6.823   3.166  15.085  0.00  0.00    +0.000 HD
ENDBRANCH  15  19
BRANCH  16  21
ATOM     21  O   UNL     1       3.505   4.220  16.433  0.00  0.00    +0.000 OA
ATOM     22  H   UNL     1       2.727   4.732  16.718  0.00  0.00    +0.000 HD
ENDBRANCH  16  21
BRANCH  13  23
ATOM     23  C   UNL     1       8.249   5.558  19.293  0.00  0.00    +0.000 C 
BRANCH  23  24
ATOM     24  O   UNL     1       8.180   5.483  20.715  0.00  0.00    +0.000 OA
ATOM     25  H   UNL     1       9.019   5.098  21.033  0.00  0.00    +0.000 HD
ENDBRANCH  23  24
ENDBRANCH  13  23
ENDBRANCH   6  11
BRANCH   1  27
ATOM     26  N   UNL     1       0.061  11.946  19.527  0.00  0.00    +0.000 N 
ATOM     27  C   UNL     1      -0.198  10.763  18.856  0.00  0.00    +0.000 C 
ATOM     28  O   UNL     1      -1.088  10.641  18.024  0.00  0.00    +0.000 OA
ATOM     29  H   UNL     1       0.790  11.977  20.226  0.00  0.00    +0.000 HD
BRANCH  26  31
ATOM     30  C   UNL     1      -1.564  13.550  20.402  0.00  0.00    +0.000 C 
ATOM     31  C   UNL     1      -0.661  13.177  19.231  0.00  0.00    +0.000 C 
ATOM     32  C   UNL     1       0.309  14.314  18.918  0.00  0.00    +0.000 C 
ENDBRANCH  26  31
ENDBRANCH   1  27
TORSDOF 8
ENDMDL
MODEL 8
REMARK VINA RESULT:      -7.1      1.219      1.429
REMARK  Name = 
REMARK  10 active torsions:
REMARK  status: ('A' for Active; 'I' for Inactive)
REMARK    1  A    between atoms: C_1  and  C_2
REMARK    2  A    between atoms: C_2  and  C_3
REMARK    3  A    between atoms: C_2  and  N_4
REMARK    4  A    between atoms: C_5  and  C_7
REMARK    5  A    between atoms: C_12  and  C_13
REMARK    6  A    between atoms: C_15  and  C_16
REMARK    7  A    between atoms: C_16  and  O_17
REMARK    8  A    between atoms: C_18  and  O_19
REMARK    9  A    between atoms: C_20  and  O_21
REMARK   10  A    between atoms: C_22  and  O_23
REMARK                            x       y       z     vdW  Elec       q    Type
REMARK                         _______ _______ _______ _____ _____    ______ ____
ROOT
ATOM      1  C   UNL     1       0.421  10.573  20.893  0.00  0.00    +0.000 A 
ATOM      2  C   UNL     1       0.572  11.112  19.603  0.00  0.00    +0.000 A 
ATOM      3  C   UNL     1       1.174  10.378  18.567  0.00  0.00    +0.000 A 
ATOM      4  C   UNL     1       1.618   9.095  18.888  0.00  0.00    +0.000 A 
ATOM      5  N   UNL     1       2.240   8.116  18.154  0.00  0.00    +0.000 N 
ATOM      6  C   UNL     1       2.356   6.996  18.942  0.00  0.00    +0.000 A 
ATOM      7  N   UNL     1       1.962   7.256  20.178  0.00  0.00    +0.000 NA
ATOM      8  C   UNL     1       1.474   8.537  20.151  0.00  0.00    +0.000 A 
ATOM      9  C   UNL     1       0.877   9.278  21.179  0.00  0.00    +0.000 A 
ATOM     10  H   UNL     1       2.490   8.180  17.179  0.00  0.00    +0.000 HD
ENDROOT
BRANCH   6  11
ATOM     11  C   UNL     1       2.717   5.641  18.420  0.00  0.00    +0.000 C 
ATOM     12  O   UNL     1       1.814   4.663  18.982  0.00  0.00    +0.000 OA
ATOM     13  C   UNL     1       2.042   3.358  18.383  0.00  0.00    +0.000 C 
ATOM     14  C   UNL     1       3.448   2.876  18.782  0.00  0.00    +0.000 C 
ATOM     15  C   UNL     1       4.491   3.870  18.253  0.00  0.00    +0.000 C 
ATOM     16  C   UNL     1       4.188   5.295  18.743  0.00  0.00    +0.000 C 
BRANCH  14  17
ATOM     17  O   UNL     1       3.580   2.803  20.213  0.00  0.00    +0.000 OA
ATOM     18  H   UNL     1       3.729   1.873  20.462  0.00  0.00    +0.000 HD
ENDBRANCH  14  17
BRANCH  15  19
ATOM     19  O   UNL     1       5.795   3.460  18.673  0.00  0.00    +0.000 OA
ATOM     20  H   UNL     1       6.316   4.277  18.796  0.00  0.00    +0.000 HD
ENDBRANCH  15  19
BRANCH  16  21
ATOM     21  O   UNL     1       5.108   6.228  18.168  0.00  0.00    +0.000 OA
ATOM     22  H   UNL     1       5.142   7.030  18.721  0.00  0.00    +0.000 HD
ENDBRANCH  16  21
BRANCH  13  23
ATOM     23  C   UNL     1       0.959   2.382  18.850  0.00  0.00    +0.000 C 
BRANCH  23  24
ATOM     24  O   UNL     1       0.464   2.761  20.132  0.00  0.00    +0.000 OA
ATOM     25  H   UNL     1      -0.438   2.397  20.221  0.00  0.00    +0.000 HD
ENDBRANCH  23  24
ENDBRANCH  13  23
ENDBRANCH   6  11
BRANCH   1  27
ATOM     26  N   UNL     1      -0.480  12.737  21.596  0.00  0.00    +0.000 N 
ATOM     27  C   UNL     1      -0.183  11.431  21.949  0.00  0.00    +0.000 C 
ATOM     28  O   UNL     1      -0.378  10.976  23.069  0.00  0.00    +0.000 OA
ATOM     29  H   UNL     1      -0.269  13.065  20.664  0.00  0.00    +0.000 HD
BRANCH  26  31
ATOM     30  C   UNL     1      -0.301  14.928  22.667  0.00  0.00    +0.000 C 
ATOM     31  C   UNL     1      -1.133  13.659  22.518  0.00  0.00    +0.000 C 
ATOM     32  C   UNL     1      -2.544  13.994  22.043  0.00  0.00    +0.000 C 
ENDBRANCH  26  31
ENDBRANCH   1  27
TORSDOF 8
ENDMDL
MODEL 9
REMARK VINA RESULT:      -7.1      2.478      9.075
REMARK  Name = 
REMARK  10 active torsions:
REMARK  status: ('A' for Active; 'I' for Inactive)
REMARK    1  A    between atoms: C_1  and  C_2
REMARK    2  A    between atoms: C_2  and  C_3
REMARK    3  A    between atoms: C_2  and  N_4
REMARK    4  A    between atoms: C_5  and  C_7
REMARK    5  A    between atoms: C_12  and  C_13
REMARK    6  A    between atoms: C_15  and  C_16
REMARK    7  A    between atoms: C_16  and  O_17
REMARK    8  A    between atoms: C_18  and  O_19
REMARK    9  A    between atoms: C_20  and  O_21
REMARK   10  A    between atoms: C_22  and  O_23
REMARK                            x       y       z     vdW  Elec       q    Type
REMARK                         _______ _______ _______ _____ _____    ______ ____
ROOT
ATOM      1  C   UNL     1       3.394   5.042  18.583  0.00  0.00    +0.000 A 
ATOM      2  C   UNL     1       3.010   4.503  19.823  0.00  0.00    +0.000 A 
ATOM      3  C   UNL     1       2.274   5.255  20.755  0.00  0.00    +0.000 A 
ATOM      4  C   UNL     1       1.954   6.562  20.386  0.00  0.00    +0.000 A 
ATOM      5  N   UNL     1       1.269   7.566  21.024  0.00  0.00    +0.000 N 
ATOM      6  C   UNL     1       1.150   8.625  20.157  0.00  0.00    +0.000 A 
ATOM      7  N   UNL     1       1.841   8.398  19.051  0.00  0.00    +0.000 NA
ATOM      8  C   UNL     1       2.314   7.116  19.165  0.00  0.00    +0.000 A 
ATOM      9  C   UNL     1       3.052   6.359  18.245  0.00  0.00    +0.000 A 
ATOM     10  H   UNL     1       0.850   7.504  21.939  0.00  0.00    +0.000 HD
ENDROOT
BRANCH   6  11
ATOM     11  C   UNL     1       0.233   9.786  20.375  0.00  0.00    +0.000 C 
ATOM     12  O   UNL     1       0.644  10.880  19.525  0.00  0.00    +0.000 OA
ATOM     13  C   UNL     1      -0.312  11.971  19.603  0.00  0.00    +0.000 C 
ATOM     14  C   UNL     1      -0.285  12.545  21.031  0.00  0.00    +0.000 C 
ATOM     15  C   UNL     1      -0.683  11.446  22.024  0.00  0.00    +0.000 C 
ATOM     16  C   UNL     1       0.215  10.209  21.861  0.00  0.00    +0.000 C 
BRANCH  14  17
ATOM     17  O   UNL     1       1.035  13.007  21.374  0.00  0.00    +0.000 OA
ATOM     18  H   UNL     1       1.614  12.887  20.599  0.00  0.00    +0.000 HD
ENDBRANCH  14  17
BRANCH  15  19
ATOM     19  O   UNL     1      -0.600  11.956  23.357  0.00  0.00    +0.000 OA
ATOM     20  H   UNL     1       0.297  11.743  23.680  0.00  0.00    +0.000 HD
ENDBRANCH  15  19
BRANCH  16  21
ATOM     21  O   UNL     1      -0.225   9.154  22.724  0.00  0.00    +0.000 OA
ATOM     22  H   UNL     1      -0.852   8.585  22.243  0.00  0.00    +0.000 HD
ENDBRANCH  16  21
BRANCH  13  23
ATOM     23  C   UNL     1       0.038  13.037  18.561  0.00  0.00    +0.000 C 
BRANCH  23  24
ATOM     24  O   UNL     1      -0.896  13.008  17.484  0.00  0.00    +0.000 OA
ATOM     25  H   UNL     1      -0.392  13.087  16.652  0.00  0.00    +0.000 HD
ENDBRANCH  23  24
ENDBRANCH  13  23
ENDBRANCH   6  11
BRANCH   1  27
ATOM     26  N   UNL     1       5.077   4.861  16.816  0.00  0.00    +0.000 N 
ATOM     27  C   UNL     1       4.213   4.198  17.670  0.00  0.00    +0.000 C 
ATOM     28  O   UNL     1       4.091   2.980  17.691  0.00  0.00    +0.000 OA
ATOM     29  H   UNL     1       5.114   5.872  16.823  0.00  0.00    +0.000 HD
BRANCH  26  31
ATOM     30  C   UNL     1       5.548   4.349  14.471  0.00  0.00    +0.000 C 
ATOM     31  C   UNL     1       5.980   4.148  15.920  0.00  0.00    +0.000 C 
ATOM     32  C   UNL     1       7.421   4.611  16.119  0.00  0.00    +0.000 C 
ENDBRANCH  26  31
ENDBRANCH   1  27
TORSDOF 8
ENDMDL
