MODEL 1
REMARK VINA RESULT:      -7.5      0.000      0.000
REMARK  Name = 
REMARK  12 active torsions:
REMARK  status: ('A' for Active; 'I' for Inactive)
REMARK    1  A    between atoms: C_1  and  C_2
REMARK    2  A    between atoms: C_2  and  C_3
REMARK    3  A    between atoms: C_3  and  C_4
REMARK    4  A    between atoms: C_4  and  C_5
REMARK    5  A    between atoms: C_5  and  C_6
REMARK    6  A    between atoms: C_6  and  S_7
REMARK    7  A    between atoms: S_7  and  C_10
REMARK    8  A    between atoms: C_13  and  C_14
REMARK    9  A    between atoms: C_14  and  C_16
REMARK   10  A    between atoms: C_16  and  C_17
REMARK   11  A    between atoms: C_17  and  N_18
REMARK   12  A    between atoms: C_20  and  C_21
REMARK                            x       y       z     vdW  Elec       q    Type
REMARK                         _______ _______ _______ _____ _____    ______ ____
ROOT
ATOM      1  C   UNL     1       5.685   5.642  17.522  0.00  0.00    +0.000 A 
ATOM      2  C   UNL     1       5.656   4.882  18.683  0.00  0.00    +0.000 A 
ATOM      3  C   UNL     1       4.565   5.005  19.549  0.00  0.00    +0.000 A 
ATOM      4  C   UNL     1       3.512   5.891  19.280  0.00  0.00    +0.000 A 
ATOM      5  C   UNL     1       3.543   6.627  18.085  0.00  0.00    +0.000 A 
ATOM      6 CL   UNL     1       2.325   7.753  17.601  0.00  0.00    +0.000 Cl
ATOM      7  C   UNL     1       4.632   6.513  17.213  0.00  0.00    +0.000 A 
ENDROOT
BRANCH   1   8
ATOM      8  S   UNL     1       7.104   5.591  16.456  0.00  0.00    +0.000 S 
ATOM      9  O   UNL     1       7.847   4.397  16.798  0.00  0.00    +0.000 OA
ATOM     10  O   UNL     1       7.716   6.907  16.541  0.00  0.00    +0.000 OA
BRANCH   8  11
ATOM     11  C   UNL     1       6.420   5.379  14.822  0.00  0.00    +0.000 C 
BRANCH  11  12
ATOM     12  C   UNL     1       6.171   3.901  14.539  0.00  0.00    +0.000 C 
BRANCH  12  13
ATOM     13  C   UNL     1       6.284   3.575  13.051  0.00  0.00    +0.000 C 
BRANCH  13  14
ATOM     14  C   UNL     1       4.916   3.678  12.376  0.00  0.00    +0.000 C 
BRANCH  14  16
ATOM     15  C   UNL     1       5.881   1.615  11.316  0.00  0.00    +0.000 C 
ATOM     16  C   UNL     1       4.744   2.623  11.286  0.00  0.00    +0.000 C 
ENDBRANCH  14  16
ENDBRANCH  13  14
ENDBRANCH  12  13
ENDBRANCH  11  12
ENDBRANCH   8  11
ENDBRANCH   1   8
BRANCH   4  17
ATOM     17  C   UNL     1       2.405   5.987  20.297  0.00  0.00    +0.000 C 
ATOM     18  O   UNL     1       1.814   7.048  20.457  0.00  0.00    +0.000 OA
BRANCH  17  19
ATOM     19  C   UNL     1       1.965   4.717  21.041  0.00  0.00    +0.000 C 
BRANCH  19  20
ATOM     20  C   UNL     1       0.880   3.904  20.316  0.00  0.00    +0.000 C 
BRANCH  20  21
ATOM     21  N   UNL     1       1.421   2.636  19.782  0.00  0.00    +0.000 NA
ATOM     22  C   UNL     1       0.647   2.109  18.646  0.00  0.00    +0.000 C 
ATOM     23  C   UNL     1       1.996   2.738  18.437  0.00  0.00    +0.000 C 
ATOM     24  C   UNL     1       3.166   1.889  18.075  0.00  0.00    +0.000 C 
ENDBRANCH  20  21
ENDBRANCH  19  20
ENDBRANCH  17  19
ENDBRANCH   4  17
TORSDOF 10
ENDMDL
MODEL 2
REMARK VINA RESULT:      -7.2      3.232      5.179
REMARK  Name = 
REMARK  12 active torsions:
REMARK  status: ('A' for Active; 'I' for Inactive)
REMARK    1  A    between atoms: C_1  and  C_2
REMARK    2  A    between atoms: C_2  and  C_3
REMARK    3  A    between atoms: C_3  and  C_4
REMARK    4  A    between atoms: C_4  and  C_5
REMARK    5  A    between atoms: C_5  and  C_6
REMARK    6  A    between atoms: C_6  and  S_7
REMARK    7  A    between atoms: S_7  and  C_10
REMARK    8  A    between atoms: C_13  and  C_14
REMARK    9  A    between atoms: C_14  and  C_16
REMARK   10  A    between atoms: C_16  and  C_17
REMARK   11  A    between atoms: C_17  and  N_18
REMARK   12  A    between atoms: C_20  and  C_21
REMARK                            x       y       z     vdW  Elec       q    Type
REMARK                         _______ _______ _______ _____ _____    ______ ____
ROOT
ATOM      1  C   UNL     1       5.620   4.985  17.778  0.00  0.00    +0.000 A 
ATOM      2  C   UNL     1       5.159   3.875  17.085  0.00  0.00    +0.000 A 
ATOM      3  C   UNL     1       3.786   3.612  17.058  0.00  0.00    +0.000 A 
ATOM      4  C   UNL     1       2.870   4.432  17.732  0.00  0.00    +0.000 A 
ATOM      5  C   UNL     1       3.352   5.568  18.401  0.00  0.00    +0.000 A 
ATOM      6 CL   UNL     1       2.358   6.683  19.272  0.00  0.00    +0.000 Cl
ATOM      7  C   UNL     1       4.724   5.838  18.436  0.00  0.00    +0.000 A 
ENDROOT
BRANCH   1   8
ATOM      8  S   UNL     1       7.365   5.287  17.923  0.00  0.00    +0.000 S 
ATOM      9  O   UNL     1       8.027   4.390  17.000  0.00  0.00    +0.000 OA
ATOM     10  O   UNL     1       7.660   5.254  19.346  0.00  0.00    +0.000 OA
BRANCH   8  11
ATOM     11  C   UNL     1       7.572   6.957  17.331  0.00  0.00    +0.000 C 
BRANCH  11  12
ATOM     12  C   UNL     1       8.282   7.807  18.379  0.00  0.00    +0.000 C 
BRANCH  12  13
ATOM     13  C   UNL     1       8.302   9.287  18.001  0.00  0.00    +0.000 C 
BRANCH  13  14
ATOM     14  C   UNL     1       9.064  10.096  19.051  0.00  0.00    +0.000 C 
BRANCH  14  16
ATOM     15  C   UNL     1       9.105  12.419  18.095  0.00  0.00    +0.000 C 
ATOM     16  C   UNL     1       9.926  11.180  18.410  0.00  0.00    +0.000 C 
ENDBRANCH  14  16
ENDBRANCH  13  14
ENDBRANCH  12  13
ENDBRANCH  11  12
ENDBRANCH   8  11
ENDBRANCH   1   8
BRANCH   4  17
ATOM     17  C   UNL     1       1.417   4.039  17.684  0.00  0.00    +0.000 C 
ATOM     18  O   UNL     1       0.672   4.556  16.859  0.00  0.00    +0.000 OA
BRANCH  17  19
ATOM     19  C   UNL     1       0.919   2.914  18.603  0.00  0.00    +0.000 C 
BRANCH  19  20
ATOM     20  C   UNL     1       0.857   3.296  20.092  0.00  0.00    +0.000 C 
BRANCH  20  21
ATOM     21  N   UNL     1       2.210   3.443  20.669  0.00  0.00    +0.000 NA
ATOM     22  C   UNL     1       2.384   2.707  21.931  0.00  0.00    +0.000 C 
ATOM     23  C   UNL     1       3.012   2.216  20.658  0.00  0.00    +0.000 C 
ATOM     24  C   UNL     1       4.489   2.308  20.472  0.00  0.00    +0.000 C 
ENDBRANCH  20  21
ENDBRANCH  19  20
ENDBRANCH  17  19
ENDBRANCH   4  17
TORSDOF 10
ENDMDL
MODEL 3
REMARK VINA RESULT:      -7.0      3.353      5.537
REMARK  Name = 
REMARK  12 active torsions:
REMARK  status: ('A' for Active; 'I' for Inactive)
REMARK    1  A    between atoms: C_1  and  C_2
REMARK    2  A    between atoms: C_2  and  C_3
REMARK    3  A    between atoms: C_3  and  C_4
REMARK    4  A    between atoms: C_4  and  C_5
REMARK    5  A    between atoms: C_5  and  C_6
REMARK    6  A    between atoms: C_6  and  S_7
REMARK    7  A    between atoms: S_7  and  C_10
REMARK    8  A    between atoms: C_13  and  C_14
REMARK    9  A    between atoms: C_14  and  C_16
REMARK   10  A    between atoms: C_16  and  C_17
REMARK   11  A    between atoms: C_17  and  N_18
REMARK   12  A    between atoms: C_20  and  C_21
REMARK                            x       y       z     vdW  Elec       q    Type
REMARK                         _______ _______ _______ _____ _____    ______ ____
ROOT
ATOM      1  C   UNL     1       5.533   4.694  17.828  0.00  0.00    +0.000 A 
ATOM      2  C   UNL     1       4.456   5.236  17.143  0.00  0.00    +0.000 A 
ATOM      3  C   UNL     1       3.158   4.903  17.543  0.00  0.00    +0.000 A 
ATOM      4  C   UNL     1       2.923   4.021  18.607  0.00  0.00    +0.000 A 
ATOM      5  C   UNL     1       4.025   3.508  19.309  0.00  0.00    +0.000 A 
ATOM      6 CL   UNL     1       3.910   2.418  20.646  0.00  0.00    +0.000 Cl
ATOM      7  C   UNL     1       5.328   3.833  18.914  0.00  0.00    +0.000 A 
ENDROOT
BRANCH   1   8
ATOM      8  S   UNL     1       7.192   5.009  17.278  0.00  0.00    +0.000 S 
ATOM      9  O   UNL     1       7.356   4.323  16.014  0.00  0.00    +0.000 OA
ATOM     10  O   UNL     1       8.053   4.713  18.412  0.00  0.00    +0.000 OA
BRANCH   8  11
ATOM     11  C   UNL     1       7.228   6.767  16.972  0.00  0.00    +0.000 C 
BRANCH  11  12
ATOM     12  C   UNL     1       7.947   7.488  18.107  0.00  0.00    +0.000 C 
BRANCH  12  13
ATOM     13  C   UNL     1       8.117   8.979  17.823  0.00  0.00    +0.000 C 
BRANCH  13  14
ATOM     14  C   UNL     1       9.037   9.620  18.863  0.00  0.00    +0.000 C 
BRANCH  14  16
ATOM     15  C   UNL     1      10.444  11.431  17.838  0.00  0.00    +0.000 C 
ATOM     16  C   UNL     1       9.187  11.121  18.633  0.00  0.00    +0.000 C 
ENDBRANCH  14  16
ENDBRANCH  13  14
ENDBRANCH  12  13
ENDBRANCH  11  12
ENDBRANCH   8  11
ENDBRANCH   1   8
BRANCH   4  17
ATOM     17  C   UNL     1       1.491   3.687  18.933  0.00  0.00    +0.000 C 
ATOM     18  O   UNL     1       0.827   3.019  18.149  0.00  0.00    +0.000 OA
BRANCH  17  19
ATOM     19  C   UNL     1       0.921   4.103  20.297  0.00  0.00    +0.000 C 
BRANCH  19  20
ATOM     20  C   UNL     1       1.576   5.357  20.899  0.00  0.00    +0.000 C 
BRANCH  20  21
ATOM     21  N   UNL     1       1.115   6.586  20.220  0.00  0.00    +0.000 NA
ATOM     22  C   UNL     1       1.368   7.809  21.001  0.00  0.00    +0.000 C 
ATOM     23  C   UNL     1       2.191   7.482  19.787  0.00  0.00    +0.000 C 
ATOM     24  C   UNL     1       2.023   8.277  18.537  0.00  0.00    +0.000 C 
ENDBRANCH  20  21
ENDBRANCH  19  20
ENDBRANCH  17  19
ENDBRANCH   4  17
TORSDOF 10
ENDMDL
MODEL 4
REMARK VINA RESULT:      -7.0      4.115      7.503
REMARK  Name = 
REMARK  12 active torsions:
REMARK  status: ('A' for Active; 'I' for Inactive)
REMARK    1  A    between atoms: C_1  and  C_2
REMARK    2  A    between atoms: C_2  and  C_3
REMARK    3  A    between atoms: C_3  and  C_4
REMARK    4  A    between atoms: C_4  and  C_5
REMARK    5  A    between atoms: C_5  and  C_6
REMARK    6  A    between atoms: C_6  and  S_7
REMARK    7  A    between atoms: S_7  and  C_10
REMARK    8  A    between atoms: C_13  and  C_14
REMARK    9  A    between atoms: C_14  and  C_16
REMARK   10  A    between atoms: C_16  and  C_17
REMARK   11  A    between atoms: C_17  and  N_18
REMARK   12  A    between atoms: C_20  and  C_21
REMARK                            x       y       z     vdW  Elec       q    Type
REMARK                         _______ _______ _______ _____ _____    ______ ____
ROOT
ATOM      1  C   UNL     1       4.185   3.466  18.104  0.00  0.00    +0.000 A 
ATOM      2  C   UNL     1       4.146   3.999  16.823  0.00  0.00    +0.000 A 
ATOM      3  C   UNL     1       5.082   4.974  16.464  0.00  0.00    +0.000 A 
ATOM      4  C   UNL     1       6.043   5.437  17.373  0.00  0.00    +0.000 A 
ATOM      5  C   UNL     1       6.088   4.863  18.653  0.00  0.00    +0.000 A 
ATOM      6 CL   UNL     1       7.212   5.313  19.887  0.00  0.00    +0.000 Cl
ATOM      7  C   UNL     1       5.154   3.889  19.023  0.00  0.00    +0.000 A 
ENDROOT
BRANCH   1   8
ATOM      8  S   UNL     1       2.946   2.306  18.627  0.00  0.00    +0.000 S 
ATOM      9  O   UNL     1       3.565   0.998  18.627  0.00  0.00    +0.000 OA
ATOM     10  O   UNL     1       1.772   2.582  17.815  0.00  0.00    +0.000 OA
BRANCH   8  11
ATOM     11  C   UNL     1       2.598   2.766  20.316  0.00  0.00    +0.000 C 
BRANCH  11  12
ATOM     12  C   UNL     1       1.464   3.784  20.366  0.00  0.00    +0.000 C 
BRANCH  12  13
ATOM     13  C   UNL     1       1.980   5.207  20.574  0.00  0.00    +0.000 C 
BRANCH  13  14
ATOM     14  C   UNL     1       1.787   6.036  19.304  0.00  0.00    +0.000 C 
BRANCH  14  16
ATOM     15  C   UNL     1       2.742   7.839  17.838  0.00  0.00    +0.000 C 
ATOM     16  C   UNL     1       3.005   6.906  19.009  0.00  0.00    +0.000 C 
ENDBRANCH  14  16
ENDBRANCH  13  14
ENDBRANCH  12  13
ENDBRANCH  11  12
ENDBRANCH   8  11
ENDBRANCH   1   8
BRANCH   4  17
ATOM     17  C   UNL     1       6.977   6.524  16.907  0.00  0.00    +0.000 C 
ATOM     18  O   UNL     1       7.680   6.342  15.919  0.00  0.00    +0.000 OA
BRANCH  17  19
ATOM     19  C   UNL     1       6.951   7.884  17.620  0.00  0.00    +0.000 C 
BRANCH  19  20
ATOM     20  C   UNL     1       8.339   8.510  17.836  0.00  0.00    +0.000 C 
BRANCH  20  21
ATOM     21  N   UNL     1       8.235   9.884  18.369  0.00  0.00    +0.000 NA
ATOM     22  C   UNL     1       9.233  10.178  19.410  0.00  0.00    +0.000 C 
ATOM     23  C   UNL     1       9.363  10.756  18.030  0.00  0.00    +0.000 C 
ATOM     24  C   UNL     1       9.123  12.211  17.805  0.00  0.00    +0.000 C 
ENDBRANCH  20  21
ENDBRANCH  19  20
ENDBRANCH  17  19
ENDBRANCH   4  17
TORSDOF 10
ENDMDL
MODEL 5
REMARK VINA RESULT:      -6.9      2.145      3.222
REMARK  Name = 
REMARK  12 active torsions:
REMARK  status: ('A' for Active; 'I' for Inactive)
REMARK    1  A    between atoms: C_1  and  C_2
REMARK    2  A    between atoms: C_2  and  C_3
REMARK    3  A    between atoms: C_3  and  C_4
REMARK    4  A    between atoms: C_4  and  C_5
REMARK    5  A    between atoms: C_5  and  C_6
REMARK    6  A    between atoms: C_6  and  S_7
REMARK    7  A    between atoms: S_7  and  C_10
REMARK    8  A    between atoms: C_13  and  C_14
REMARK    9  A    between atoms: C_14  and  C_16
REMARK   10  A    between atoms: C_16  and  C_17
REMARK   11  A    between atoms: C_17  and  N_18
REMARK   12  A    between atoms: C_20  and  C_21
REMARK                            x       y       z     vdW  Elec       q    Type
REMARK                         _______ _______ _______ _____ _____    ______ ____
ROOT
ATOM      1  C   UNL     1       5.443   4.982  17.433  0.00  0.00    +0.000 A 
ATOM      2  C   UNL     1       4.274   5.576  16.981  0.00  0.00    +0.000 A 
ATOM      3  C   UNL     1       3.049   5.156  17.511  0.00  0.00    +0.000 A 
ATOM      4  C   UNL     1       2.977   4.137  18.471  0.00  0.00    +0.000 A 
ATOM      5  C   UNL     1       4.174   3.571  18.940  0.00  0.00    +0.000 A 
ATOM      6 CL   UNL     1       4.261   2.315  20.123  0.00  0.00    +0.000 Cl
ATOM      7  C   UNL     1       5.403   3.982  18.414  0.00  0.00    +0.000 A 
ENDROOT
BRANCH   1   8
ATOM      8  S   UNL     1       7.004   5.415  16.704  0.00  0.00    +0.000 S 
ATOM      9  O   UNL     1       7.970   4.440  17.164  0.00  0.00    +0.000 OA
ATOM     10  O   UNL     1       7.187   6.834  16.963  0.00  0.00    +0.000 OA
BRANCH   8  11
ATOM     11  C   UNL     1       6.754   5.176  14.954  0.00  0.00    +0.000 C 
BRANCH  11  12
ATOM     12  C   UNL     1       6.244   3.766  14.678  0.00  0.00    +0.000 C 
BRANCH  12  13
ATOM     13  C   UNL     1       6.237   3.439  13.186  0.00  0.00    +0.000 C 
BRANCH  13  14
ATOM     14  C   UNL     1       4.885   3.792  12.568  0.00  0.00    +0.000 C 
BRANCH  14  16
ATOM     15  C   UNL     1       3.318   3.048  10.751  0.00  0.00    +0.000 C 
ATOM     16  C   UNL     1       4.770   3.279  11.135  0.00  0.00    +0.000 C 
ENDBRANCH  14  16
ENDBRANCH  13  14
ENDBRANCH  12  13
ENDBRANCH  11  12
ENDBRANCH   8  11
ENDBRANCH   1   8
BRANCH   4  17
ATOM     17  C   UNL     1       1.610   3.722  18.945  0.00  0.00    +0.000 C 
ATOM     18  O   UNL     1       0.925   2.976  18.255  0.00  0.00    +0.000 OA
BRANCH  17  19
ATOM     19  C   UNL     1       1.141   4.159  20.342  0.00  0.00    +0.000 C 
BRANCH  19  20
ATOM     20  C   UNL     1       1.827   5.430  20.869  0.00  0.00    +0.000 C 
BRANCH  20  21
ATOM     21  N   UNL     1       1.207   6.650  20.310  0.00  0.00    +0.000 NA
ATOM     22  C   UNL     1       1.386   7.834  21.165  0.00  0.00    +0.000 C 
ATOM     23  C   UNL     1       2.163   7.679  19.888  0.00  0.00    +0.000 C 
ATOM     24  C   UNL     1       1.842   8.537  18.712  0.00  0.00    +0.000 C 
ENDBRANCH  20  21
ENDBRANCH  19  20
ENDBRANCH  17  19
ENDBRANCH   4  17
TORSDOF 10
ENDMDL
MODEL 6
REMARK VINA RESULT:      -6.9      3.206      6.974
REMARK  Name = 
REMARK  12 active torsions:
REMARK  status: ('A' for Active; 'I' for Inactive)
REMARK    1  A    between atoms: C_1  and  C_2
REMARK    2  A    between atoms: C_2  and  C_3
REMARK    3  A    between atoms: C_3  and  C_4
REMARK    4  A    between atoms: C_4  and  C_5
REMARK    5  A    between atoms: C_5  and  C_6
REMARK    6  A    between atoms: C_6  and  S_7
REMARK    7  A    between atoms: S_7  and  C_10
REMARK    8  A    between atoms: C_13  and  C_14
REMARK    9  A    between atoms: C_14  and  C_16
REMARK   10  A    between atoms: C_16  and  C_17
REMARK   11  A    between atoms: C_17  and  N_18
REMARK   12  A    between atoms: C_20  and  C_21
REMARK                            x       y       z     vdW  Elec       q    Type
REMARK                         _______ _______ _______ _____ _____    ______ ____
ROOT
ATOM      1  C   UNL     1       3.545   3.397  19.111  0.00  0.00    +0.000 A 
ATOM      2  C   UNL     1       2.967   3.261  17.857  0.00  0.00    +0.000 A 
ATOM      3  C   UNL     1       3.668   3.708  16.733  0.00  0.00    +0.000 A 
ATOM      4  C   UNL     1       4.931   4.306  16.847  0.00  0.00    +0.000 A 
ATOM      5  C   UNL     1       5.513   4.406  18.121  0.00  0.00    +0.000 A 
ATOM      6 CL   UNL     1       7.062   5.108  18.434  0.00  0.00    +0.000 Cl
ATOM      7  C   UNL     1       4.818   3.964  19.252  0.00  0.00    +0.000 A 
ENDROOT
BRANCH   1   8
ATOM      8  S   UNL     1       2.637   2.940  20.568  0.00  0.00    +0.000 S 
ATOM      9  O   UNL     1       3.556   2.234  21.434  0.00  0.00    +0.000 OA
ATOM     10  O   UNL     1       1.414   2.311  20.096  0.00  0.00    +0.000 OA
BRANCH   8  11
ATOM     11  C   UNL     1       2.224   4.497  21.335  0.00  0.00    +0.000 C 
BRANCH  11  12
ATOM     12  C   UNL     1       1.667   5.468  20.299  0.00  0.00    +0.000 C 
BRANCH  12  13
ATOM     13  C   UNL     1       2.664   6.572  19.953  0.00  0.00    +0.000 C 
BRANCH  13  14
ATOM     14  C   UNL     1       1.929   7.838  19.512  0.00  0.00    +0.000 C 
BRANCH  14  16
ATOM     15  C   UNL     1       3.443   7.557  17.528  0.00  0.00    +0.000 C 
ATOM     16  C   UNL     1       2.117   8.110  18.022  0.00  0.00    +0.000 C 
ENDBRANCH  14  16
ENDBRANCH  13  14
ENDBRANCH  12  13
ENDBRANCH  11  12
ENDBRANCH   8  11
ENDBRANCH   1   8
BRANCH   4  17
ATOM     17  C   UNL     1       5.586   4.798  15.583  0.00  0.00    +0.000 C 
ATOM     18  O   UNL     1       5.757   6.000  15.413  0.00  0.00    +0.000 OA
BRANCH  17  19
ATOM     19  C   UNL     1       6.126   3.772  14.576  0.00  0.00    +0.000 C 
BRANCH  19  20
ATOM     20  C   UNL     1       6.923   4.388  13.414  0.00  0.00    +0.000 C 
BRANCH  20  21
ATOM     21  N   UNL     1       6.358   3.998  12.105  0.00  0.00    +0.000 NA
ATOM     22  C   UNL     1       6.479   2.557  11.829  0.00  0.00    +0.000 C 
ATOM     23  C   UNL     1       5.154   3.166  12.186  0.00  0.00    +0.000 C 
ATOM     24  C   UNL     1       4.095   3.309  11.146  0.00  0.00    +0.000 C 
ENDBRANCH  20  21
ENDBRANCH  19  20
ENDBRANCH  17  19
ENDBRANCH   4  17
TORSDOF 10
ENDMDL
MODEL 7
REMARK VINA RESULT:      -6.8      2.235      2.963
REMARK  Name = 
REMARK  12 active torsions:
REMARK  status: ('A' for Active; 'I' for Inactive)
REMARK    1  A    between atoms: C_1  and  C_2
REMARK    2  A    between atoms: C_2  and  C_3
REMARK    3  A    between atoms: C_3  and  C_4
REMARK    4  A    between atoms: C_4  and  C_5
REMARK    5  A    between atoms: C_5  and  C_6
REMARK    6  A    between atoms: C_6  and  S_7
REMARK    7  A    between atoms: S_7  and  C_10
REMARK    8  A    between atoms: C_13  and  C_14
REMARK    9  A    between atoms: C_14  and  C_16
REMARK   10  A    between atoms: C_16  and  C_17
REMARK   11  A    between atoms: C_17  and  N_18
REMARK   12  A    between atoms: C_20  and  C_21
REMARK                            x       y       z     vdW  Elec       q    Type
REMARK                         _______ _______ _______ _____ _____    ______ ____
ROOT
ATOM      1  C   UNL     1       5.435   4.656  16.929  0.00  0.00    +0.000 A 
ATOM      2  C   UNL     1       6.035   4.833  18.167  0.00  0.00    +0.000 A 
ATOM      3  C   UNL     1       5.542   4.126  19.269  0.00  0.00    +0.000 A 
ATOM      4  C   UNL     1       4.446   3.260  19.153  0.00  0.00    +0.000 A 
ATOM      5  C   UNL     1       3.873   3.069  17.885  0.00  0.00    +0.000 A 
ATOM      6 CL   UNL     1       2.525   2.034  17.569  0.00  0.00    +0.000 Cl
ATOM      7  C   UNL     1       4.357   3.774  16.778  0.00  0.00    +0.000 A 
ENDROOT
BRANCH   1   8
ATOM      8  S   UNL     1       5.966   5.618  15.533  0.00  0.00    +0.000 S 
ATOM      9  O   UNL     1       7.413   5.566  15.511  0.00  0.00    +0.000 OA
ATOM     10  O   UNL     1       5.260   6.885  15.629  0.00  0.00    +0.000 OA
BRANCH   8  11
ATOM     11  C   UNL     1       5.349   4.721  14.120  0.00  0.00    +0.000 C 
BRANCH  11  12
ATOM     12  C   UNL     1       6.363   3.674  13.672  0.00  0.00    +0.000 C 
BRANCH  12  13
ATOM     13  C   UNL     1       6.942   3.989  12.294  0.00  0.00    +0.000 C 
BRANCH  13  14
ATOM     14  C   UNL     1       6.088   3.352  11.197  0.00  0.00    +0.000 C 
BRANCH  14  16
ATOM     15  C   UNL     1       6.425   0.869  11.022  0.00  0.00    +0.000 C 
ATOM     16  C   UNL     1       5.570   1.978  11.612  0.00  0.00    +0.000 C 
ENDBRANCH  14  16
ENDBRANCH  13  14
ENDBRANCH  12  13
ENDBRANCH  11  12
ENDBRANCH   8  11
ENDBRANCH   1   8
BRANCH   4  17
ATOM     17  C   UNL     1       3.958   2.581  20.406  0.00  0.00    +0.000 C 
ATOM     18  O   UNL     1       4.724   1.882  21.059  0.00  0.00    +0.000 OA
BRANCH  17  19
ATOM     19  C   UNL     1       2.532   2.866  20.900  0.00  0.00    +0.000 C 
BRANCH  19  20
ATOM     20  C   UNL     1       2.310   4.307  21.393  0.00  0.00    +0.000 C 
BRANCH  20  21
ATOM     21  N   UNL     1       1.699   5.148  20.343  0.00  0.00    +0.000 NA
ATOM     22  C   UNL     1       1.502   6.545  20.763  0.00  0.00    +0.000 C 
ATOM     23  C   UNL     1       2.588   6.176  19.792  0.00  0.00    +0.000 C 
ATOM     24  C   UNL     1       2.465   6.557  18.356  0.00  0.00    +0.000 C 
ENDBRANCH  20  21
ENDBRANCH  19  20
ENDBRANCH  17  19
ENDBRANCH   4  17
TORSDOF 10
ENDMDL
MODEL 8
REMARK VINA RESULT:      -6.6      3.887      6.371
REMARK  Name = 
REMARK  12 active torsions:
REMARK  status: ('A' for Active; 'I' for Inactive)
REMARK    1  A    between atoms: C_1  and  C_2
REMARK    2  A    between atoms: C_2  and  C_3
REMARK    3  A    between atoms: C_3  and  C_4
REMARK    4  A    between atoms: C_4  and  C_5
REMARK    5  A    between atoms: C_5  and  C_6
REMARK    6  A    between atoms: C_6  and  S_7
REMARK    7  A    between atoms: S_7  and  C_10
REMARK    8  A    between atoms: C_13  and  C_14
REMARK    9  A    between atoms: C_14  and  C_16
REMARK   10  A    between atoms: C_16  and  C_17
REMARK   11  A    between atoms: C_17  and  N_18
REMARK   12  A    between atoms: C_20  and  C_21
REMARK                            x       y       z     vdW  Elec       q    Type
REMARK                         _______ _______ _______ _____ _____    ______ ____
ROOT
ATOM      1  C   UNL     1       4.177   5.868  18.370  0.00  0.00    +0.000 A 
ATOM      2  C   UNL     1       4.158   6.878  17.418  0.00  0.00    +0.000 A 
ATOM      3  C   UNL     1       3.232   7.918  17.549  0.00  0.00    +0.000 A 
ATOM      4  C   UNL     1       2.314   7.952  18.608  0.00  0.00    +0.000 A 
ATOM      5  C   UNL     1       2.370   6.940  19.578  0.00  0.00    +0.000 A 
ATOM      6 CL   UNL     1       1.319   6.838  20.946  0.00  0.00    +0.000 Cl
ATOM      7  C   UNL     1       3.291   5.893  19.455  0.00  0.00    +0.000 A 
ENDROOT
BRANCH   1   8
ATOM      8  S   UNL     1       5.265   4.478  18.175  0.00  0.00    +0.000 S 
ATOM      9  O   UNL     1       5.393   3.856  19.475  0.00  0.00    +0.000 OA
ATOM     10  O   UNL     1       6.429   4.978  17.462  0.00  0.00    +0.000 OA
BRANCH   8  11
ATOM     11  C   UNL     1       4.370   3.366  17.104  0.00  0.00    +0.000 C 
BRANCH  11  12
ATOM     12  C   UNL     1       3.431   2.484  17.921  0.00  0.00    +0.000 C 
BRANCH  12  13
ATOM     13  C   UNL     1       1.977   2.940  17.815  0.00  0.00    +0.000 C 
BRANCH  13  14
ATOM     14  C   UNL     1       1.140   2.320  18.933  0.00  0.00    +0.000 C 
BRANCH  14  16
ATOM     15  C   UNL     1       1.394   2.788  21.388  0.00  0.00    +0.000 C 
ATOM     16  C   UNL     1       0.879   3.316  20.060  0.00  0.00    +0.000 C 
ENDBRANCH  14  16
ENDBRANCH  13  14
ENDBRANCH  12  13
ENDBRANCH  11  12
ENDBRANCH   8  11
ENDBRANCH   1   8
BRANCH   4  17
ATOM     17  C   UNL     1       1.325   9.088  18.637  0.00  0.00    +0.000 C 
ATOM     18  O   UNL     1       0.617   9.307  17.660  0.00  0.00    +0.000 OA
BRANCH  17  19
ATOM     19  C   UNL     1       1.148   9.888  19.936  0.00  0.00    +0.000 C 
BRANCH  19  20
ATOM     20  C   UNL     1      -0.318  10.171  20.308  0.00  0.00    +0.000 C 
BRANCH  20  21
ATOM     21  N   UNL     1      -0.606  11.620  20.303  0.00  0.00    +0.000 NA
ATOM     22  C   UNL     1       0.484  12.430  20.870  0.00  0.00    +0.000 C 
ATOM     23  C   UNL     1       0.230  12.404  19.390  0.00  0.00    +0.000 C 
ATOM     24  C   UNL     1      -0.347  13.600  18.712  0.00  0.00    +0.000 C 
ENDBRANCH  20  21
ENDBRANCH  19  20
ENDBRANCH  17  19
ENDBRANCH   4  17
TORSDOF 10
ENDMDL
MODEL 9
REMARK VINA RESULT:      -6.6      4.447      7.827
REMARK  Name = 
REMARK  12 active torsions:
REMARK  status: ('A' for Active; 'I' for Inactive)
REMARK    1  A    between atoms: C_1  and  C_2
REMARK    2  A    between atoms: C_2  and  C_3
REMARK    3  A    between atoms: C_3  and  C_4
REMARK    4  A    between atoms: C_4  and  C_5
REMARK    5  A    between atoms: C_5  and  C_6
REMARK    6  A    between atoms: C_6  and  S_7
REMARK    7  A    between atoms: S_7  and  C_10
REMARK    8  A    between atoms: C_13  and  C_14
REMARK    9  A    between atoms: C_14  and  C_16
REMARK   10  A    between atoms: C_16  and  C_17
REMARK   11  A    between atoms: C_17  and  N_18
REMARK   12  A    between atoms: C_20  and  C_21
REMARK                            x       y       z     vdW  Elec       q    Type
REMARK                         _______ _______ _______ _____ _____    ______ ____
ROOT
ATOM      1  C   UNL     1       1.501   7.683  20.370  0.00  0.00    +0.000 A 
ATOM      2  C   UNL     1       2.064   7.950  19.131  0.00  0.00    +0.000 A 
ATOM      3  C   UNL     1       2.613   6.898  18.392  0.00  0.00    +0.000 A 
ATOM      4  C   UNL     1       2.622   5.585  18.883  0.00  0.00    +0.000 A 
ATOM      5  C   UNL     1       2.018   5.328  20.124  0.00  0.00    +0.000 A 
ATOM      6 CL   UNL     1       1.938   3.770  20.867  0.00  0.00    +0.000 Cl
ATOM      7  C   UNL     1       1.470   6.375  20.873  0.00  0.00    +0.000 A 
ENDROOT
BRANCH   1   8
ATOM      8  S   UNL     1       0.894   9.011  21.381  0.00  0.00    +0.000 S 
ATOM      9  O   UNL     1       1.936   9.326  22.335  0.00  0.00    +0.000 OA
ATOM     10  O   UNL     1      -0.431   8.606  21.821  0.00  0.00    +0.000 OA
BRANCH   8  11
ATOM     11  C   UNL     1       0.731  10.384  20.253  0.00  0.00    +0.000 C 
BRANCH  11  12
ATOM     12  C   UNL     1      -0.672  10.418  19.658  0.00  0.00    +0.000 C 
BRANCH  12  13
ATOM     13  C   UNL     1      -0.652  10.322  18.134  0.00  0.00    +0.000 C 
BRANCH  13  14
ATOM     14  C   UNL     1      -2.038   9.955  17.603  0.00  0.00    +0.000 C 
BRANCH  14  16
ATOM     15  C   UNL     1      -4.043  11.453  17.814  0.00  0.00    +0.000 C 
ATOM     16  C   UNL     1      -2.767  11.171  17.039  0.00  0.00    +0.000 C 
ENDBRANCH  14  16
ENDBRANCH  13  14
ENDBRANCH  12  13
ENDBRANCH  11  12
ENDBRANCH   8  11
ENDBRANCH   1   8
BRANCH   4  17
ATOM     17  C   UNL     1       3.278   4.527  18.034  0.00  0.00    +0.000 C 
ATOM     18  O   UNL     1       2.598   3.843  17.278  0.00  0.00    +0.000 OA
BRANCH  17  19
ATOM     19  C   UNL     1       4.808   4.400  18.054  0.00  0.00    +0.000 C 
BRANCH  19  20
ATOM     20  C   UNL     1       5.465   4.878  19.361  0.00  0.00    +0.000 C 
BRANCH  20  21
ATOM     21  N   UNL     1       6.829   5.395  19.122  0.00  0.00    +0.000 NA
ATOM     22  C   UNL     1       7.436   4.878  17.885  0.00  0.00    +0.000 C 
ATOM     23  C   UNL     1       6.945   6.296  17.971  0.00  0.00    +0.000 C 
ATOM     24  C   UNL     1       7.922   7.421  18.018  0.00  0.00    +0.000 C 
ENDBRANCH  20  21
ENDBRANCH  19  20
ENDBRANCH  17  19
ENDBRANCH   4  17
TORSDOF 10
ENDMDL
