MODEL 1
REMARK VINA RESULT:      -7.1      0.000      0.000
REMARK  Name = 
REMARK  7 active torsions:
REMARK  status: ('A' for Active; 'I' for Inactive)
REMARK    1  A    between atoms: C_1  and  C_2
REMARK    2  A    between atoms: C_2  and  C_3
REMARK    3  A    between atoms: C_2  and  C_4
REMARK    4  A    between atoms: C_4  and  C_5
REMARK    5  A    between atoms: N_10  and  C_11
REMARK    6  A    between atoms: C_11  and  C_12
REMARK    7  A    between atoms: C_15  and  C_16
REMARK                            x       y       z     vdW  Elec       q    Type
REMARK                         _______ _______ _______ _____ _____    ______ ____
ROOT
ATOM      1  C   UNL     1       1.381   8.021  20.461  0.00  0.00    +0.000 C 
ATOM      2  O   UNL     1       0.929   8.009  21.605  0.00  0.00    +0.000 OA
ATOM      3  N   UNL     1       2.056   6.935  19.928  0.00  0.00    +0.000 N 
ATOM      4  C   UNL     1       2.108   5.682  20.683  0.00  0.00    +0.000 C 
ATOM      5  C   UNL     1       1.970   4.459  19.747  0.00  0.00    +0.000 C 
ATOM      6  N   UNL     1       2.889   4.454  18.581  0.00  0.00    +0.000 NA
ATOM      7  C   UNL     1       2.728   5.748  17.869  0.00  0.00    +0.000 C 
ATOM      8  C   UNL     1       2.936   6.988  18.753  0.00  0.00    +0.000 C 
ENDROOT
BRANCH   1   9
ATOM      9  C   UNL     1       1.188   9.205  19.523  0.00  0.00    +0.000 C 
BRANCH   9  11
ATOM     10  C   UNL     1       0.934  11.554  20.318  0.00  0.00    +0.000 C 
ATOM     11  C   UNL     1       0.177  10.263  19.989  0.00  0.00    +0.000 C 
ATOM     12  C   UNL     1      -0.894  10.571  18.940  0.00  0.00    +0.000 C 
ENDBRANCH   9  11
ENDBRANCH   1   9
BRANCH   6  13
ATOM     13  C   UNL     1       4.275   4.211  19.032  0.00  0.00    +0.000 C 
BRANCH  13  14
ATOM     14  C   UNL     1       5.267   4.817  18.087  0.00  0.00    +0.000 A 
ATOM     15  C   UNL     1       6.252   5.734  18.391  0.00  0.00    +0.000 A 
ATOM     16  S   UNL     1       7.175   6.093  16.997  0.00  0.00    +0.000 S 
ATOM     17  C   UNL     1       6.218   4.991  16.074  0.00  0.00    +0.000 A 
ATOM     18  N   UNL     1       5.236   4.425  16.756  0.00  0.00    +0.000 NA
BRANCH  17  19
ATOM     19  C   UNL     1       6.551   4.718  14.664  0.00  0.00    +0.000 A 
ATOM     20  N   UNL     1       7.582   5.414  14.139  0.00  0.00    +0.000 NA
ATOM     21  C   UNL     1       7.882   5.155  12.854  0.00  0.00    +0.000 A 
ATOM     22  C   UNL     1       7.207   4.231  12.089  0.00  0.00    +0.000 A 
ATOM     23  C   UNL     1       6.175   3.573  12.720  0.00  0.00    +0.000 A 
ATOM     24  N   UNL     1       5.822   3.797  13.998  0.00  0.00    +0.000 NA
ENDBRANCH  17  19
ENDBRANCH  13  14
ENDBRANCH   6  13
TORSDOF 5
ENDMDL
MODEL 2
REMARK VINA RESULT:      -6.7      5.582     11.425
REMARK  Name = 
REMARK  7 active torsions:
REMARK  status: ('A' for Active; 'I' for Inactive)
REMARK    1  A    between atoms: C_1  and  C_2
REMARK    2  A    between atoms: C_2  and  C_3
REMARK    3  A    between atoms: C_2  and  C_4
REMARK    4  A    between atoms: C_4  and  C_5
REMARK    5  A    between atoms: N_10  and  C_11
REMARK    6  A    between atoms: C_11  and  C_12
REMARK    7  A    between atoms: C_15  and  C_16
REMARK                            x       y       z     vdW  Elec       q    Type
REMARK                         _______ _______ _______ _____ _____    ______ ____
ROOT
ATOM      1  C   UNL     1       2.206   8.163  18.521  0.00  0.00    +0.000 C 
ATOM      2  O   UNL     1       2.505   8.600  17.411  0.00  0.00    +0.000 OA
ATOM      3  N   UNL     1       1.439   8.894  19.414  0.00  0.00    +0.000 N 
ATOM      4  C   UNL     1       0.840  10.156  18.979  0.00  0.00    +0.000 C 
ATOM      5  C   UNL     1      -0.584  10.327  19.558  0.00  0.00    +0.000 C 
ATOM      6  N   UNL     1      -0.693  10.127  21.025  0.00  0.00    +0.000 NA
ATOM      7  C   UNL     1      -0.092   8.808  21.351  0.00  0.00    +0.000 C 
ATOM      8  C   UNL     1       1.353   8.631  20.857  0.00  0.00    +0.000 C 
ENDROOT
BRANCH   1   9
ATOM      9  C   UNL     1       2.607   6.767  18.981  0.00  0.00    +0.000 C 
BRANCH   9  11
ATOM     10  C   UNL     1       3.991   5.301  17.515  0.00  0.00    +0.000 C 
ATOM     11  C   UNL     1       2.556   5.674  17.904  0.00  0.00    +0.000 C 
ATOM     12  C   UNL     1       1.825   4.411  18.367  0.00  0.00    +0.000 C 
ENDBRANCH   9  11
ENDBRANCH   1   9
BRANCH   6  13
ATOM     13  C   UNL     1      -0.046  11.249  21.736  0.00  0.00    +0.000 C 
BRANCH  13  14
ATOM     14  C   UNL     1      -1.064  12.172  22.333  0.00  0.00    +0.000 A 
ATOM     15  C   UNL     1      -0.841  13.426  22.863  0.00  0.00    +0.000 A 
ATOM     16  S   UNL     1      -2.316  14.123  23.375  0.00  0.00    +0.000 S 
ATOM     17  C   UNL     1      -3.169  12.717  22.845  0.00  0.00    +0.000 A 
ATOM     18  N   UNL     1      -2.391  11.764  22.358  0.00  0.00    +0.000 NA
BRANCH  17  19
ATOM     19  C   UNL     1      -4.640  12.670  22.916  0.00  0.00    +0.000 A 
ATOM     20  N   UNL     1      -5.302  12.590  21.741  0.00  0.00    +0.000 NA
ATOM     21  C   UNL     1      -6.644  12.542  21.816  0.00  0.00    +0.000 A 
ATOM     22  C   UNL     1      -7.338  12.560  23.005  0.00  0.00    +0.000 A 
ATOM     23  C   UNL     1      -6.570  12.639  24.144  0.00  0.00    +0.000 A 
ATOM     24  N   UNL     1      -5.226  12.699  24.132  0.00  0.00    +0.000 NA
ENDBRANCH  17  19
ENDBRANCH  13  14
ENDBRANCH   6  13
TORSDOF 5
ENDMDL
MODEL 3
REMARK VINA RESULT:      -6.7      1.390      2.078
REMARK  Name = 
REMARK  7 active torsions:
REMARK  status: ('A' for Active; 'I' for Inactive)
REMARK    1  A    between atoms: C_1  and  C_2
REMARK    2  A    between atoms: C_2  and  C_3
REMARK    3  A    between atoms: C_2  and  C_4
REMARK    4  A    between atoms: C_4  and  C_5
REMARK    5  A    between atoms: N_10  and  C_11
REMARK    6  A    between atoms: C_11  and  C_12
REMARK    7  A    between atoms: C_15  and  C_16
REMARK                            x       y       z     vdW  Elec       q    Type
REMARK                         _______ _______ _______ _____ _____    ______ ____
ROOT
ATOM      1  C   UNL     1       0.408   9.586  19.571  0.00  0.00    +0.000 C 
ATOM      2  O   UNL     1       0.000   9.592  20.731  0.00  0.00    +0.000 OA
ATOM      3  N   UNL     1       1.455   8.774  19.166  0.00  0.00    +0.000 N 
ATOM      4  C   UNL     1       1.999   7.787  20.100  0.00  0.00    +0.000 C 
ATOM      5  C   UNL     1       2.352   6.467  19.374  0.00  0.00    +0.000 C 
ATOM      6  N   UNL     1       3.196   6.623  18.163  0.00  0.00    +0.000 NA
ATOM      7  C   UNL     1       2.536   7.613  17.273  0.00  0.00    +0.000 C 
ATOM      8  C   UNL     1       2.240   8.966  17.939  0.00  0.00    +0.000 C 
ENDROOT
BRANCH   1   9
ATOM      9  C   UNL     1      -0.239  10.425  18.477  0.00  0.00    +0.000 C 
BRANCH   9  11
ATOM     10  C   UNL     1      -2.303  11.763  18.884  0.00  0.00    +0.000 C 
ATOM     11  C   UNL     1      -1.774  10.396  18.439  0.00  0.00    +0.000 C 
ATOM     12  C   UNL     1      -2.332  10.079  17.049  0.00  0.00    +0.000 C 
ENDBRANCH   9  11
ENDBRANCH   1   9
BRANCH   6  13
ATOM     13  C   UNL     1       4.566   7.017  18.550  0.00  0.00    +0.000 C 
BRANCH  13  14
ATOM     14  C   UNL     1       5.589   6.150  17.882  0.00  0.00    +0.000 A 
ATOM     15  C   UNL     1       6.525   5.343  18.496  0.00  0.00    +0.000 A 
ATOM     16  S   UNL     1       7.440   4.500  17.323  0.00  0.00    +0.000 S 
ATOM     17  C   UNL     1       6.522   5.247  16.065  0.00  0.00    +0.000 A 
ATOM     18  N   UNL     1       5.618   6.112  16.494  0.00  0.00    +0.000 NA
BRANCH  17  19
ATOM     19  C   UNL     1       6.748   4.872  14.658  0.00  0.00    +0.000 A 
ATOM     20  N   UNL     1       5.934   3.925  14.143  0.00  0.00    +0.000 NA
ATOM     21  C   UNL     1       6.144   3.593  12.857  0.00  0.00    +0.000 A 
ATOM     22  C   UNL     1       7.117   4.171  12.075  0.00  0.00    +0.000 A 
ATOM     23  C   UNL     1       7.891   5.127  12.693  0.00  0.00    +0.000 A 
ATOM     24  N   UNL     1       7.734   5.494  13.977  0.00  0.00    +0.000 NA
ENDBRANCH  17  19
ENDBRANCH  13  14
ENDBRANCH   6  13
TORSDOF 5
ENDMDL
MODEL 4
REMARK VINA RESULT:      -6.7      2.891      4.931
REMARK  Name = 
REMARK  7 active torsions:
REMARK  status: ('A' for Active; 'I' for Inactive)
REMARK    1  A    between atoms: C_1  and  C_2
REMARK    2  A    between atoms: C_2  and  C_3
REMARK    3  A    between atoms: C_2  and  C_4
REMARK    4  A    between atoms: C_4  and  C_5
REMARK    5  A    between atoms: N_10  and  C_11
REMARK    6  A    between atoms: C_11  and  C_12
REMARK    7  A    between atoms: C_15  and  C_16
REMARK                            x       y       z     vdW  Elec       q    Type
REMARK                         _______ _______ _______ _____ _____    ______ ____
ROOT
ATOM      1  C   UNL     1      -1.035  11.614  21.339  0.00  0.00    +0.000 C 
ATOM      2  O   UNL     1      -1.668  12.064  20.386  0.00  0.00    +0.000 OA
ATOM      3  N   UNL     1      -0.307  10.438  21.246  0.00  0.00    +0.000 N 
ATOM      4  C   UNL     1      -0.160   9.788  19.944  0.00  0.00    +0.000 C 
ATOM      5  C   UNL     1       1.263   9.207  19.767  0.00  0.00    +0.000 C 
ATOM      6  N   UNL     1       1.733   8.349  20.883  0.00  0.00    +0.000 NA
ATOM      7  C   UNL     1       1.575   9.116  22.146  0.00  0.00    +0.000 C 
ATOM      8  C   UNL     1       0.153   9.644  22.393  0.00  0.00    +0.000 C 
ENDROOT
BRANCH   1   9
ATOM      9  C   UNL     1      -0.955  12.337  22.678  0.00  0.00    +0.000 C 
BRANCH   9  11
ATOM     10  C   UNL     1      -3.259  12.264  23.628  0.00  0.00    +0.000 C 
ATOM     11  C   UNL     1      -2.181  13.185  23.047  0.00  0.00    +0.000 C 
ATOM     12  C   UNL     1      -1.864  14.282  24.068  0.00  0.00    +0.000 C 
ENDBRANCH   9  11
ENDBRANCH   1   9
BRANCH   6  13
ATOM     13  C   UNL     1       0.989   7.072  20.886  0.00  0.00    +0.000 C 
BRANCH  13  14
ATOM     14  C   UNL     1       1.875   5.928  20.498  0.00  0.00    +0.000 A 
ATOM     15  C   UNL     1       1.688   4.593  20.794  0.00  0.00    +0.000 A 
ATOM     16  S   UNL     1       2.932   3.652  20.093  0.00  0.00    +0.000 S 
ATOM     17  C   UNL     1       3.638   5.079  19.421  0.00  0.00    +0.000 A 
ATOM     18  N   UNL     1       3.009   6.197  19.742  0.00  0.00    +0.000 NA
BRANCH  17  19
ATOM     19  C   UNL     1       4.814   4.980  18.538  0.00  0.00    +0.000 A 
ATOM     20  N   UNL     1       4.575   4.966  17.208  0.00  0.00    +0.000 NA
ATOM     21  C   UNL     1       5.654   4.881  16.410  0.00  0.00    +0.000 A 
ATOM     22  C   UNL     1       6.944   4.822  16.884  0.00  0.00    +0.000 A 
ATOM     23  C   UNL     1       7.080   4.847  18.254  0.00  0.00    +0.000 A 
ATOM     24  N   UNL     1       6.039   4.921  19.102  0.00  0.00    +0.000 NA
ENDBRANCH  17  19
ENDBRANCH  13  14
ENDBRANCH   6  13
TORSDOF 5
ENDMDL
MODEL 5
REMARK VINA RESULT:      -6.6      5.492     10.977
REMARK  Name = 
REMARK  7 active torsions:
REMARK  status: ('A' for Active; 'I' for Inactive)
REMARK    1  A    between atoms: C_1  and  C_2
REMARK    2  A    between atoms: C_2  and  C_3
REMARK    3  A    between atoms: C_2  and  C_4
REMARK    4  A    between atoms: C_4  and  C_5
REMARK    5  A    between atoms: N_10  and  C_11
REMARK    6  A    between atoms: C_11  and  C_12
REMARK    7  A    between atoms: C_15  and  C_16
REMARK                            x       y       z     vdW  Elec       q    Type
REMARK                         _______ _______ _______ _____ _____    ______ ____
ROOT
ATOM      1  C   UNL     1       2.327   6.549  19.688  0.00  0.00    +0.000 C 
ATOM      2  O   UNL     1       3.036   6.254  18.728  0.00  0.00    +0.000 OA
ATOM      3  N   UNL     1       1.813   7.825  19.857  0.00  0.00    +0.000 N 
ATOM      4  C   UNL     1       1.990   8.815  18.793  0.00  0.00    +0.000 C 
ATOM      5  C   UNL     1       0.724   9.686  18.626  0.00  0.00    +0.000 C 
ATOM      6  N   UNL     1       0.208  10.291  19.879  0.00  0.00    +0.000 NA
ATOM      7  C   UNL     1       0.030   9.200  20.872  0.00  0.00    +0.000 C 
ATOM      8  C   UNL     1       1.292   8.359  21.122  0.00  0.00    +0.000 C 
ENDROOT
BRANCH   1   9
ATOM      9  C   UNL     1       1.911   5.525  20.737  0.00  0.00    +0.000 C 
BRANCH   9  11
ATOM     10  C   UNL     1       2.179   3.213  21.630  0.00  0.00    +0.000 C 
ATOM     11  C   UNL     1       2.127   4.055  20.350  0.00  0.00    +0.000 C 
ATOM     12  C   UNL     1       1.022   3.507  19.443  0.00  0.00    +0.000 C 
ENDBRANCH   9  11
ENDBRANCH   1   9
BRANCH   6  13
ATOM     13  C   UNL     1       1.126  11.351  20.344  0.00  0.00    +0.000 C 
BRANCH  13  14
ATOM     14  C   UNL     1       0.377  12.595  20.711  0.00  0.00    +0.000 A 
ATOM     15  C   UNL     1       0.005  13.622  19.866  0.00  0.00    +0.000 A 
ATOM     16  S   UNL     1      -0.881  14.804  20.727  0.00  0.00    +0.000 S 
ATOM     17  C   UNL     1      -0.731  13.869  22.172  0.00  0.00    +0.000 A 
ATOM     18  N   UNL     1      -0.020  12.763  22.030  0.00  0.00    +0.000 NA
BRANCH  17  19
ATOM     19  C   UNL     1      -1.403  14.304  23.410  0.00  0.00    +0.000 A 
ATOM     20  N   UNL     1      -0.671  15.045  24.270  0.00  0.00    +0.000 NA
ATOM     21  C   UNL     1      -1.294  15.441  25.394  0.00  0.00    +0.000 A 
ATOM     22  C   UNL     1      -2.605  15.138  25.682  0.00  0.00    +0.000 A 
ATOM     23  C   UNL     1      -3.263  14.381  24.739  0.00  0.00    +0.000 A 
ATOM     24  N   UNL     1      -2.691  13.947  23.602  0.00  0.00    +0.000 NA
ENDBRANCH  17  19
ENDBRANCH  13  14
ENDBRANCH   6  13
TORSDOF 5
ENDMDL
MODEL 6
REMARK VINA RESULT:      -6.5      5.345     11.240
REMARK  Name = 
REMARK  7 active torsions:
REMARK  status: ('A' for Active; 'I' for Inactive)
REMARK    1  A    between atoms: C_1  and  C_2
REMARK    2  A    between atoms: C_2  and  C_3
REMARK    3  A    between atoms: C_2  and  C_4
REMARK    4  A    between atoms: C_4  and  C_5
REMARK    5  A    between atoms: N_10  and  C_11
REMARK    6  A    between atoms: C_11  and  C_12
REMARK    7  A    between atoms: C_15  and  C_16
REMARK                            x       y       z     vdW  Elec       q    Type
REMARK                         _______ _______ _______ _____ _____    ______ ____
ROOT
ATOM      1  C   UNL     1       2.434   7.534  18.670  0.00  0.00    +0.000 C 
ATOM      2  O   UNL     1       2.922   7.822  17.579  0.00  0.00    +0.000 OA
ATOM      3  N   UNL     1       1.695   8.447  19.407  0.00  0.00    +0.000 N 
ATOM      4  C   UNL     1       1.356   9.740  18.812  0.00  0.00    +0.000 C 
ATOM      5  C   UNL     1      -0.080  10.170  19.194  0.00  0.00    +0.000 C 
ATOM      6  N   UNL     1      -0.385  10.119  20.646  0.00  0.00    +0.000 NA
ATOM      7  C   UNL     1      -0.040   8.760  21.136  0.00  0.00    +0.000 C 
ATOM      8  C   UNL     1       1.405   8.328  20.842  0.00  0.00    +0.000 C 
ENDROOT
BRANCH   1   9
ATOM      9  C   UNL     1       2.554   6.141  19.274  0.00  0.00    +0.000 C 
BRANCH   9  11
ATOM     10  C   UNL     1       3.939   4.089  18.982  0.00  0.00    +0.000 C 
ATOM     11  C   UNL     1       2.941   5.025  18.293  0.00  0.00    +0.000 C 
ATOM     12  C   UNL     1       1.739   4.203  17.817  0.00  0.00    +0.000 C 
ENDBRANCH   9  11
ENDBRANCH   1   9
BRANCH   6  13
ATOM     13  C   UNL     1       0.346  11.192  21.353  0.00  0.00    +0.000 C 
BRANCH  13  14
ATOM     14  C   UNL     1      -0.599  12.189  21.951  0.00  0.00    +0.000 A 
ATOM     15  C   UNL     1      -0.330  13.505  22.268  0.00  0.00    +0.000 A 
ATOM     16  S   UNL     1      -1.735  14.266  22.877  0.00  0.00    +0.000 S 
ATOM     17  C   UNL     1      -2.624  12.800  22.666  0.00  0.00    +0.000 A 
ATOM     18  N   UNL     1      -1.902  11.789  22.213  0.00  0.00    +0.000 NA
BRANCH  17  19
ATOM     19  C   UNL     1      -4.072  12.764  22.944  0.00  0.00    +0.000 A 
ATOM     20  N   UNL     1      -4.440  12.443  24.203  0.00  0.00    +0.000 NA
ATOM     21  C   UNL     1      -5.762  12.417  24.448  0.00  0.00    +0.000 A 
ATOM     22  C   UNL     1      -6.715  12.708  23.499  0.00  0.00    +0.000 A 
ATOM     23  C   UNL     1      -6.235  13.027  22.249  0.00  0.00    +0.000 A 
ATOM     24  N   UNL     1      -4.926  13.059  21.941  0.00  0.00    +0.000 NA
ENDBRANCH  17  19
ENDBRANCH  13  14
ENDBRANCH   6  13
TORSDOF 5
ENDMDL
MODEL 7
REMARK VINA RESULT:      -6.4      5.624     11.120
REMARK  Name = 
REMARK  7 active torsions:
REMARK  status: ('A' for Active; 'I' for Inactive)
REMARK    1  A    between atoms: C_1  and  C_2
REMARK    2  A    between atoms: C_2  and  C_3
REMARK    3  A    between atoms: C_2  and  C_4
REMARK    4  A    between atoms: C_4  and  C_5
REMARK    5  A    between atoms: N_10  and  C_11
REMARK    6  A    between atoms: C_11  and  C_12
REMARK    7  A    between atoms: C_15  and  C_16
REMARK                            x       y       z     vdW  Elec       q    Type
REMARK                         _______ _______ _______ _____ _____    ______ ____
ROOT
ATOM      1  C   UNL     1       2.279   6.726  19.808  0.00  0.00    +0.000 C 
ATOM      2  O   UNL     1       2.965   6.590  18.797  0.00  0.00    +0.000 OA
ATOM      3  N   UNL     1       1.639   7.919  20.105  0.00  0.00    +0.000 N 
ATOM      4  C   UNL     1       1.651   9.003  19.122  0.00  0.00    +0.000 C 
ATOM      5  C   UNL     1       0.290   9.736  19.083  0.00  0.00    +0.000 C 
ATOM      6  N   UNL     1      -0.223  10.178  20.404  0.00  0.00    +0.000 NA
ATOM      7  C   UNL     1      -0.229   8.999  21.308  0.00  0.00    +0.000 C 
ATOM      8  C   UNL     1       1.129   8.290  21.432  0.00  0.00    +0.000 C 
ENDROOT
BRANCH   1   9
ATOM      9  C   UNL     1       2.033   5.583  20.784  0.00  0.00    +0.000 C 
BRANCH   9  11
ATOM     10  C   UNL     1       2.371   3.191  21.400  0.00  0.00    +0.000 C 
ATOM     11  C   UNL     1       2.274   4.172  20.227  0.00  0.00    +0.000 C 
ATOM     12  C   UNL     1       1.164   3.705  19.282  0.00  0.00    +0.000 C 
ENDBRANCH   9  11
ENDBRANCH   1   9
BRANCH   6  13
ATOM     13  C   UNL     1       0.597  11.296  20.916  0.00  0.00    +0.000 C 
BRANCH  13  14
ATOM     14  C   UNL     1      -0.245  12.296  21.646  0.00  0.00    +0.000 A 
ATOM     15  C   UNL     1       0.084  13.604  21.939  0.00  0.00    +0.000 A 
ATOM     16  S   UNL     1      -1.216  14.375  22.739  0.00  0.00    +0.000 S 
ATOM     17  C   UNL     1      -2.147  12.924  22.633  0.00  0.00    +0.000 A 
ATOM     18  N   UNL     1      -1.507  11.909  22.076  0.00  0.00    +0.000 NA
BRANCH  17  19
ATOM     19  C   UNL     1      -3.545  12.902  23.102  0.00  0.00    +0.000 A 
ATOM     20  N   UNL     1      -4.450  13.554  22.341  0.00  0.00    +0.000 NA
ATOM     21  C   UNL     1      -5.723  13.525  22.774  0.00  0.00    +0.000 A 
ATOM     22  C   UNL     1      -6.120  12.868  23.916  0.00  0.00    +0.000 A 
ATOM     23  C   UNL     1      -5.122  12.232  24.617  0.00  0.00    +0.000 A 
ATOM     24  N   UNL     1      -3.831  12.234  24.240  0.00  0.00    +0.000 NA
ENDBRANCH  17  19
ENDBRANCH  13  14
ENDBRANCH   6  13
TORSDOF 5
ENDMDL
MODEL 8
REMARK VINA RESULT:      -6.3      3.119      8.984
REMARK  Name = 
REMARK  7 active torsions:
REMARK  status: ('A' for Active; 'I' for Inactive)
REMARK    1  A    between atoms: C_1  and  C_2
REMARK    2  A    between atoms: C_2  and  C_3
REMARK    3  A    between atoms: C_2  and  C_4
REMARK    4  A    between atoms: C_4  and  C_5
REMARK    5  A    between atoms: N_10  and  C_11
REMARK    6  A    between atoms: C_11  and  C_12
REMARK    7  A    between atoms: C_15  and  C_16
REMARK                            x       y       z     vdW  Elec       q    Type
REMARK                         _______ _______ _______ _____ _____    ______ ____
ROOT
ATOM      1  C   UNL     1       5.998   4.113  15.417  0.00  0.00    +0.000 C 
ATOM      2  O   UNL     1       6.131   2.892  15.471  0.00  0.00    +0.000 OA
ATOM      3  N   UNL     1       5.266   4.814  16.361  0.00  0.00    +0.000 N 
ATOM      4  C   UNL     1       4.758   4.112  17.541  0.00  0.00    +0.000 C 
ATOM      5  C   UNL     1       4.867   4.994  18.806  0.00  0.00    +0.000 C 
ATOM      6  N   UNL     1       4.295   6.357  18.671  0.00  0.00    +0.000 NA
ATOM      7  C   UNL     1       4.903   6.990  17.473  0.00  0.00    +0.000 C 
ATOM      8  C   UNL     1       4.746   6.176  16.178  0.00  0.00    +0.000 C 
ENDROOT
BRANCH   1   9
ATOM      9  C   UNL     1       6.671   4.957  14.342  0.00  0.00    +0.000 C 
BRANCH   9  11
ATOM     10  C   UNL     1       5.780   3.519  12.510  0.00  0.00    +0.000 C 
ATOM     11  C   UNL     1       7.035   4.215  13.048  0.00  0.00    +0.000 C 
ATOM     12  C   UNL     1       7.591   5.141  11.963  0.00  0.00    +0.000 C 
ENDBRANCH   9  11
ENDBRANCH   1   9
BRANCH   6  13
ATOM     13  C   UNL     1       2.821   6.281  18.601  0.00  0.00    +0.000 C 
BRANCH  13  14
ATOM     14  C   UNL     1       2.201   7.636  18.756  0.00  0.00    +0.000 A 
ATOM     15  C   UNL     1       2.072   8.608  17.785  0.00  0.00    +0.000 A 
ATOM     16  S   UNL     1       1.248   9.968  18.416  0.00  0.00    +0.000 S 
ATOM     17  C   UNL     1       1.097   9.173  19.942  0.00  0.00    +0.000 A 
ATOM     18  N   UNL     1       1.671   7.982  19.992  0.00  0.00    +0.000 NA
BRANCH  17  19
ATOM     19  C   UNL     1       0.341   9.807  21.037  0.00  0.00    +0.000 A 
ATOM     20  N   UNL     1      -0.014   9.011  22.069  0.00  0.00    +0.000 NA
ATOM     21  C   UNL     1      -0.699   9.599  23.066  0.00  0.00    +0.000 A 
ATOM     22  C   UNL     1      -1.027  10.936  23.075  0.00  0.00    +0.000 A 
ATOM     23  C   UNL     1      -0.615  11.659  21.979  0.00  0.00    +0.000 A 
ATOM     24  N   UNL     1       0.063  11.125  20.948  0.00  0.00    +0.000 NA
ENDBRANCH  17  19
ENDBRANCH  13  14
ENDBRANCH   6  13
TORSDOF 5
ENDMDL
MODEL 9
REMARK VINA RESULT:      -6.3      2.723      4.633
REMARK  Name = 
REMARK  7 active torsions:
REMARK  status: ('A' for Active; 'I' for Inactive)
REMARK    1  A    between atoms: C_1  and  C_2
REMARK    2  A    between atoms: C_2  and  C_3
REMARK    3  A    between atoms: C_2  and  C_4
REMARK    4  A    between atoms: C_4  and  C_5
REMARK    5  A    between atoms: N_10  and  C_11
REMARK    6  A    between atoms: C_11  and  C_12
REMARK    7  A    between atoms: C_15  and  C_16
REMARK                            x       y       z     vdW  Elec       q    Type
REMARK                         _______ _______ _______ _____ _____    ______ ____
ROOT
ATOM      1  C   UNL     1      -0.870  11.568  20.419  0.00  0.00    +0.000 C 
ATOM      2  O   UNL     1      -1.254  11.995  19.332  0.00  0.00    +0.000 OA
ATOM      3  N   UNL     1      -0.160  10.383  20.532  0.00  0.00    +0.000 N 
ATOM      4  C   UNL     1       0.277   9.691  19.319  0.00  0.00    +0.000 C 
ATOM      5  C   UNL     1       1.692   9.091  19.498  0.00  0.00    +0.000 C 
ATOM      6  N   UNL     1       1.872   8.263  20.716  0.00  0.00    +0.000 NA
ATOM      7  C   UNL     1       1.436   9.070  21.884  0.00  0.00    +0.000 C 
ATOM      8  C   UNL     1       0.004   9.619  21.776  0.00  0.00    +0.000 C 
ENDROOT
BRANCH   1   9
ATOM      9  C   UNL     1      -1.094  12.331  21.718  0.00  0.00    +0.000 C 
BRANCH   9  11
ATOM     10  C   UNL     1      -2.854  12.032  23.459  0.00  0.00    +0.000 C 
ATOM     11  C   UNL     1      -2.560  12.618  22.073  0.00  0.00    +0.000 C 
ATOM     12  C   UNL     1      -2.890  14.113  22.089  0.00  0.00    +0.000 C 
ENDBRANCH   9  11
ENDBRANCH   1   9
BRANCH   6  13
ATOM     13  C   UNL     1       1.127   6.994  20.579  0.00  0.00    +0.000 C 
BRANCH  13  14
ATOM     14  C   UNL     1       2.055   5.845  20.329  0.00  0.00    +0.000 A 
ATOM     15  C   UNL     1       1.908   4.545  20.769  0.00  0.00    +0.000 A 
ATOM     16  S   UNL     1       3.192   3.575  20.190  0.00  0.00    +0.000 S 
ATOM     17  C   UNL     1       3.860   4.942  19.371  0.00  0.00    +0.000 A 
ATOM     18  N   UNL     1       3.190   6.067  19.560  0.00  0.00    +0.000 NA
BRANCH  17  19
ATOM     19  C   UNL     1       5.051   4.786  18.517  0.00  0.00    +0.000 A 
ATOM     20  N   UNL     1       6.245   5.061  19.084  0.00  0.00    +0.000 NA
ATOM     21  C   UNL     1       7.326   4.911  18.298  0.00  0.00    +0.000 A 
ATOM     22  C   UNL     1       7.259   4.492  16.989  0.00  0.00    +0.000 A 
ATOM     23  C   UNL     1       5.996   4.235  16.508  0.00  0.00    +0.000 A 
ATOM     24  N   UNL     1       4.878   4.376  17.242  0.00  0.00    +0.000 NA
ENDBRANCH  17  19
ENDBRANCH  13  14
ENDBRANCH   6  13
TORSDOF 5
ENDMDL
