MODEL 1
REMARK VINA RESULT:      -8.2      0.000      0.000
REMARK  Name = 
REMARK  9 active torsions:
REMARK  status: ('A' for Active; 'I' for Inactive)
REMARK    1  A    between atoms: C_1  and  O_2
REMARK    2  A    between atoms: O_2  and  C_3
REMARK    3  A    between atoms: C_3  and  C_5
REMARK    4  A    between atoms: C_5  and  C_6
REMARK    5  A    between atoms: C_9  and  N_10
REMARK    6  A    between atoms: C_16  and  C_17
REMARK    7  A    between atoms: C_17  and  N_18
REMARK    8  A    between atoms: C_21  and  O_22
REMARK    9  A    between atoms: C_21  and  C_23
REMARK                            x       y       z     vdW  Elec       q    Type
REMARK                         _______ _______ _______ _____ _____    ______ ____
ROOT
ATOM      1  C   UNL     1       2.560   4.897  19.927  0.00  0.00    +0.000 C 
ATOM      2  C   UNL     1       1.137   5.253  19.485  0.00  0.00    +0.000 C 
ATOM      3  C   UNL     1       1.774   6.046  20.590  0.00  0.00    +0.000 C 
ENDROOT
BRANCH   1   4
ATOM      4  C   UNL     1       3.722   5.092  18.932  0.00  0.00    +0.000 A 
ATOM      5  C   UNL     1       3.677   4.648  17.596  0.00  0.00    +0.000 A 
ATOM      6  C   UNL     1       4.833   4.565  16.806  0.00  0.00    +0.000 A 
ATOM      7  C   UNL     1       6.068   4.956  17.338  0.00  0.00    +0.000 A 
ATOM      8  C   UNL     1       6.144   5.462  18.631  0.00  0.00    +0.000 A 
ATOM      9  C   UNL     1       4.983   5.525  19.405  0.00  0.00    +0.000 A 
BRANCH   7  10
ATOM     10  N   UNL     1       7.304   4.771  16.565  0.00  0.00    +0.000 N 
ATOM     11  O   UNL     1       8.221   4.125  17.097  0.00  0.00    +0.000 OA
ATOM     12  O   UNL     1       7.361   5.278  15.437  0.00  0.00    +0.000 OA
ENDBRANCH   7  10
ENDBRANCH   1   4
BRANCH   1  13
ATOM     13  C   UNL     1       2.744   3.659  20.783  0.00  0.00    +0.000 C 
ATOM     14  O   UNL     1       2.471   3.633  21.965  0.00  0.00    +0.000 OA
BRANCH  13  16
ATOM     15  C   UNL     1       4.387   2.013  20.401  0.00  0.00    +0.000 C 
ATOM     16  O   UNL     1       3.147   2.603  20.018  0.00  0.00    +0.000 OA
ENDBRANCH  13  16
ENDBRANCH   1  13
BRANCH   3  17
ATOM     17  C   UNL     1       2.043   7.505  20.390  0.00  0.00    +0.000 C 
BRANCH  17  18
ATOM     18  N   UNL     1       0.930   8.351  20.856  0.00  0.00    +0.000 NA
ATOM     19  C   UNL     1       0.686   9.412  19.866  0.00  0.00    +0.000 C 
ATOM     20  C   UNL     1      -0.460  10.342  20.241  0.00  0.00    +0.000 C 
ATOM     21  C   UNL     1      -0.288  10.945  21.643  0.00  0.00    +0.000 C 
ATOM     22  C   UNL     1       0.012   9.803  22.632  0.00  0.00    +0.000 C 
ATOM     23  C   UNL     1       1.182   8.934  22.178  0.00  0.00    +0.000 C 
BRANCH  21  24
ATOM     24  C   UNL     1      -1.543  11.760  21.977  0.00  0.00    +0.000 A 
ATOM     25  C   UNL     1      -2.089  11.780  23.271  0.00  0.00    +0.000 A 
ATOM     26  C   UNL     1      -3.324  12.373  23.528  0.00  0.00    +0.000 A 
ATOM     27  C   UNL     1      -4.032  12.984  22.499  0.00  0.00    +0.000 A 
ATOM     28  C   UNL     1      -3.491  13.027  21.219  0.00  0.00    +0.000 A 
ATOM     29  C   UNL     1      -2.258  12.424  20.959  0.00  0.00    +0.000 A 
ENDBRANCH  21  24
BRANCH  21  30
ATOM     30  O   UNL     1       0.854  11.814  21.648  0.00  0.00    +0.000 OA
ATOM     31  H   UNL     1       1.406  11.597  20.881  0.00  0.00    +0.000 HD
ENDBRANCH  21  30
ENDBRANCH  17  18
ENDBRANCH   3  17
TORSDOF 8
ENDMDL
MODEL 2
REMARK VINA RESULT:      -8.1      0.865      1.295
REMARK  Name = 
REMARK  9 active torsions:
REMARK  status: ('A' for Active; 'I' for Inactive)
REMARK    1  A    between atoms: C_1  and  O_2
REMARK    2  A    between atoms: O_2  and  C_3
REMARK    3  A    between atoms: C_3  and  C_5
REMARK    4  A    between atoms: C_5  and  C_6
REMARK    5  A    between atoms: C_9  and  N_10
REMARK    6  A    between atoms: C_16  and  C_17
REMARK    7  A    between atoms: C_17  and  N_18
REMARK    8  A    between atoms: C_21  and  O_22
REMARK    9  A    between atoms: C_21  and  C_23
REMARK                            x       y       z     vdW  Elec       q    Type
REMARK                         _______ _______ _______ _____ _____    ______ ____
ROOT
ATOM      1  C   UNL     1       2.640   4.552  19.643  0.00  0.00    +0.000 C 
ATOM      2  C   UNL     1       1.318   5.053  19.053  0.00  0.00    +0.000 C 
ATOM      3  C   UNL     1       1.855   5.710  20.293  0.00  0.00    +0.000 C 
ENDROOT
BRANCH   1   4
ATOM      4  C   UNL     1       3.936   4.725  18.825  0.00  0.00    +0.000 A 
ATOM      5  C   UNL     1       5.176   5.059  19.404  0.00  0.00    +0.000 A 
ATOM      6  C   UNL     1       6.258   5.500  18.628  0.00  0.00    +0.000 A 
ATOM      7  C   UNL     1       6.126   5.591  17.237  0.00  0.00    +0.000 A 
ATOM      8  C   UNL     1       4.939   5.207  16.621  0.00  0.00    +0.000 A 
ATOM      9  C   UNL     1       3.870   4.783  17.413  0.00  0.00    +0.000 A 
BRANCH   7  10
ATOM     10  N   UNL     1       7.209   6.156  16.421  0.00  0.00    +0.000 N 
ATOM     11  O   UNL     1       7.508   5.559  15.374  0.00  0.00    +0.000 OA
ATOM     12  O   UNL     1       7.764   7.183  16.829  0.00  0.00    +0.000 OA
ENDBRANCH   7  10
ENDBRANCH   1   4
BRANCH   1  13
ATOM     13  C   UNL     1       2.619   3.244  20.409  0.00  0.00    +0.000 C 
ATOM     14  O   UNL     1       3.156   3.109  21.489  0.00  0.00    +0.000 OA
BRANCH  13  16
ATOM     15  C   UNL     1       2.507   1.594  18.730  0.00  0.00    +0.000 C 
ATOM     16  O   UNL     1       1.848   2.322  19.763  0.00  0.00    +0.000 OA
ENDBRANCH  13  16
ENDBRANCH   1  13
BRANCH   3  17
ATOM     17  C   UNL     1       2.251   7.152  20.251  0.00  0.00    +0.000 C 
BRANCH  17  18
ATOM     18  N   UNL     1       1.170   8.045  20.704  0.00  0.00    +0.000 NA
ATOM     19  C   UNL     1       0.964   9.098  19.697  0.00  0.00    +0.000 C 
ATOM     20  C   UNL     1      -0.148  10.075  20.057  0.00  0.00    +0.000 C 
ATOM     21  C   UNL     1       0.047  10.694  21.449  0.00  0.00    +0.000 C 
ATOM     22  C   UNL     1       0.308   9.558  22.456  0.00  0.00    +0.000 C 
ATOM     23  C   UNL     1       1.445   8.641  22.016  0.00  0.00    +0.000 C 
BRANCH  21  24
ATOM     24  C   UNL     1      -1.177  11.559  21.770  0.00  0.00    +0.000 A 
ATOM     25  C   UNL     1      -1.727  11.613  23.062  0.00  0.00    +0.000 A 
ATOM     26  C   UNL     1      -2.939  12.254  23.308  0.00  0.00    +0.000 A 
ATOM     27  C   UNL     1      -3.620  12.881  22.270  0.00  0.00    +0.000 A 
ATOM     28  C   UNL     1      -3.074  12.891  20.992  0.00  0.00    +0.000 A 
ATOM     29  C   UNL     1      -1.863  12.240  20.743  0.00  0.00    +0.000 A 
ENDBRANCH  21  24
BRANCH  21  30
ATOM     30  O   UNL     1       1.220  11.521  21.439  0.00  0.00    +0.000 OA
ATOM     31  H   UNL     1       1.952  11.008  21.064  0.00  0.00    +0.000 HD
ENDBRANCH  21  30
ENDBRANCH  17  18
ENDBRANCH   3  17
TORSDOF 8
ENDMDL
MODEL 3
REMARK VINA RESULT:      -8.1      0.526      1.178
REMARK  Name = 
REMARK  9 active torsions:
REMARK  status: ('A' for Active; 'I' for Inactive)
REMARK    1  A    between atoms: C_1  and  O_2
REMARK    2  A    between atoms: O_2  and  C_3
REMARK    3  A    between atoms: C_3  and  C_5
REMARK    4  A    between atoms: C_5  and  C_6
REMARK    5  A    between atoms: C_9  and  N_10
REMARK    6  A    between atoms: C_16  and  C_17
REMARK    7  A    between atoms: C_17  and  N_18
REMARK    8  A    between atoms: C_21  and  O_22
REMARK    9  A    between atoms: C_21  and  C_23
REMARK                            x       y       z     vdW  Elec       q    Type
REMARK                         _______ _______ _______ _____ _____    ______ ____
ROOT
ATOM      1  C   UNL     1       2.531   4.836  19.940  0.00  0.00    +0.000 C 
ATOM      2  C   UNL     1       1.136   5.222  19.437  0.00  0.00    +0.000 C 
ATOM      3  C   UNL     1       1.743   6.002  20.569  0.00  0.00    +0.000 C 
ENDROOT
BRANCH   1   4
ATOM      4  C   UNL     1       3.738   5.005  18.995  0.00  0.00    +0.000 A 
ATOM      5  C   UNL     1       3.688   4.712  17.619  0.00  0.00    +0.000 A 
ATOM      6  C   UNL     1       4.853   4.585  16.847  0.00  0.00    +0.000 A 
ATOM      7  C   UNL     1       6.105   4.778  17.442  0.00  0.00    +0.000 A 
ATOM      8  C   UNL     1       6.195   5.133  18.784  0.00  0.00    +0.000 A 
ATOM      9  C   UNL     1       5.024   5.242  19.537  0.00  0.00    +0.000 A 
BRANCH   7  10
ATOM     10  N   UNL     1       7.338   4.540  16.678  0.00  0.00    +0.000 N 
ATOM     11  O   UNL     1       7.302   4.748  15.455  0.00  0.00    +0.000 OA
ATOM     12  O   UNL     1       8.331   4.137  17.296  0.00  0.00    +0.000 OA
ENDBRANCH   7  10
ENDBRANCH   1   4
BRANCH   1  13
ATOM     13  C   UNL     1       2.652   3.594  20.803  0.00  0.00    +0.000 C 
ATOM     14  O   UNL     1       2.382   3.591  21.985  0.00  0.00    +0.000 OA
BRANCH  13  16
ATOM     15  C   UNL     1       1.913   1.882  19.361  0.00  0.00    +0.000 C 
ATOM     16  O   UNL     1       2.994   2.514  20.043  0.00  0.00    +0.000 OA
ENDBRANCH  13  16
ENDBRANCH   1  13
BRANCH   3  17
ATOM     17  C   UNL     1       2.052   7.454  20.381  0.00  0.00    +0.000 C 
BRANCH  17  18
ATOM     18  N   UNL     1       0.940   8.325  20.803  0.00  0.00    +0.000 NA
ATOM     19  C   UNL     1       0.782   9.411  19.823  0.00  0.00    +0.000 C 
ATOM     20  C   UNL     1      -0.355  10.369  20.155  0.00  0.00    +0.000 C 
ATOM     21  C   UNL     1      -0.243  10.940  21.576  0.00  0.00    +0.000 C 
ATOM     22  C   UNL     1      -0.030   9.770  22.556  0.00  0.00    +0.000 C 
ATOM     23  C   UNL     1       1.137   8.875  22.149  0.00  0.00    +0.000 C 
BRANCH  21  24
ATOM     24  C   UNL     1      -1.489  11.786  21.858  0.00  0.00    +0.000 A 
ATOM     25  C   UNL     1      -2.246  12.357  20.822  0.00  0.00    +0.000 A 
ATOM     26  C   UNL     1      -3.266  13.268  21.086  0.00  0.00    +0.000 A 
ATOM     27  C   UNL     1      -3.573  13.611  22.398  0.00  0.00    +0.000 A 
ATOM     28  C   UNL     1      -2.877  13.021  23.447  0.00  0.00    +0.000 A 
ATOM     29  C   UNL     1      -1.847  12.114  23.182  0.00  0.00    +0.000 A 
ENDBRANCH  21  24
BRANCH  21  30
ATOM     30  O   UNL     1       0.923  11.773  21.661  0.00  0.00    +0.000 OA
ATOM     31  H   UNL     1       1.707  11.211  21.565  0.00  0.00    +0.000 HD
ENDBRANCH  21  30
ENDBRANCH  17  18
ENDBRANCH   3  17
TORSDOF 8
ENDMDL
MODEL 4
REMARK VINA RESULT:      -8.1      0.856      1.561
REMARK  Name = 
REMARK  9 active torsions:
REMARK  status: ('A' for Active; 'I' for Inactive)
REMARK    1  A    between atoms: C_1  and  O_2
REMARK    2  A    between atoms: O_2  and  C_3
REMARK    3  A    between atoms: C_3  and  C_5
REMARK    4  A    between atoms: C_5  and  C_6
REMARK    5  A    between atoms: C_9  and  N_10
REMARK    6  A    between atoms: C_16  and  C_17
REMARK    7  A    between atoms: C_17  and  N_18
REMARK    8  A    between atoms: C_21  and  O_22
REMARK    9  A    between atoms: C_21  and  C_23
REMARK                            x       y       z     vdW  Elec       q    Type
REMARK                         _______ _______ _______ _____ _____    ______ ____
ROOT
ATOM      1  C   UNL     1       2.731   4.612  19.675  0.00  0.00    +0.000 C 
ATOM      2  C   UNL     1       1.387   5.022  19.064  0.00  0.00    +0.000 C 
ATOM      3  C   UNL     1       1.915   5.792  20.241  0.00  0.00    +0.000 C 
ENDROOT
BRANCH   1   4
ATOM      4  C   UNL     1       4.011   4.760  18.829  0.00  0.00    +0.000 A 
ATOM      5  C   UNL     1       5.245   5.180  19.362  0.00  0.00    +0.000 A 
ATOM      6  C   UNL     1       6.304   5.593  18.539  0.00  0.00    +0.000 A 
ATOM      7  C   UNL     1       6.154   5.565  17.148  0.00  0.00    +0.000 A 
ATOM      8  C   UNL     1       4.975   5.094  16.580  0.00  0.00    +0.000 A 
ATOM      9  C   UNL     1       3.929   4.700  17.418  0.00  0.00    +0.000 A 
BRANCH   7  10
ATOM     10  N   UNL     1       7.209   6.097  16.274  0.00  0.00    +0.000 N 
ATOM     11  O   UNL     1       7.773   7.144  16.629  0.00  0.00    +0.000 OA
ATOM     12  O   UNL     1       7.465   5.477  15.234  0.00  0.00    +0.000 OA
ENDBRANCH   7  10
ENDBRANCH   1   4
BRANCH   1  13
ATOM     13  C   UNL     1       2.761   3.369  20.543  0.00  0.00    +0.000 C 
ATOM     14  O   UNL     1       2.495   3.391  21.726  0.00  0.00    +0.000 OA
BRANCH  13  16
ATOM     15  C   UNL     1       1.915   1.769  19.033  0.00  0.00    +0.000 C 
ATOM     16  O   UNL     1       3.020   2.263  19.787  0.00  0.00    +0.000 OA
ENDBRANCH  13  16
ENDBRANCH   1  13
BRANCH   3  17
ATOM     17  C   UNL     1       2.263   7.239  20.079  0.00  0.00    +0.000 C 
BRANCH  17  18
ATOM     18  N   UNL     1       1.173   8.131  20.511  0.00  0.00    +0.000 NA
ATOM     19  C   UNL     1       1.061   9.247  19.560  0.00  0.00    +0.000 C 
ATOM     20  C   UNL     1      -0.052  10.230  19.902  0.00  0.00    +0.000 C 
ATOM     21  C   UNL     1       0.058  10.759  21.340  0.00  0.00    +0.000 C 
ATOM     22  C   UNL     1       0.223   9.558  22.290  0.00  0.00    +0.000 C 
ATOM     23  C   UNL     1       1.368   8.638  21.874  0.00  0.00    +0.000 C 
BRANCH  21  24
ATOM     24  C   UNL     1      -1.166  11.634  21.629  0.00  0.00    +0.000 A 
ATOM     25  C   UNL     1      -1.773  12.412  20.629  0.00  0.00    +0.000 A 
ATOM     26  C   UNL     1      -2.767  13.338  20.934  0.00  0.00    +0.000 A 
ATOM     27  C   UNL     1      -3.199  13.492  22.247  0.00  0.00    +0.000 A 
ATOM     28  C   UNL     1      -2.655  12.698  23.250  0.00  0.00    +0.000 A 
ATOM     29  C   UNL     1      -1.651  11.775  22.946  0.00  0.00    +0.000 A 
ENDBRANCH  21  24
BRANCH  21  30
ATOM     30  O   UNL     1       1.247  11.554  21.462  0.00  0.00    +0.000 OA
ATOM     31  H   UNL     1       1.864  11.091  22.050  0.00  0.00    +0.000 HD
ENDBRANCH  21  30
ENDBRANCH  17  18
ENDBRANCH   3  17
TORSDOF 8
ENDMDL
MODEL 5
REMARK VINA RESULT:      -7.9      1.466      1.852
REMARK  Name = 
REMARK  9 active torsions:
REMARK  status: ('A' for Active; 'I' for Inactive)
REMARK    1  A    between atoms: C_1  and  O_2
REMARK    2  A    between atoms: O_2  and  C_3
REMARK    3  A    between atoms: C_3  and  C_5
REMARK    4  A    between atoms: C_5  and  C_6
REMARK    5  A    between atoms: C_9  and  N_10
REMARK    6  A    between atoms: C_16  and  C_17
REMARK    7  A    between atoms: C_17  and  N_18
REMARK    8  A    between atoms: C_21  and  O_22
REMARK    9  A    between atoms: C_21  and  C_23
REMARK                            x       y       z     vdW  Elec       q    Type
REMARK                         _______ _______ _______ _____ _____    ______ ____
ROOT
ATOM      1  C   UNL     1       3.526   5.052  18.569  0.00  0.00    +0.000 C 
ATOM      2  C   UNL     1       1.995   4.999  18.554  0.00  0.00    +0.000 C 
ATOM      3  C   UNL     1       2.676   6.182  19.184  0.00  0.00    +0.000 C 
ENDROOT
BRANCH   1   4
ATOM      4  C   UNL     1       4.282   5.157  17.229  0.00  0.00    +0.000 A 
ATOM      5  C   UNL     1       4.170   4.199  16.202  0.00  0.00    +0.000 A 
ATOM      6  C   UNL     1       5.077   4.152  15.133  0.00  0.00    +0.000 A 
ATOM      7  C   UNL     1       6.111   5.093  15.057  0.00  0.00    +0.000 A 
ATOM      8  C   UNL     1       6.216   6.095  16.015  0.00  0.00    +0.000 A 
ATOM      9  C   UNL     1       5.311   6.116  17.078  0.00  0.00    +0.000 A 
BRANCH   7  10
ATOM     10  N   UNL     1       7.135   4.992  14.008  0.00  0.00    +0.000 N 
ATOM     11  O   UNL     1       6.895   4.248  13.043  0.00  0.00    +0.000 OA
ATOM     12  O   UNL     1       8.177   5.643  14.153  0.00  0.00    +0.000 OA
ENDBRANCH   7  10
ENDBRANCH   1   4
BRANCH   1  13
ATOM     13  C   UNL     1       4.253   4.170  19.566  0.00  0.00    +0.000 C 
ATOM     14  O   UNL     1       5.346   4.450  20.012  0.00  0.00    +0.000 OA
BRANCH  13  16
ATOM     15  C   UNL     1       3.664   1.919  19.192  0.00  0.00    +0.000 C 
ATOM     16  O   UNL     1       3.467   3.119  19.937  0.00  0.00    +0.000 OA
ENDBRANCH  13  16
ENDBRANCH   1  13
BRANCH   3  17
ATOM     17  C   UNL     1       2.488   7.543  18.591  0.00  0.00    +0.000 C 
BRANCH  17  18
ATOM     18  N   UNL     1       1.416   8.303  19.256  0.00  0.00    +0.000 NA
ATOM     19  C   UNL     1       1.391   9.671  18.717  0.00  0.00    +0.000 C 
ATOM     20  C   UNL     1       0.304  10.547  19.327  0.00  0.00    +0.000 C 
ATOM     21  C   UNL     1       0.370  10.576  20.861  0.00  0.00    +0.000 C 
ATOM     22  C   UNL     1       0.443   9.125  21.373  0.00  0.00    +0.000 C 
ATOM     23  C   UNL     1       1.568   8.331  20.715  0.00  0.00    +0.000 C 
BRANCH  21  24
ATOM     24  C   UNL     1      -0.830  11.373  21.382  0.00  0.00    +0.000 A 
ATOM     25  C   UNL     1      -1.217  11.331  22.733  0.00  0.00    +0.000 A 
ATOM     26  C   UNL     1      -2.408  11.910  23.164  0.00  0.00    +0.000 A 
ATOM     27  C   UNL     1      -3.231  12.570  22.258  0.00  0.00    +0.000 A 
ATOM     28  C   UNL     1      -2.848  12.675  20.926  0.00  0.00    +0.000 A 
ATOM     29  C   UNL     1      -1.659  12.086  20.491  0.00  0.00    +0.000 A 
ENDBRANCH  21  24
BRANCH  21  30
ATOM     30  O   UNL     1       1.583  11.225  21.271  0.00  0.00    +0.000 OA
ATOM     31  H   UNL     1       2.241  11.112  20.569  0.00  0.00    +0.000 HD
ENDBRANCH  21  30
ENDBRANCH  17  18
ENDBRANCH   3  17
TORSDOF 8
ENDMDL
MODEL 6
REMARK VINA RESULT:      -7.9      1.441      1.854
REMARK  Name = 
REMARK  9 active torsions:
REMARK  status: ('A' for Active; 'I' for Inactive)
REMARK    1  A    between atoms: C_1  and  O_2
REMARK    2  A    between atoms: O_2  and  C_3
REMARK    3  A    between atoms: C_3  and  C_5
REMARK    4  A    between atoms: C_5  and  C_6
REMARK    5  A    between atoms: C_9  and  N_10
REMARK    6  A    between atoms: C_16  and  C_17
REMARK    7  A    between atoms: C_17  and  N_18
REMARK    8  A    between atoms: C_21  and  O_22
REMARK    9  A    between atoms: C_21  and  C_23
REMARK                            x       y       z     vdW  Elec       q    Type
REMARK                         _______ _______ _______ _____ _____    ______ ____
ROOT
ATOM      1  C   UNL     1       2.824   4.487  18.382  0.00  0.00    +0.000 C 
ATOM      2  C   UNL     1       1.474   5.034  17.905  0.00  0.00    +0.000 C 
ATOM      3  C   UNL     1       2.088   5.603  19.152  0.00  0.00    +0.000 C 
ENDROOT
BRANCH   1   4
ATOM      4  C   UNL     1       4.072   4.708  17.503  0.00  0.00    +0.000 A 
ATOM      5  C   UNL     1       4.360   5.930  16.865  0.00  0.00    +0.000 A 
ATOM      6  C   UNL     1       5.319   6.022  15.845  0.00  0.00    +0.000 A 
ATOM      7  C   UNL     1       6.035   4.883  15.459  0.00  0.00    +0.000 A 
ATOM      8  C   UNL     1       5.826   3.671  16.110  0.00  0.00    +0.000 A 
ATOM      9  C   UNL     1       4.858   3.598  17.113  0.00  0.00    +0.000 A 
BRANCH   7  10
ATOM     10  N   UNL     1       6.961   4.936  14.319  0.00  0.00    +0.000 N 
ATOM     11  O   UNL     1       6.664   4.278  13.309  0.00  0.00    +0.000 OA
ATOM     12  O   UNL     1       7.985   5.622  14.438  0.00  0.00    +0.000 OA
ENDBRANCH   7  10
ENDBRANCH   1   4
BRANCH   1  13
ATOM     13  C   UNL     1       2.836   3.131  19.059  0.00  0.00    +0.000 C 
ATOM     14  O   UNL     1       2.399   2.131  18.529  0.00  0.00    +0.000 OA
BRANCH  13  16
ATOM     15  C   UNL     1       2.734   2.735  21.380  0.00  0.00    +0.000 C 
ATOM     16  O   UNL     1       3.482   3.199  20.259  0.00  0.00    +0.000 OA
ENDBRANCH  13  16
ENDBRANCH   1  13
BRANCH   3  17
ATOM     17  C   UNL     1       2.494   7.043  19.184  0.00  0.00    +0.000 C 
BRANCH  17  18
ATOM     18  N   UNL     1       1.426   7.917  19.701  0.00  0.00    +0.000 NA
ATOM     19  C   UNL     1       1.550   9.245  19.081  0.00  0.00    +0.000 C 
ATOM     20  C   UNL     1       0.482  10.231  19.536  0.00  0.00    +0.000 C 
ATOM     21  C   UNL     1       0.415  10.356  21.065  0.00  0.00    +0.000 C 
ATOM     22  C   UNL     1       0.336   8.940  21.668  0.00  0.00    +0.000 C 
ATOM     23  C   UNL     1       1.453   8.030  21.164  0.00  0.00    +0.000 C 
BRANCH  21  24
ATOM     24  C   UNL     1      -0.764  11.266  21.426  0.00  0.00    +0.000 A 
ATOM     25  C   UNL     1      -1.223  11.395  22.748  0.00  0.00    +0.000 A 
ATOM     26  C   UNL     1      -2.400  12.078  23.044  0.00  0.00    +0.000 A 
ATOM     27  C   UNL     1      -3.137  12.673  22.025  0.00  0.00    +0.000 A 
ATOM     28  C   UNL     1      -2.679  12.608  20.714  0.00  0.00    +0.000 A 
ATOM     29  C   UNL     1      -1.503  11.915  20.416  0.00  0.00    +0.000 A 
ENDBRANCH  21  24
BRANCH  21  30
ATOM     30  O   UNL     1       1.632  10.947  21.545  0.00  0.00    +0.000 OA
ATOM     31  H   UNL     1       2.099  11.337  20.791  0.00  0.00    +0.000 HD
ENDBRANCH  21  30
ENDBRANCH  17  18
ENDBRANCH   3  17
TORSDOF 8
ENDMDL
MODEL 7
REMARK VINA RESULT:      -7.9      2.097      3.012
REMARK  Name = 
REMARK  9 active torsions:
REMARK  status: ('A' for Active; 'I' for Inactive)
REMARK    1  A    between atoms: C_1  and  O_2
REMARK    2  A    between atoms: O_2  and  C_3
REMARK    3  A    between atoms: C_3  and  C_5
REMARK    4  A    between atoms: C_5  and  C_6
REMARK    5  A    between atoms: C_9  and  N_10
REMARK    6  A    between atoms: C_16  and  C_17
REMARK    7  A    between atoms: C_17  and  N_18
REMARK    8  A    between atoms: C_21  and  O_22
REMARK    9  A    between atoms: C_21  and  C_23
REMARK                            x       y       z     vdW  Elec       q    Type
REMARK                         _______ _______ _______ _____ _____    ______ ____
ROOT
ATOM      1  C   UNL     1       4.140   5.075  18.292  0.00  0.00    +0.000 C 
ATOM      2  C   UNL     1       2.654   4.769  18.503  0.00  0.00    +0.000 C 
ATOM      3  C   UNL     1       3.156   6.157  18.781  0.00  0.00    +0.000 C 
ENDROOT
BRANCH   1   4
ATOM      4  C   UNL     1       4.722   5.002  16.866  0.00  0.00    +0.000 A 
ATOM      5  C   UNL     1       5.044   3.790  16.225  0.00  0.00    +0.000 A 
ATOM      6  C   UNL     1       5.839   3.755  15.069  0.00  0.00    +0.000 A 
ATOM      7  C   UNL     1       6.309   4.950  14.511  0.00  0.00    +0.000 A 
ATOM      8  C   UNL     1       5.959   6.171  15.077  0.00  0.00    +0.000 A 
ATOM      9  C   UNL     1       5.178   6.184  16.235  0.00  0.00    +0.000 A 
BRANCH   7  10
ATOM     10  N   UNL     1       7.232   4.926  13.368  0.00  0.00    +0.000 N 
ATOM     11  O   UNL     1       6.970   4.150  12.436  0.00  0.00    +0.000 OA
ATOM     12  O   UNL     1       8.220   5.671  13.408  0.00  0.00    +0.000 OA
ENDBRANCH   7  10
ENDBRANCH   1   4
BRANCH   1  13
ATOM     13  C   UNL     1       5.119   4.569  19.334  0.00  0.00    +0.000 C 
ATOM     14  O   UNL     1       5.147   3.413  19.699  0.00  0.00    +0.000 OA
BRANCH  13  16
ATOM     15  C   UNL     1       7.316   5.411  19.200  0.00  0.00    +0.000 C 
ATOM     16  O   UNL     1       5.987   5.558  19.696  0.00  0.00    +0.000 OA
ENDBRANCH  13  16
ENDBRANCH   1  13
BRANCH   3  17
ATOM     17  C   UNL     1       2.653   7.302  17.959  0.00  0.00    +0.000 C 
BRANCH  17  18
ATOM     18  N   UNL     1       2.289   8.468  18.783  0.00  0.00    +0.000 NA
ATOM     19  C   UNL     1       1.432   8.024  19.893  0.00  0.00    +0.000 C 
ATOM     20  C   UNL     1       1.005   9.153  20.823  0.00  0.00    +0.000 C 
ATOM     21  C   UNL     1       0.344  10.314  20.066  0.00  0.00    +0.000 C 
ATOM     22  C   UNL     1       1.254  10.709  18.887  0.00  0.00    +0.000 C 
ATOM     23  C   UNL     1       1.617   9.517  18.007  0.00  0.00    +0.000 C 
BRANCH  21  24
ATOM     24  C   UNL     1       0.068  11.446  21.061  0.00  0.00    +0.000 A 
ATOM     25  C   UNL     1      -0.819  11.283  22.139  0.00  0.00    +0.000 A 
ATOM     26  C   UNL     1      -1.203  12.363  22.931  0.00  0.00    +0.000 A 
ATOM     27  C   UNL     1      -0.688  13.630  22.680  0.00  0.00    +0.000 A 
ATOM     28  C   UNL     1       0.233  13.811  21.655  0.00  0.00    +0.000 A 
ATOM     29  C   UNL     1       0.611  12.731  20.854  0.00  0.00    +0.000 A 
ENDBRANCH  21  24
BRANCH  21  30
ATOM     30  O   UNL     1      -0.897   9.866  19.502  0.00  0.00    +0.000 OA
ATOM     31  H   UNL     1      -1.021  10.307  18.648  0.00  0.00    +0.000 HD
ENDBRANCH  21  30
ENDBRANCH  17  18
ENDBRANCH   3  17
TORSDOF 8
ENDMDL
MODEL 8
REMARK VINA RESULT:      -7.9      1.708      2.381
REMARK  Name = 
REMARK  9 active torsions:
REMARK  status: ('A' for Active; 'I' for Inactive)
REMARK    1  A    between atoms: C_1  and  O_2
REMARK    2  A    between atoms: O_2  and  C_3
REMARK    3  A    between atoms: C_3  and  C_5
REMARK    4  A    between atoms: C_5  and  C_6
REMARK    5  A    between atoms: C_9  and  N_10
REMARK    6  A    between atoms: C_16  and  C_17
REMARK    7  A    between atoms: C_17  and  N_18
REMARK    8  A    between atoms: C_21  and  O_22
REMARK    9  A    between atoms: C_21  and  C_23
REMARK                            x       y       z     vdW  Elec       q    Type
REMARK                         _______ _______ _______ _____ _____    ______ ____
ROOT
ATOM      1  C   UNL     1       3.845   5.184  18.415  0.00  0.00    +0.000 C 
ATOM      2  C   UNL     1       2.320   5.082  18.521  0.00  0.00    +0.000 C 
ATOM      3  C   UNL     1       2.995   6.356  18.945  0.00  0.00    +0.000 C 
ENDROOT
BRANCH   1   4
ATOM      4  C   UNL     1       4.501   5.139  17.020  0.00  0.00    +0.000 A 
ATOM      5  C   UNL     1       4.620   3.959  16.260  0.00  0.00    +0.000 A 
ATOM      6  C   UNL     1       5.471   3.880  15.147  0.00  0.00    +0.000 A 
ATOM      7  C   UNL     1       6.207   5.003  14.754  0.00  0.00    +0.000 A 
ATOM      8  C   UNL     1       6.068   6.206  15.438  0.00  0.00    +0.000 A 
ATOM      9  C   UNL     1       5.225   6.260  16.550  0.00  0.00    +0.000 A 
BRANCH   7  10
ATOM     10  N   UNL     1       7.186   4.908  13.662  0.00  0.00    +0.000 N 
ATOM     11  O   UNL     1       8.177   5.654  13.714  0.00  0.00    +0.000 OA
ATOM     12  O   UNL     1       6.960   4.099  12.753  0.00  0.00    +0.000 OA
ENDBRANCH   7  10
ENDBRANCH   1   4
BRANCH   1  13
ATOM     13  C   UNL     1       4.675   4.459  19.458  0.00  0.00    +0.000 C 
ATOM     14  O   UNL     1       5.815   4.778  19.724  0.00  0.00    +0.000 OA
BRANCH  13  16
ATOM     15  C   UNL     1       4.318   2.160  19.833  0.00  0.00    +0.000 C 
ATOM     16  O   UNL     1       3.927   3.508  20.088  0.00  0.00    +0.000 OA
ENDBRANCH  13  16
ENDBRANCH   1  13
BRANCH   3  17
ATOM     17  C   UNL     1       2.713   7.623  18.202  0.00  0.00    +0.000 C 
BRANCH  17  18
ATOM     18  N   UNL     1       1.546   8.344  18.741  0.00  0.00    +0.000 NA
ATOM     19  C   UNL     1       1.502   9.693  18.157  0.00  0.00    +0.000 C 
ATOM     20  C   UNL     1       0.320  10.526  18.637  0.00  0.00    +0.000 C 
ATOM     21  C   UNL     1       0.242  10.601  20.169  0.00  0.00    +0.000 C 
ATOM     22  C   UNL     1       0.341   9.171  20.733  0.00  0.00    +0.000 C 
ATOM     23  C   UNL     1       1.562   8.421  20.207  0.00  0.00    +0.000 C 
BRANCH  21  24
ATOM     24  C   UNL     1      -1.040  11.347  20.553  0.00  0.00    +0.000 A 
ATOM     25  C   UNL     1      -1.958  11.787  19.585  0.00  0.00    +0.000 A 
ATOM     26  C   UNL     1      -3.025  12.617  19.921  0.00  0.00    +0.000 A 
ATOM     27  C   UNL     1      -3.216  13.007  21.242  0.00  0.00    +0.000 A 
ATOM     28  C   UNL     1      -2.355  12.543  22.231  0.00  0.00    +0.000 A 
ATOM     29  C   UNL     1      -1.280  11.719  21.892  0.00  0.00    +0.000 A 
ENDBRANCH  21  24
BRANCH  21  30
ATOM     30  O   UNL     1       1.377  11.326  20.666  0.00  0.00    +0.000 OA
ATOM     31  H   UNL     1       1.055  12.069  21.199  0.00  0.00    +0.000 HD
ENDBRANCH  21  30
ENDBRANCH  17  18
ENDBRANCH   3  17
TORSDOF 8
ENDMDL
MODEL 9
REMARK VINA RESULT:      -7.8      1.876      2.788
REMARK  Name = 
REMARK  9 active torsions:
REMARK  status: ('A' for Active; 'I' for Inactive)
REMARK    1  A    between atoms: C_1  and  O_2
REMARK    2  A    between atoms: O_2  and  C_3
REMARK    3  A    between atoms: C_3  and  C_5
REMARK    4  A    between atoms: C_5  and  C_6
REMARK    5  A    between atoms: C_9  and  N_10
REMARK    6  A    between atoms: C_16  and  C_17
REMARK    7  A    between atoms: C_17  and  N_18
REMARK    8  A    between atoms: C_21  and  O_22
REMARK    9  A    between atoms: C_21  and  C_23
REMARK                            x       y       z     vdW  Elec       q    Type
REMARK                         _______ _______ _______ _____ _____    ______ ____
ROOT
ATOM      1  C   UNL     1       3.852   4.180  18.382  0.00  0.00    +0.000 C 
ATOM      2  C   UNL     1       2.392   4.324  17.942  0.00  0.00    +0.000 C 
ATOM      3  C   UNL     1       2.988   5.374  18.836  0.00  0.00    +0.000 C 
ENDROOT
BRANCH   1   4
ATOM      4  C   UNL     1       4.964   4.261  17.317  0.00  0.00    +0.000 A 
ATOM      5  C   UNL     1       5.980   5.236  17.334  0.00  0.00    +0.000 A 
ATOM      6  C   UNL     1       6.791   5.478  16.215  0.00  0.00    +0.000 A 
ATOM      7  C   UNL     1       6.615   4.718  15.052  0.00  0.00    +0.000 A 
ATOM      8  C   UNL     1       5.667   3.702  15.017  0.00  0.00    +0.000 A 
ATOM      9  C   UNL     1       4.862   3.486  16.138  0.00  0.00    +0.000 A 
BRANCH   7  10
ATOM     10  N   UNL     1       7.378   5.031  13.835  0.00  0.00    +0.000 N 
ATOM     11  O   UNL     1       6.997   4.516  12.772  0.00  0.00    +0.000 OA
ATOM     12  O   UNL     1       8.358   5.779  13.944  0.00  0.00    +0.000 OA
ENDBRANCH   7  10
ENDBRANCH   1   4
BRANCH   1  13
ATOM     13  C   UNL     1       4.166   3.160  19.459  0.00  0.00    +0.000 C 
ATOM     14  O   UNL     1       5.279   3.019  19.922  0.00  0.00    +0.000 OA
BRANCH  13  16
ATOM     15  C   UNL     1       2.765   2.610  21.272  0.00  0.00    +0.000 C 
ATOM     16  O   UNL     1       3.027   2.533  19.873  0.00  0.00    +0.000 OA
ENDBRANCH  13  16
ENDBRANCH   1  13
BRANCH   3  17
ATOM     17  C   UNL     1       3.124   6.778  18.337  0.00  0.00    +0.000 C 
BRANCH  17  18
ATOM     18  N   UNL     1       1.941   7.601  18.645  0.00  0.00    +0.000 NA
ATOM     19  C   UNL     1       1.963   8.808  17.804  0.00  0.00    +0.000 C 
ATOM     20  C   UNL     1       0.771   9.730  18.031  0.00  0.00    +0.000 C 
ATOM     21  C   UNL     1       0.599  10.109  19.509  0.00  0.00    +0.000 C 
ATOM     22  C   UNL     1       0.632   8.819  20.350  0.00  0.00    +0.000 C 
ATOM     23  C   UNL     1       1.866   7.968  20.064  0.00  0.00    +0.000 C 
BRANCH  21  24
ATOM     24  C   UNL     1      -0.688  10.927  19.652  0.00  0.00    +0.000 A 
ATOM     25  C   UNL     1      -1.723  10.852  18.704  0.00  0.00    +0.000 A 
ATOM     26  C   UNL     1      -2.806  11.727  18.742  0.00  0.00    +0.000 A 
ATOM     27  C   UNL     1      -2.896  12.683  19.747  0.00  0.00    +0.000 A 
ATOM     28  C   UNL     1      -1.916  12.746  20.731  0.00  0.00    +0.000 A 
ATOM     29  C   UNL     1      -0.824  11.875  20.687  0.00  0.00    +0.000 A 
ENDBRANCH  21  24
BRANCH  21  30
ATOM     30  O   UNL     1       1.716  10.908  19.926  0.00  0.00    +0.000 OA
ATOM     31  H   UNL     1       1.712  11.729  19.411  0.00  0.00    +0.000 HD
ENDBRANCH  21  30
ENDBRANCH  17  18
ENDBRANCH   3  17
TORSDOF 8
ENDMDL
