MODEL 1
REMARK VINA RESULT:      -7.0      0.000      0.000
REMARK  Name = 
REMARK  5 active torsions:
REMARK  status: ('A' for Active; 'I' for Inactive)
REMARK    1  A    between atoms: C_1  and  N_2
REMARK    2  A    between atoms: N_2  and  C_3
REMARK    3  A    between atoms: C_5  and  C_6
REMARK    4  A    between atoms: C_12  and  C_13
REMARK    5  A    between atoms: C_17  and  C_18
REMARK                            x       y       z     vdW  Elec       q    Type
REMARK                         _______ _______ _______ _____ _____    ______ ____
ROOT
ATOM      1  C   UNL     1       4.668   4.739  19.313  0.00  0.00    +0.000 A 
ATOM      2  N   UNL     1       4.100   5.926  18.991  0.00  0.00    +0.000 NA
ATOM      3  C   UNL     1       2.759   6.069  19.072  0.00  0.00    +0.000 A 
ATOM      4  C   UNL     1       1.925   5.013  19.399  0.00  0.00    +0.000 A 
ATOM      5  C   UNL     1       2.488   3.772  19.723  0.00  0.00    +0.000 A 
ATOM      6  C   UNL     1       3.885   3.637  19.693  0.00  0.00    +0.000 A 
ENDROOT
BRANCH   3   7
ATOM      7  C   UNL     1       2.278   7.438  18.853  0.00  0.00    +0.000 A 
ATOM      8  C   UNL     1       2.415   8.238  17.730  0.00  0.00    +0.000 A 
ATOM      9  C   UNL     1       1.876   9.546  17.913  0.00  0.00    +0.000 A 
ATOM     10  C   UNL     1       1.350   9.715  19.172  0.00  0.00    +0.000 A 
ATOM     11  S   UNL     1       1.495   8.303  20.118  0.00  0.00    +0.000 S 
ENDBRANCH   3   7
BRANCH   5  12
ATOM     12  C   UNL     1       1.594   2.628  20.115  0.00  0.00    +0.000 C 
ATOM     13  F   UNL     1       0.269   2.922  19.992  0.00  0.00    +0.000 F 
ATOM     14  F   UNL     1       1.798   1.522  19.353  0.00  0.00    +0.000 F 
ATOM     15  F   UNL     1       1.767   2.252  21.408  0.00  0.00    +0.000 F 
ENDBRANCH   5  12
BRANCH   1  17
ATOM     16  C   UNL     1       6.638   4.850  17.914  0.00  0.00    +0.000 C 
ATOM     17  N   UNL     1       6.066   4.624  19.234  0.00  0.00    +0.000 N 
ATOM     18  H   UNL     1       6.521   5.199  19.941  0.00  0.00    +0.000 HD
ENDBRANCH   1  17
BRANCH   6  19
ATOM     19  C   UNL     1       4.510   2.402  20.073  0.00  0.00    +0.000 C 
ATOM     20  N   UNL     1       5.048   1.430  20.405  0.00  0.00    +0.000 NA
ENDBRANCH   6  19
TORSDOF 4
ENDMDL
MODEL 2
REMARK VINA RESULT:      -6.7      0.765      1.311
REMARK  Name = 
REMARK  5 active torsions:
REMARK  status: ('A' for Active; 'I' for Inactive)
REMARK    1  A    between atoms: C_1  and  N_2
REMARK    2  A    between atoms: N_2  and  C_3
REMARK    3  A    between atoms: C_5  and  C_6
REMARK    4  A    between atoms: C_12  and  C_13
REMARK    5  A    between atoms: C_17  and  C_18
REMARK                            x       y       z     vdW  Elec       q    Type
REMARK                         _______ _______ _______ _____ _____    ______ ____
ROOT
ATOM      1  C   UNL     1       4.588   4.834  19.418  0.00  0.00    +0.000 A 
ATOM      2  N   UNL     1       3.989   6.033  19.223  0.00  0.00    +0.000 NA
ATOM      3  C   UNL     1       2.660   6.158  19.431  0.00  0.00    +0.000 A 
ATOM      4  C   UNL     1       1.863   5.076  19.764  0.00  0.00    +0.000 A 
ATOM      5  C   UNL     1       2.458   3.823  19.958  0.00  0.00    +0.000 A 
ATOM      6  C   UNL     1       3.846   3.703  19.796  0.00  0.00    +0.000 A 
ENDROOT
BRANCH   3   7
ATOM      7  C   UNL     1       2.157   7.534  19.342  0.00  0.00    +0.000 A 
ATOM      8  C   UNL     1       1.494   8.281  20.302  0.00  0.00    +0.000 A 
ATOM      9  C   UNL     1       1.094   9.565  19.825  0.00  0.00    +0.000 A 
ATOM     10  C   UNL     1       1.453   9.762  18.513  0.00  0.00    +0.000 A 
ATOM     11  S   UNL     1       2.276   8.414  17.868  0.00  0.00    +0.000 S 
ENDBRANCH   3   7
BRANCH   5  12
ATOM     12  C   UNL     1       1.606   2.649  20.355  0.00  0.00    +0.000 C 
ATOM     13  F   UNL     1       1.784   1.564  19.549  0.00  0.00    +0.000 F 
ATOM     14  F   UNL     1       1.868   2.217  21.616  0.00  0.00    +0.000 F 
ATOM     15  F   UNL     1       0.278   2.928  20.304  0.00  0.00    +0.000 F 
ENDBRANCH   5  12
BRANCH   1  17
ATOM     16  C   UNL     1       6.429   5.084  17.869  0.00  0.00    +0.000 C 
ATOM     17  N   UNL     1       5.974   4.738  19.208  0.00  0.00    +0.000 N 
ATOM     18  H   UNL     1       6.489   5.251  19.922  0.00  0.00    +0.000 HD
ENDBRANCH   1  17
BRANCH   6  19
ATOM     19  C   UNL     1       4.507   2.453  20.041  0.00  0.00    +0.000 C 
ATOM     20  N   UNL     1       5.009   1.433  20.273  0.00  0.00    +0.000 NA
ENDBRANCH   6  19
TORSDOF 4
ENDMDL
MODEL 3
REMARK VINA RESULT:      -6.3      1.237      1.494
REMARK  Name = 
REMARK  5 active torsions:
REMARK  status: ('A' for Active; 'I' for Inactive)
REMARK    1  A    between atoms: C_1  and  N_2
REMARK    2  A    between atoms: N_2  and  C_3
REMARK    3  A    between atoms: C_5  and  C_6
REMARK    4  A    between atoms: C_12  and  C_13
REMARK    5  A    between atoms: C_17  and  C_18
REMARK                            x       y       z     vdW  Elec       q    Type
REMARK                         _______ _______ _______ _____ _____    ______ ____
ROOT
ATOM      1  C   UNL     1       4.179   5.176  19.106  0.00  0.00    +0.000 A 
ATOM      2  N   UNL     1       3.492   6.343  19.152  0.00  0.00    +0.000 NA
ATOM      3  C   UNL     1       2.333   6.408  19.843  0.00  0.00    +0.000 A 
ATOM      4  C   UNL     1       1.773   5.296  20.447  0.00  0.00    +0.000 A 
ATOM      5  C   UNL     1       2.458   4.075  20.402  0.00  0.00    +0.000 A 
ATOM      6  C   UNL     1       3.690   4.018  19.732  0.00  0.00    +0.000 A 
ENDROOT
BRANCH   3   7
ATOM      7  C   UNL     1       1.765   7.757  19.951  0.00  0.00    +0.000 A 
ATOM      8  C   UNL     1       1.104   8.339  21.021  0.00  0.00    +0.000 A 
ATOM      9  C   UNL     1       0.629   9.653  20.731  0.00  0.00    +0.000 A 
ATOM     10  C   UNL     1       0.930  10.036  19.445  0.00  0.00    +0.000 A 
ATOM     11  S   UNL     1       1.790   8.827  18.603  0.00  0.00    +0.000 S 
ENDBRANCH   3   7
BRANCH   5  12
ATOM     12  C   UNL     1       1.877   2.869  21.087  0.00  0.00    +0.000 C 
ATOM     13  F   UNL     1       0.709   3.136  21.736  0.00  0.00    +0.000 F 
ATOM     14  F   UNL     1       1.593   1.863  20.219  0.00  0.00    +0.000 F 
ATOM     15  F   UNL     1       2.709   2.353  22.028  0.00  0.00    +0.000 F 
ENDBRANCH   5  12
BRANCH   1  17
ATOM     16  C   UNL     1       5.268   5.292  16.949  0.00  0.00    +0.000 C 
ATOM     17  N   UNL     1       5.389   5.142  18.392  0.00  0.00    +0.000 N 
ATOM     18  H   UNL     1       6.063   5.800  18.781  0.00  0.00    +0.000 HD
ENDBRANCH   1  17
BRANCH   6  19
ATOM     19  C   UNL     1       4.456   2.805  19.709  0.00  0.00    +0.000 C 
ATOM     20  N   UNL     1       5.066   1.819  19.738  0.00  0.00    +0.000 NA
ENDBRANCH   6  19
TORSDOF 4
ENDMDL
MODEL 4
REMARK VINA RESULT:      -6.3      2.466      2.850
REMARK  Name = 
REMARK  5 active torsions:
REMARK  status: ('A' for Active; 'I' for Inactive)
REMARK    1  A    between atoms: C_1  and  N_2
REMARK    2  A    between atoms: N_2  and  C_3
REMARK    3  A    between atoms: C_5  and  C_6
REMARK    4  A    between atoms: C_12  and  C_13
REMARK    5  A    between atoms: C_17  and  C_18
REMARK                            x       y       z     vdW  Elec       q    Type
REMARK                         _______ _______ _______ _____ _____    ______ ____
ROOT
ATOM      1  C   UNL     1       4.650   6.510  17.053  0.00  0.00    +0.000 A 
ATOM      2  N   UNL     1       3.853   7.413  17.675  0.00  0.00    +0.000 NA
ATOM      3  C   UNL     1       2.729   6.994  18.297  0.00  0.00    +0.000 A 
ATOM      4  C   UNL     1       2.313   5.675  18.256  0.00  0.00    +0.000 A 
ATOM      5  C   UNL     1       3.113   4.726  17.609  0.00  0.00    +0.000 A 
ATOM      6  C   UNL     1       4.310   5.148  17.009  0.00  0.00    +0.000 A 
ENDROOT
BRANCH   3   7
ATOM      7  C   UNL     1       2.035   8.036  19.065  0.00  0.00    +0.000 A 
ATOM      8  C   UNL     1       1.655   8.026  20.397  0.00  0.00    +0.000 A 
ATOM      9  C   UNL     1       0.933   9.197  20.776  0.00  0.00    +0.000 A 
ATOM     10  C   UNL     1       0.773  10.065  19.722  0.00  0.00    +0.000 A 
ATOM     11  S   UNL     1       1.498   9.478  18.294  0.00  0.00    +0.000 S 
ENDBRANCH   3   7
BRANCH   5  12
ATOM     12  C   UNL     1       2.690   3.283  17.590  0.00  0.00    +0.000 C 
ATOM     13  F   UNL     1       1.501   3.068  18.220  0.00  0.00    +0.000 F 
ATOM     14  F   UNL     1       2.529   2.803  16.329  0.00  0.00    +0.000 F 
ATOM     15  F   UNL     1       3.584   2.469  18.209  0.00  0.00    +0.000 F 
ENDBRANCH   5  12
BRANCH   1  17
ATOM     16  C   UNL     1       6.923   7.289  17.324  0.00  0.00    +0.000 C 
ATOM     17  N   UNL     1       5.820   6.972  16.428  0.00  0.00    +0.000 N 
ATOM     18  H   UNL     1       6.112   6.340  15.685  0.00  0.00    +0.000 HD
ENDBRANCH   1  17
BRANCH   6  19
ATOM     19  C   UNL     1       5.191   4.203  16.385  0.00  0.00    +0.000 C 
ATOM     20  N   UNL     1       5.909   3.471  15.844  0.00  0.00    +0.000 NA
ENDBRANCH   6  19
TORSDOF 4
ENDMDL
MODEL 5
REMARK VINA RESULT:      -6.3      3.908      5.850
REMARK  Name = 
REMARK  5 active torsions:
REMARK  status: ('A' for Active; 'I' for Inactive)
REMARK    1  A    between atoms: C_1  and  N_2
REMARK    2  A    between atoms: N_2  and  C_3
REMARK    3  A    between atoms: C_5  and  C_6
REMARK    4  A    between atoms: C_12  and  C_13
REMARK    5  A    between atoms: C_17  and  C_18
REMARK                            x       y       z     vdW  Elec       q    Type
REMARK                         _______ _______ _______ _____ _____    ______ ____
ROOT
ATOM      1  C   UNL     1       2.573   6.232  19.981  0.00  0.00    +0.000 A 
ATOM      2  N   UNL     1       3.316   5.661  19.003  0.00  0.00    +0.000 NA
ATOM      3  C   UNL     1       3.541   6.336  17.855  0.00  0.00    +0.000 A 
ATOM      4  C   UNL     1       2.969   7.571  17.603  0.00  0.00    +0.000 A 
ATOM      5  C   UNL     1       2.186   8.176  18.594  0.00  0.00    +0.000 A 
ATOM      6  C   UNL     1       1.996   7.501  19.810  0.00  0.00    +0.000 A 
ENDROOT
BRANCH   3   7
ATOM      7  C   UNL     1       4.486   5.683  16.941  0.00  0.00    +0.000 A 
ATOM      8  C   UNL     1       5.221   6.240  15.906  0.00  0.00    +0.000 A 
ATOM      9  C   UNL     1       5.985   5.274  15.187  0.00  0.00    +0.000 A 
ATOM     10  C   UNL     1       5.808   4.004  15.684  0.00  0.00    +0.000 A 
ATOM     11  S   UNL     1       4.740   3.983  17.014  0.00  0.00    +0.000 S 
ENDBRANCH   3   7
BRANCH   5  12
ATOM     12  C   UNL     1       1.589   9.534  18.345  0.00  0.00    +0.000 C 
ATOM     13  F   UNL     1       2.219  10.219  17.350  0.00  0.00    +0.000 F 
ATOM     14  F   UNL     1       0.283   9.470  17.979  0.00  0.00    +0.000 F 
ATOM     15  F   UNL     1       1.651  10.338  19.438  0.00  0.00    +0.000 F 
ENDBRANCH   5  12
BRANCH   1  17
ATOM     16  C   UNL     1       1.978   4.121  21.000  0.00  0.00    +0.000 C 
ATOM     17  N   UNL     1       2.369   5.513  21.171  0.00  0.00    +0.000 N 
ATOM     18  H   UNL     1       3.168   5.602  21.795  0.00  0.00    +0.000 HD
ENDBRANCH   1  17
BRANCH   6  19
ATOM     19  C   UNL     1       1.250   8.107  20.876  0.00  0.00    +0.000 C 
ATOM     20  N   UNL     1       0.680   8.579  21.769  0.00  0.00    +0.000 NA
ENDBRANCH   6  19
TORSDOF 4
ENDMDL
MODEL 6
REMARK VINA RESULT:      -6.3      2.869      3.739
REMARK  Name = 
REMARK  5 active torsions:
REMARK  status: ('A' for Active; 'I' for Inactive)
REMARK    1  A    between atoms: C_1  and  N_2
REMARK    2  A    between atoms: N_2  and  C_3
REMARK    3  A    between atoms: C_5  and  C_6
REMARK    4  A    between atoms: C_12  and  C_13
REMARK    5  A    between atoms: C_17  and  C_18
REMARK                            x       y       z     vdW  Elec       q    Type
REMARK                         _______ _______ _______ _____ _____    ______ ____
ROOT
ATOM      1  C   UNL     1       2.185   4.217  19.618  0.00  0.00    +0.000 A 
ATOM      2  N   UNL     1       1.861   5.494  19.935  0.00  0.00    +0.000 NA
ATOM      3  C   UNL     1       2.436   6.515  19.264  0.00  0.00    +0.000 A 
ATOM      4  C   UNL     1       3.414   6.309  18.307  0.00  0.00    +0.000 A 
ATOM      5  C   UNL     1       3.776   4.999  17.972  0.00  0.00    +0.000 A 
ATOM      6  C   UNL     1       3.140   3.934  18.628  0.00  0.00    +0.000 A 
ENDROOT
BRANCH   3   7
ATOM      7  C   UNL     1       1.889   7.839  19.587  0.00  0.00    +0.000 A 
ATOM      8  C   UNL     1       1.403   8.307  20.797  0.00  0.00    +0.000 A 
ATOM      9  C   UNL     1       0.886   9.634  20.710  0.00  0.00    +0.000 A 
ATOM     10  C   UNL     1       0.983  10.141  19.436  0.00  0.00    +0.000 A 
ATOM     11  S   UNL     1       1.702   9.031  18.359  0.00  0.00    +0.000 S 
ENDBRANCH   3   7
BRANCH   5  12
ATOM     12  C   UNL     1       4.813   4.762  16.907  0.00  0.00    +0.000 C 
ATOM     13  F   UNL     1       5.226   5.910  16.301  0.00  0.00    +0.000 F 
ATOM     14  F   UNL     1       5.938   4.178  17.396  0.00  0.00    +0.000 F 
ATOM     15  F   UNL     1       4.358   3.963  15.907  0.00  0.00    +0.000 F 
ENDBRANCH   5  12
BRANCH   1  17
ATOM     16  C   UNL     1       1.952   3.040  21.718  0.00  0.00    +0.000 C 
ATOM     17  N   UNL     1       1.560   3.174  20.322  0.00  0.00    +0.000 N 
ATOM     18  H   UNL     1       0.548   3.220  20.222  0.00  0.00    +0.000 HD
ENDBRANCH   1  17
BRANCH   6  19
ATOM     19  C   UNL     1       3.436   2.574  18.277  0.00  0.00    +0.000 C 
ATOM     20  N   UNL     1       3.692   1.468  18.038  0.00  0.00    +0.000 NA
ENDBRANCH   6  19
TORSDOF 4
ENDMDL
MODEL 7
REMARK VINA RESULT:      -6.2      2.816      3.638
REMARK  Name = 
REMARK  5 active torsions:
REMARK  status: ('A' for Active; 'I' for Inactive)
REMARK    1  A    between atoms: C_1  and  N_2
REMARK    2  A    between atoms: N_2  and  C_3
REMARK    3  A    between atoms: C_5  and  C_6
REMARK    4  A    between atoms: C_12  and  C_13
REMARK    5  A    between atoms: C_17  and  C_18
REMARK                            x       y       z     vdW  Elec       q    Type
REMARK                         _______ _______ _______ _____ _____    ______ ____
ROOT
ATOM      1  C   UNL     1       2.269   4.470  19.416  0.00  0.00    +0.000 A 
ATOM      2  N   UNL     1       1.930   5.771  19.590  0.00  0.00    +0.000 NA
ATOM      3  C   UNL     1       2.502   6.719  18.818  0.00  0.00    +0.000 A 
ATOM      4  C   UNL     1       3.492   6.420  17.897  0.00  0.00    +0.000 A 
ATOM      5  C   UNL     1       3.869   5.085  17.708  0.00  0.00    +0.000 A 
ATOM      6  C   UNL     1       3.236   4.091  18.471  0.00  0.00    +0.000 A 
ENDROOT
BRANCH   3   7
ATOM      7  C   UNL     1       1.941   8.065  18.991  0.00  0.00    +0.000 A 
ATOM      8  C   UNL     1       1.882   9.106  18.078  0.00  0.00    +0.000 A 
ATOM      9  C   UNL     1       1.323  10.296  18.632  0.00  0.00    +0.000 A 
ATOM     10  C   UNL     1       0.979  10.136  19.953  0.00  0.00    +0.000 A 
ATOM     11  S   UNL     1       1.315   8.561  20.515  0.00  0.00    +0.000 S 
ENDBRANCH   3   7
BRANCH   5  12
ATOM     12  C   UNL     1       4.917   4.745  16.685  0.00  0.00    +0.000 C 
ATOM     13  F   UNL     1       6.011   4.136  17.224  0.00  0.00    +0.000 F 
ATOM     14  F   UNL     1       4.457   3.895  15.730  0.00  0.00    +0.000 F 
ATOM     15  F   UNL     1       5.390   5.842  16.040  0.00  0.00    +0.000 F 
ENDBRANCH   5  12
BRANCH   1  17
ATOM     16  C   UNL     1       2.068   3.488  21.617  0.00  0.00    +0.000 C 
ATOM     17  N   UNL     1       1.646   3.504  20.223  0.00  0.00    +0.000 N 
ATOM     18  H   UNL     1       0.632   3.556  20.141  0.00  0.00    +0.000 HD
ENDBRANCH   1  17
BRANCH   6  19
ATOM     19  C   UNL     1       3.547   2.705  18.271  0.00  0.00    +0.000 C 
ATOM     20  N   UNL     1       3.785   1.575  18.156  0.00  0.00    +0.000 NA
ENDBRANCH   6  19
TORSDOF 4
ENDMDL
MODEL 8
REMARK VINA RESULT:      -6.2      2.946      4.743
REMARK  Name = 
REMARK  5 active torsions:
REMARK  status: ('A' for Active; 'I' for Inactive)
REMARK    1  A    between atoms: C_1  and  N_2
REMARK    2  A    between atoms: N_2  and  C_3
REMARK    3  A    between atoms: C_5  and  C_6
REMARK    4  A    between atoms: C_12  and  C_13
REMARK    5  A    between atoms: C_17  and  C_18
REMARK                            x       y       z     vdW  Elec       q    Type
REMARK                         _______ _______ _______ _____ _____    ______ ____
ROOT
ATOM      1  C   UNL     1       3.379   5.774  18.228  0.00  0.00    +0.000 A 
ATOM      2  N   UNL     1       4.286   5.693  17.225  0.00  0.00    +0.000 NA
ATOM      3  C   UNL     1       4.627   4.484  16.728  0.00  0.00    +0.000 A 
ATOM      4  C   UNL     1       4.140   3.304  17.265  0.00  0.00    +0.000 A 
ATOM      5  C   UNL     1       3.211   3.362  18.311  0.00  0.00    +0.000 A 
ATOM      6  C   UNL     1       2.813   4.618  18.791  0.00  0.00    +0.000 A 
ENDROOT
BRANCH   3   7
ATOM      7  C   UNL     1       5.494   4.535  15.545  0.00  0.00    +0.000 A 
ATOM      8  C   UNL     1       5.277   4.001  14.285  0.00  0.00    +0.000 A 
ATOM      9  C   UNL     1       6.384   4.192  13.404  0.00  0.00    +0.000 A 
ATOM     10  C   UNL     1       7.419   4.859  14.016  0.00  0.00    +0.000 A 
ATOM     11  S   UNL     1       7.053   5.260  15.633  0.00  0.00    +0.000 S 
ENDBRANCH   3   7
BRANCH   5  12
ATOM     12  C   UNL     1       2.648   2.087  18.877  0.00  0.00    +0.000 C 
ATOM     13  F   UNL     1       2.673   2.051  20.238  0.00  0.00    +0.000 F 
ATOM     14  F   UNL     1       1.350   1.891  18.528  0.00  0.00    +0.000 F 
ATOM     15  F   UNL     1       3.334   0.988  18.469  0.00  0.00    +0.000 F 
ENDBRANCH   5  12
BRANCH   1  17
ATOM     16  C   UNL     1       2.463   7.956  17.731  0.00  0.00    +0.000 C 
ATOM     17  N   UNL     1       3.032   7.045  18.714  0.00  0.00    +0.000 N 
ATOM     18  H   UNL     1       2.443   6.973  19.542  0.00  0.00    +0.000 HD
ENDBRANCH   1  17
BRANCH   6  19
ATOM     19  C   UNL     1       1.821   4.728  19.822  0.00  0.00    +0.000 C 
ATOM     20  N   UNL     1       1.005   4.860  20.636  0.00  0.00    +0.000 NA
ENDBRANCH   6  19
TORSDOF 4
ENDMDL
MODEL 9
REMARK VINA RESULT:      -6.2      2.994      3.950
REMARK  Name = 
REMARK  5 active torsions:
REMARK  status: ('A' for Active; 'I' for Inactive)
REMARK    1  A    between atoms: C_1  and  N_2
REMARK    2  A    between atoms: N_2  and  C_3
REMARK    3  A    between atoms: C_5  and  C_6
REMARK    4  A    between atoms: C_12  and  C_13
REMARK    5  A    between atoms: C_17  and  C_18
REMARK                            x       y       z     vdW  Elec       q    Type
REMARK                         _______ _______ _______ _____ _____    ______ ____
ROOT
ATOM      1  C   UNL     1       2.804   5.768  20.030  0.00  0.00    +0.000 A 
ATOM      2  N   UNL     1       2.085   6.917  20.037  0.00  0.00    +0.000 NA
ATOM      3  C   UNL     1       2.207   7.787  19.011  0.00  0.00    +0.000 A 
ATOM      4  C   UNL     1       3.107   7.586  17.978  0.00  0.00    +0.000 A 
ATOM      5  C   UNL     1       3.870   6.412  17.956  0.00  0.00    +0.000 A 
ATOM      6  C   UNL     1       3.705   5.480  18.992  0.00  0.00    +0.000 A 
ENDROOT
BRANCH   3   7
ATOM      7  C   UNL     1       1.265   8.912  19.053  0.00  0.00    +0.000 A 
ATOM      8  C   UNL     1       0.800   9.696  18.010  0.00  0.00    +0.000 A 
ATOM      9  C   UNL     1      -0.057  10.749  18.449  0.00  0.00    +0.000 A 
ATOM     10  C   UNL     1      -0.218  10.748  19.814  0.00  0.00    +0.000 A 
ATOM     11  S   UNL     1       0.648   9.479  20.557  0.00  0.00    +0.000 S 
ENDBRANCH   3   7
BRANCH   5  12
ATOM     12  C   UNL     1       4.825   6.167  16.820  0.00  0.00    +0.000 C 
ATOM     13  F   UNL     1       4.615   4.974  16.196  0.00  0.00    +0.000 F 
ATOM     14  F   UNL     1       4.732   7.112  15.848  0.00  0.00    +0.000 F 
ATOM     15  F   UNL     1       6.121   6.145  17.224  0.00  0.00    +0.000 F 
ENDBRANCH   5  12
BRANCH   1  17
ATOM     16  C   UNL     1       1.533   3.944  20.982  0.00  0.00    +0.000 C 
ATOM     17  N   UNL     1       2.646   4.875  21.103  0.00  0.00    +0.000 N 
ATOM     18  H   UNL     1       3.518   4.389  21.307  0.00  0.00    +0.000 HD
ENDBRANCH   1  17
BRANCH   6  19
ATOM     19  C   UNL     1       4.423   4.238  18.981  0.00  0.00    +0.000 C 
ATOM     20  N   UNL     1       4.983   3.222  19.015  0.00  0.00    +0.000 NA
ENDBRANCH   6  19
TORSDOF 4
ENDMDL
