MODEL 1
REMARK VINA RESULT:      -8.1      0.000      0.000
REMARK  Name = 
REMARK  2 active torsions:
REMARK  status: ('A' for Active; 'I' for Inactive)
REMARK    1  A    between atoms: C_9  and  C_10
REMARK    2  A    between atoms: C_14  and  N_15
REMARK                            x       y       z     vdW  Elec       q    Type
REMARK                         _______ _______ _______ _____ _____    ______ ____
ROOT
ATOM      1  O   UNL     1      -0.102   2.463  18.894  0.00  0.00    +0.000 OA
ATOM      2  C   UNL     1       1.057   2.803  18.665  0.00  0.00    +0.000 C 
ATOM      3  C   UNL     1       1.445   4.252  18.561  0.00  0.00    +0.000 C 
ATOM      4  C   UNL     1       2.917   4.577  18.418  0.00  0.00    +0.000 A 
ATOM      5  C   UNL     1       3.814   3.507  18.194  0.00  0.00    +0.000 A 
ATOM      6  C   UNL     1       5.182   3.733  18.023  0.00  0.00    +0.000 A 
ATOM      7  C   UNL     1       5.677   5.025  18.069  0.00  0.00    +0.000 A 
ATOM      8  C   UNL     1       4.803   6.092  18.278  0.00  0.00    +0.000 A 
ATOM      9  C   UNL     1       3.409   5.916  18.468  0.00  0.00    +0.000 A 
ATOM     10  C   UNL     1       3.342   2.101  18.146  0.00  0.00    +0.000 C 
ATOM     11  O   UNL     1       4.100   1.173  17.889  0.00  0.00    +0.000 OA
ATOM     12  N   UNL     1       2.020   1.872  18.420  0.00  0.00    +0.000 N 
ATOM     13  H   UNL     1       1.721   0.907  18.420  0.00  0.00    +0.000 HD
ENDROOT
BRANCH   9  14
ATOM     14  C   UNL     1       2.571   7.132  18.739  0.00  0.00    +0.000 A 
ATOM     15  C   UNL     1       2.234   8.071  17.746  0.00  0.00    +0.000 A 
ATOM     16  C   UNL     1       1.389   9.162  17.991  0.00  0.00    +0.000 A 
ATOM     17  C   UNL     1       0.918   9.406  19.273  0.00  0.00    +0.000 A 
ATOM     18  C   UNL     1       1.297   8.542  20.303  0.00  0.00    +0.000 A 
ATOM     19  C   UNL     1       2.089   7.409  20.038  0.00  0.00    +0.000 A 
BRANCH  18  20
ATOM     20  N   UNL     1       0.878   8.837  21.679  0.00  0.00    +0.000 N 
ATOM     21  O   UNL     1       1.734   9.283  22.459  0.00  0.00    +0.000 OA
ATOM     22  O   UNL     1      -0.302   8.619  21.982  0.00  0.00    +0.000 OA
ENDBRANCH  18  20
ENDBRANCH   9  14
TORSDOF 2
ENDMDL
MODEL 2
REMARK VINA RESULT:      -8.1      2.055      3.153
REMARK  Name = 
REMARK  2 active torsions:
REMARK  status: ('A' for Active; 'I' for Inactive)
REMARK    1  A    between atoms: C_9  and  C_10
REMARK    2  A    between atoms: C_14  and  N_15
REMARK                            x       y       z     vdW  Elec       q    Type
REMARK                         _______ _______ _______ _____ _____    ______ ____
ROOT
ATOM      1  O   UNL     1       6.730   5.237  17.928  0.00  0.00    +0.000 OA
ATOM      2  C   UNL     1       5.764   4.801  18.551  0.00  0.00    +0.000 C 
ATOM      3  C   UNL     1       4.615   5.688  18.943  0.00  0.00    +0.000 C 
ATOM      4  C   UNL     1       3.409   5.034  19.583  0.00  0.00    +0.000 A 
ATOM      5  C   UNL     1       3.510   3.673  19.953  0.00  0.00    +0.000 A 
ATOM      6  C   UNL     1       2.448   3.011  20.576  0.00  0.00    +0.000 A 
ATOM      7  C   UNL     1       1.274   3.693  20.841  0.00  0.00    +0.000 A 
ATOM      8  C   UNL     1       1.163   5.039  20.492  0.00  0.00    +0.000 A 
ATOM      9  C   UNL     1       2.205   5.754  19.850  0.00  0.00    +0.000 A 
ATOM     10  C   UNL     1       4.741   2.889  19.683  0.00  0.00    +0.000 C 
ATOM     11  O   UNL     1       4.863   1.728  20.058  0.00  0.00    +0.000 OA
ATOM     12  N   UNL     1       5.739   3.508  18.979  0.00  0.00    +0.000 N 
ATOM     13  H   UNL     1       6.555   2.950  18.771  0.00  0.00    +0.000 HD
ENDROOT
BRANCH   9  14
ATOM     14  C   UNL     1       1.955   7.185  19.471  0.00  0.00    +0.000 A 
ATOM     15  C   UNL     1       2.256   7.708  18.200  0.00  0.00    +0.000 A 
ATOM     16  C   UNL     1       1.950   9.025  17.831  0.00  0.00    +0.000 A 
ATOM     17  C   UNL     1       1.406   9.901  18.760  0.00  0.00    +0.000 A 
ATOM     18  C   UNL     1       1.168   9.443  20.056  0.00  0.00    +0.000 A 
ATOM     19  C   UNL     1       1.413   8.100  20.403  0.00  0.00    +0.000 A 
BRANCH  18  20
ATOM     20  N   UNL     1       0.676  10.382  21.073  0.00  0.00    +0.000 N 
ATOM     21  O   UNL     1       1.182  10.324  22.204  0.00  0.00    +0.000 OA
ATOM     22  O   UNL     1      -0.219  11.171  20.743  0.00  0.00    +0.000 OA
ENDBRANCH  18  20
ENDBRANCH   9  14
TORSDOF 2
ENDMDL
MODEL 3
REMARK VINA RESULT:      -8.1      0.918      1.141
REMARK  Name = 
REMARK  2 active torsions:
REMARK  status: ('A' for Active; 'I' for Inactive)
REMARK    1  A    between atoms: C_9  and  C_10
REMARK    2  A    between atoms: C_14  and  N_15
REMARK                            x       y       z     vdW  Elec       q    Type
REMARK                         _______ _______ _______ _____ _____    ______ ____
ROOT
ATOM      1  O   UNL     1       0.707   2.955  20.940  0.00  0.00    +0.000 OA
ATOM      2  C   UNL     1       1.536   3.244  20.079  0.00  0.00    +0.000 C 
ATOM      3  C   UNL     1       1.651   4.641  19.536  0.00  0.00    +0.000 C 
ATOM      4  C   UNL     1       2.792   4.933  18.584  0.00  0.00    +0.000 A 
ATOM      5  C   UNL     1       3.557   3.842  18.110  0.00  0.00    +0.000 A 
ATOM      6  C   UNL     1       4.606   4.031  17.205  0.00  0.00    +0.000 A 
ATOM      7  C   UNL     1       4.907   5.305  16.758  0.00  0.00    +0.000 A 
ATOM      8  C   UNL     1       4.154   6.391  17.207  0.00  0.00    +0.000 A 
ATOM      9  C   UNL     1       3.087   6.255  18.132  0.00  0.00    +0.000 A 
ATOM     10  C   UNL     1       3.287   2.455  18.564  0.00  0.00    +0.000 C 
ATOM     11  O   UNL     1       3.901   1.496  18.111  0.00  0.00    +0.000 OA
ATOM     12  N   UNL     1       2.330   2.285  19.529  0.00  0.00    +0.000 N 
ATOM     13  H   UNL     1       2.184   1.340  19.854  0.00  0.00    +0.000 HD
ENDROOT
BRANCH   9  14
ATOM     14  C   UNL     1       2.381   7.499  18.587  0.00  0.00    +0.000 A 
ATOM     15  C   UNL     1       2.125   8.593  17.740  0.00  0.00    +0.000 A 
ATOM     16  C   UNL     1       1.399   9.718  18.153  0.00  0.00    +0.000 A 
ATOM     17  C   UNL     1       0.974   9.829  19.469  0.00  0.00    +0.000 A 
ATOM     18  C   UNL     1       1.279   8.800  20.362  0.00  0.00    +0.000 A 
ATOM     19  C   UNL     1       1.948   7.641  19.926  0.00  0.00    +0.000 A 
BRANCH  18  20
ATOM     20  N   UNL     1       0.912   8.944  21.777  0.00  0.00    +0.000 N 
ATOM     21  O   UNL     1      -0.257   8.683  22.099  0.00  0.00    +0.000 OA
ATOM     22  O   UNL     1       1.789   9.322  22.564  0.00  0.00    +0.000 OA
ENDBRANCH  18  20
ENDBRANCH   9  14
TORSDOF 2
ENDMDL
MODEL 4
REMARK VINA RESULT:      -8.1      2.495      3.572
REMARK  Name = 
REMARK  2 active torsions:
REMARK  status: ('A' for Active; 'I' for Inactive)
REMARK    1  A    between atoms: C_9  and  C_10
REMARK    2  A    between atoms: C_14  and  N_15
REMARK                            x       y       z     vdW  Elec       q    Type
REMARK                         _______ _______ _______ _____ _____    ______ ____
ROOT
ATOM      1  O   UNL     1       7.353   7.894  16.971  0.00  0.00    +0.000 OA
ATOM      2  C   UNL     1       6.518   6.994  17.043  0.00  0.00    +0.000 C 
ATOM      3  C   UNL     1       5.181   7.213  17.694  0.00  0.00    +0.000 C 
ATOM      4  C   UNL     1       4.167   6.092  17.611  0.00  0.00    +0.000 A 
ATOM      5  C   UNL     1       4.597   4.844  17.105  0.00  0.00    +0.000 A 
ATOM      6  C   UNL     1       3.726   3.754  17.027  0.00  0.00    +0.000 A 
ATOM      7  C   UNL     1       2.416   3.889  17.452  0.00  0.00    +0.000 A 
ATOM      8  C   UNL     1       1.978   5.112  17.964  0.00  0.00    +0.000 A 
ATOM      9  C   UNL     1       2.819   6.250  18.055  0.00  0.00    +0.000 A 
ATOM     10  C   UNL     1       5.987   4.643  16.625  0.00  0.00    +0.000 C 
ATOM     11  O   UNL     1       6.388   3.549  16.245  0.00  0.00    +0.000 OA
ATOM     12  N   UNL     1       6.808   5.739  16.603  0.00  0.00    +0.000 N 
ATOM     13  H   UNL     1       7.740   5.595  16.239  0.00  0.00    +0.000 HD
ENDROOT
BRANCH   9  14
ATOM     14  C   UNL     1       2.227   7.529  18.572  0.00  0.00    +0.000 A 
ATOM     15  C   UNL     1       2.047   8.672  17.772  0.00  0.00    +0.000 A 
ATOM     16  C   UNL     1       1.425   9.836  18.242  0.00  0.00    +0.000 A 
ATOM     17  C   UNL     1       1.034   9.931  19.570  0.00  0.00    +0.000 A 
ATOM     18  C   UNL     1       1.269   8.846  20.418  0.00  0.00    +0.000 A 
ATOM     19  C   UNL     1       1.832   7.654  19.924  0.00  0.00    +0.000 A 
BRANCH  18  20
ATOM     20  N   UNL     1       0.942   8.964  21.845  0.00  0.00    +0.000 N 
ATOM     21  O   UNL     1       1.835   9.358  22.610  0.00  0.00    +0.000 OA
ATOM     22  O   UNL     1      -0.203   8.658  22.201  0.00  0.00    +0.000 OA
ENDBRANCH  18  20
ENDBRANCH   9  14
TORSDOF 2
ENDMDL
MODEL 5
REMARK VINA RESULT:      -7.8      3.145      4.267
REMARK  Name = 
REMARK  2 active torsions:
REMARK  status: ('A' for Active; 'I' for Inactive)
REMARK    1  A    between atoms: C_9  and  C_10
REMARK    2  A    between atoms: C_14  and  N_15
REMARK                            x       y       z     vdW  Elec       q    Type
REMARK                         _______ _______ _______ _____ _____    ______ ____
ROOT
ATOM      1  O   UNL     1       7.460   8.136  17.151  0.00  0.00    +0.000 OA
ATOM      2  C   UNL     1       6.749   7.136  17.072  0.00  0.00    +0.000 C 
ATOM      3  C   UNL     1       5.442   7.040  17.808  0.00  0.00    +0.000 C 
ATOM      4  C   UNL     1       4.570   5.832  17.538  0.00  0.00    +0.000 A 
ATOM      5  C   UNL     1       5.117   4.777  16.771  0.00  0.00    +0.000 A 
ATOM      6  C   UNL     1       4.383   3.618  16.507  0.00  0.00    +0.000 A 
ATOM      7  C   UNL     1       3.098   3.489  17.003  0.00  0.00    +0.000 A 
ATOM      8  C   UNL     1       2.548   4.516  17.772  0.00  0.00    +0.000 A 
ATOM      9  C   UNL     1       3.247   5.716  18.061  0.00  0.00    +0.000 A 
ATOM     10  C   UNL     1       6.485   4.864  16.203  0.00  0.00    +0.000 C 
ATOM     11  O   UNL     1       6.992   3.931  15.591  0.00  0.00    +0.000 OA
ATOM     12  N   UNL     1       7.162   6.043  16.373  0.00  0.00    +0.000 N 
ATOM     13  H   UNL     1       8.077   6.101  15.949  0.00  0.00    +0.000 HD
ENDROOT
BRANCH   9  14
ATOM     14  C   UNL     1       2.537   6.776  18.852  0.00  0.00    +0.000 A 
ATOM     15  C   UNL     1       2.090   6.581  20.172  0.00  0.00    +0.000 A 
ATOM     16  C   UNL     1       1.497   7.600  20.930  0.00  0.00    +0.000 A 
ATOM     17  C   UNL     1       1.246   8.839  20.358  0.00  0.00    +0.000 A 
ATOM     18  C   UNL     1       1.602   9.047  19.024  0.00  0.00    +0.000 A 
ATOM     19  C   UNL     1       2.260   8.042  18.288  0.00  0.00    +0.000 A 
BRANCH  18  20
ATOM     20  N   UNL     1       1.264  10.322  18.380  0.00  0.00    +0.000 N 
ATOM     21  O   UNL     1       0.067  10.647  18.336  0.00  0.00    +0.000 OA
ATOM     22  O   UNL     1       2.191  10.996  17.913  0.00  0.00    +0.000 OA
ENDBRANCH  18  20
ENDBRANCH   9  14
TORSDOF 2
ENDMDL
MODEL 6
REMARK VINA RESULT:      -7.6      2.200      6.685
REMARK  Name = 
REMARK  2 active torsions:
REMARK  status: ('A' for Active; 'I' for Inactive)
REMARK    1  A    between atoms: C_9  and  C_10
REMARK    2  A    between atoms: C_14  and  N_15
REMARK                            x       y       z     vdW  Elec       q    Type
REMARK                         _______ _______ _______ _____ _____    ______ ____
ROOT
ATOM      1  O   UNL     1       0.017   9.261  23.526  0.00  0.00    +0.000 OA
ATOM      2  C   UNL     1       0.430   9.399  22.376  0.00  0.00    +0.000 C 
ATOM      3  C   UNL     1       1.133   8.283  21.654  0.00  0.00    +0.000 C 
ATOM      4  C   UNL     1       1.480   8.498  20.196  0.00  0.00    +0.000 A 
ATOM      5  C   UNL     1       1.303   9.793  19.656  0.00  0.00    +0.000 A 
ATOM      6  C   UNL     1       1.630  10.073  18.326  0.00  0.00    +0.000 A 
ATOM      7  C   UNL     1       2.138   9.073  17.517  0.00  0.00    +0.000 A 
ATOM      8  C   UNL     1       2.329   7.793  18.038  0.00  0.00    +0.000 A 
ATOM      9  C   UNL     1       2.005   7.453  19.377  0.00  0.00    +0.000 A 
ATOM     10  C   UNL     1       0.751  10.902  20.472  0.00  0.00    +0.000 C 
ATOM     11  O   UNL     1       0.654  12.042  20.034  0.00  0.00    +0.000 OA
ATOM     12  N   UNL     1       0.332  10.599  21.741  0.00  0.00    +0.000 N 
ATOM     13  H   UNL     1      -0.075  11.356  22.272  0.00  0.00    +0.000 HD
ENDROOT
BRANCH   9  14
ATOM     14  C   UNL     1       2.201   6.031  19.815  0.00  0.00    +0.000 A 
ATOM     15  C   UNL     1       1.242   5.314  20.553  0.00  0.00    +0.000 A 
ATOM     16  C   UNL     1       1.401   3.964  20.893  0.00  0.00    +0.000 A 
ATOM     17  C   UNL     1       2.578   3.300  20.579  0.00  0.00    +0.000 A 
ATOM     18  C   UNL     1       3.588   4.000  19.917  0.00  0.00    +0.000 A 
ATOM     19  C   UNL     1       3.396   5.336  19.517  0.00  0.00    +0.000 A 
BRANCH  18  20
ATOM     20  N   UNL     1       4.872   3.336  19.656  0.00  0.00    +0.000 N 
ATOM     21  O   UNL     1       5.739   3.978  19.043  0.00  0.00    +0.000 OA
ATOM     22  O   UNL     1       5.012   2.174  20.058  0.00  0.00    +0.000 OA
ENDBRANCH  18  20
ENDBRANCH   9  14
TORSDOF 2
ENDMDL
MODEL 7
REMARK VINA RESULT:      -7.6      0.943      1.071
REMARK  Name = 
REMARK  2 active torsions:
REMARK  status: ('A' for Active; 'I' for Inactive)
REMARK    1  A    between atoms: C_9  and  C_10
REMARK    2  A    between atoms: C_14  and  N_15
REMARK                            x       y       z     vdW  Elec       q    Type
REMARK                         _______ _______ _______ _____ _____    ______ ____
ROOT
ATOM      1  O   UNL     1       0.495   2.885  19.001  0.00  0.00    +0.000 OA
ATOM      2  C   UNL     1       1.493   3.435  18.537  0.00  0.00    +0.000 C 
ATOM      3  C   UNL     1       1.592   4.932  18.441  0.00  0.00    +0.000 C 
ATOM      4  C   UNL     1       2.912   5.521  17.988  0.00  0.00    +0.000 A 
ATOM      5  C   UNL     1       3.900   4.636  17.497  0.00  0.00    +0.000 A 
ATOM      6  C   UNL     1       5.130   5.110  17.034  0.00  0.00    +0.000 A 
ATOM      7  C   UNL     1       5.394   6.468  17.049  0.00  0.00    +0.000 A 
ATOM      8  C   UNL     1       4.425   7.355  17.520  0.00  0.00    +0.000 A 
ATOM      9  C   UNL     1       3.166   6.925  18.010  0.00  0.00    +0.000 A 
ATOM     10  C   UNL     1       3.677   3.169  17.467  0.00  0.00    +0.000 C 
ATOM     11  O   UNL     1       4.500   2.400  16.985  0.00  0.00    +0.000 OA
ATOM     12  N   UNL     1       2.515   2.699  18.019  0.00  0.00    +0.000 N 
ATOM     13  H   UNL     1       2.394   1.696  18.025  0.00  0.00    +0.000 HD
ENDROOT
BRANCH   9  14
ATOM     14  C   UNL     1       2.221   7.964  18.542  0.00  0.00    +0.000 A 
ATOM     15  C   UNL     1       1.618   8.943  17.731  0.00  0.00    +0.000 A 
ATOM     16  C   UNL     1       0.680   9.860  18.223  0.00  0.00    +0.000 A 
ATOM     17  C   UNL     1       0.373   9.888  19.575  0.00  0.00    +0.000 A 
ATOM     18  C   UNL     1       1.011   8.985  20.427  0.00  0.00    +0.000 A 
ATOM     19  C   UNL     1       1.902   8.020  19.918  0.00  0.00    +0.000 A 
BRANCH  18  20
ATOM     20  N   UNL     1       0.763   9.060  21.873  0.00  0.00    +0.000 N 
ATOM     21  O   UNL     1       1.710   9.391  22.603  0.00  0.00    +0.000 OA
ATOM     22  O   UNL     1      -0.373   8.784  22.278  0.00  0.00    +0.000 OA
ENDBRANCH  18  20
ENDBRANCH   9  14
TORSDOF 2
ENDMDL
MODEL 8
REMARK VINA RESULT:      -7.5      1.677      2.729
REMARK  Name = 
REMARK  2 active torsions:
REMARK  status: ('A' for Active; 'I' for Inactive)
REMARK    1  A    between atoms: C_9  and  C_10
REMARK    2  A    between atoms: C_14  and  N_15
REMARK                            x       y       z     vdW  Elec       q    Type
REMARK                         _______ _______ _______ _____ _____    ______ ____
ROOT
ATOM      1  O   UNL     1       5.100   4.407  15.798  0.00  0.00    +0.000 OA
ATOM      2  C   UNL     1       4.481   4.077  16.807  0.00  0.00    +0.000 C 
ATOM      3  C   UNL     1       3.807   5.095  17.684  0.00  0.00    +0.000 C 
ATOM      4  C   UNL     1       2.951   4.584  18.824  0.00  0.00    +0.000 A 
ATOM      5  C   UNL     1       2.993   3.202  19.118  0.00  0.00    +0.000 A 
ATOM      6  C   UNL     1       2.254   2.662  20.174  0.00  0.00    +0.000 A 
ATOM      7  C   UNL     1       1.466   3.490  20.955  0.00  0.00    +0.000 A 
ATOM      8  C   UNL     1       1.422   4.858  20.685  0.00  0.00    +0.000 A 
ATOM      9  C   UNL     1       2.145   5.453  19.619  0.00  0.00    +0.000 A 
ATOM     10  C   UNL     1       3.811   2.265  18.308  0.00  0.00    +0.000 C 
ATOM     11  O   UNL     1       3.906   1.077  18.593  0.00  0.00    +0.000 OA
ATOM     12  N   UNL     1       4.450   2.777  17.210  0.00  0.00    +0.000 N 
ATOM     13  H   UNL     1       4.973   2.120  16.648  0.00  0.00    +0.000 HD
ENDROOT
BRANCH   9  14
ATOM     14  C   UNL     1       1.981   6.928  19.388  0.00  0.00    +0.000 A 
ATOM     15  C   UNL     1       2.288   7.553  18.166  0.00  0.00    +0.000 A 
ATOM     16  C   UNL     1       2.061   8.917  17.935  0.00  0.00    +0.000 A 
ATOM     17  C   UNL     1       1.595   9.730  18.958  0.00  0.00    +0.000 A 
ATOM     18  C   UNL     1       1.354   9.162  20.210  0.00  0.00    +0.000 A 
ATOM     19  C   UNL     1       1.519   7.778  20.418  0.00  0.00    +0.000 A 
BRANCH  18  20
ATOM     20  N   UNL     1       0.946  10.025  21.326  0.00  0.00    +0.000 N 
ATOM     21  O   UNL     1       0.146  10.942  21.082  0.00  0.00    +0.000 OA
ATOM     22  O   UNL     1       1.426   9.792  22.442  0.00  0.00    +0.000 OA
ENDBRANCH  18  20
ENDBRANCH   9  14
TORSDOF 2
ENDMDL
MODEL 9
REMARK VINA RESULT:      -7.5      3.212      6.473
REMARK  Name = 
REMARK  2 active torsions:
REMARK  status: ('A' for Active; 'I' for Inactive)
REMARK    1  A    between atoms: C_9  and  C_10
REMARK    2  A    between atoms: C_14  and  N_15
REMARK                            x       y       z     vdW  Elec       q    Type
REMARK                         _______ _______ _______ _____ _____    ______ ____
ROOT
ATOM      1  O   UNL     1       3.351   1.002  18.696  0.00  0.00    +0.000 OA
ATOM      2  C   UNL     1       3.171   2.218  18.729  0.00  0.00    +0.000 C 
ATOM      3  C   UNL     1       4.037   3.162  17.941  0.00  0.00    +0.000 C 
ATOM      4  C   UNL     1       3.652   4.626  17.933  0.00  0.00    +0.000 A 
ATOM      5  C   UNL     1       2.631   5.049  18.815  0.00  0.00    +0.000 A 
ATOM      6  C   UNL     1       2.244   6.391  18.885  0.00  0.00    +0.000 A 
ATOM      7  C   UNL     1       2.867   7.329  18.081  0.00  0.00    +0.000 A 
ATOM      8  C   UNL     1       3.884   6.929  17.214  0.00  0.00    +0.000 A 
ATOM      9  C   UNL     1       4.308   5.581  17.098  0.00  0.00    +0.000 A 
ATOM     10  C   UNL     1       1.919   4.086  19.692  0.00  0.00    +0.000 C 
ATOM     11  O   UNL     1       1.079   4.451  20.505  0.00  0.00    +0.000 OA
ATOM     12  N   UNL     1       2.226   2.759  19.546  0.00  0.00    +0.000 N 
ATOM     13  H   UNL     1       1.707   2.112  20.123  0.00  0.00    +0.000 HD
ENDROOT
BRANCH   9  14
ATOM     14  C   UNL     1       5.374   5.256  16.092  0.00  0.00    +0.000 A 
ATOM     15  C   UNL     1       6.720   5.636  16.249  0.00  0.00    +0.000 A 
ATOM     16  C   UNL     1       7.723   5.263  15.343  0.00  0.00    +0.000 A 
ATOM     17  C   UNL     1       7.396   4.566  14.189  0.00  0.00    +0.000 A 
ATOM     18  C   UNL     1       6.058   4.242  13.956  0.00  0.00    +0.000 A 
ATOM     19  C   UNL     1       5.064   4.557  14.903  0.00  0.00    +0.000 A 
BRANCH  18  20
ATOM     20  N   UNL     1       5.686   3.582  12.698  0.00  0.00    +0.000 N 
ATOM     21  O   UNL     1       4.484   3.561  12.392  0.00  0.00    +0.000 OA
ATOM     22  O   UNL     1       6.592   3.081  12.020  0.00  0.00    +0.000 OA
ENDBRANCH  18  20
ENDBRANCH   9  14
TORSDOF 2
ENDMDL
