MODEL 1
REMARK VINA RESULT:      -7.3      0.000      0.000
REMARK  Name = 
REMARK  2 active torsions:
REMARK  status: ('A' for Active; 'I' for Inactive)
REMARK    1  A    between atoms: C_1  and  N_2
REMARK    2  A    between atoms: C_11  and  O_12
REMARK                            x       y       z     vdW  Elec       q    Type
REMARK                         _______ _______ _______ _____ _____    ______ ____
ROOT
ATOM      1  C   UNL     1       0.684   2.293  18.711  0.00  0.00    +0.000 C 
ATOM      2  N   UNL     1       1.423   3.498  19.162  0.00  0.00    +0.000 N 
ATOM      3  C   UNL     1       0.995   4.128  20.272  0.00  0.00    +0.000 A 
ATOM      4  C   UNL     1       1.659   5.239  20.777  0.00  0.00    +0.000 A 
ATOM      5  C   UNL     1       2.813   5.687  20.132  0.00  0.00    +0.000 A 
ATOM      6  C   UNL     1       3.295   5.017  19.001  0.00  0.00    +0.000 A 
ATOM      7  C   UNL     1       2.548   3.916  18.497  0.00  0.00    +0.000 A 
ATOM      8  C   UNL     1       3.029   3.114  17.318  0.00  0.00    +0.000 C 
ATOM      9  C   UNL     1       4.270   3.663  16.623  0.00  0.00    +0.000 C 
ATOM     10  C   UNL     1       5.255   4.161  17.678  0.00  0.00    +0.000 C 
ATOM     11  C   UNL     1       6.661   4.415  17.145  0.00  0.00    +0.000 C 
ATOM     12  C   UNL     1       6.896   5.724  16.402  0.00  0.00    +0.000 C 
ATOM     13  C   UNL     1       6.117   6.932  16.921  0.00  0.00    +0.000 C 
ATOM     14  C   UNL     1       4.753   6.657  17.580  0.00  0.00    +0.000 C 
ATOM     15  C   UNL     1       4.687   5.376  18.436  0.00  0.00    +0.000 C 
ENDROOT
BRANCH  11  16
ATOM     16  O   UNL     1       7.501   4.378  18.301  0.00  0.00    +0.000 OA
ATOM     17  H   UNL     1       7.017   3.933  19.017  0.00  0.00    +0.000 HD
ENDBRANCH  11  16
TORSDOF 1
ENDMDL
MODEL 2
REMARK VINA RESULT:      -7.1      2.535      4.243
REMARK  Name = 
REMARK  2 active torsions:
REMARK  status: ('A' for Active; 'I' for Inactive)
REMARK    1  A    between atoms: C_1  and  N_2
REMARK    2  A    between atoms: C_11  and  O_12
REMARK                            x       y       z     vdW  Elec       q    Type
REMARK                         _______ _______ _______ _____ _____    ______ ____
ROOT
ATOM      1  C   UNL     1       1.194   8.402  21.367  0.00  0.00    +0.000 C 
ATOM      2  N   UNL     1       1.696   7.932  20.052  0.00  0.00    +0.000 N 
ATOM      3  C   UNL     1       1.926   8.849  19.094  0.00  0.00    +0.000 A 
ATOM      4  C   UNL     1       2.434   8.489  17.852  0.00  0.00    +0.000 A 
ATOM      5  C   UNL     1       2.738   7.147  17.610  0.00  0.00    +0.000 A 
ATOM      6  C   UNL     1       2.545   6.188  18.611  0.00  0.00    +0.000 A 
ATOM      7  C   UNL     1       1.975   6.605  19.847  0.00  0.00    +0.000 A 
ATOM      8  C   UNL     1       1.784   5.642  20.987  0.00  0.00    +0.000 C 
ATOM      9  C   UNL     1       2.092   4.184  20.665  0.00  0.00    +0.000 C 
ATOM     10  C   UNL     1       3.346   4.119  19.795  0.00  0.00    +0.000 C 
ATOM     11  C   UNL     1       3.956   2.725  19.687  0.00  0.00    +0.000 C 
ATOM     12  C   UNL     1       3.305   1.757  18.707  0.00  0.00    +0.000 C 
ATOM     13  C   UNL     1       2.751   2.378  17.425  0.00  0.00    +0.000 C 
ATOM     14  C   UNL     1       2.258   3.834  17.508  0.00  0.00    +0.000 C 
ATOM     15  C   UNL     1       3.095   4.758  18.415  0.00  0.00    +0.000 C 
ENDROOT
BRANCH  11  16
ATOM     16  O   UNL     1       5.310   2.951  19.288  0.00  0.00    +0.000 OA
ATOM     17  H   UNL     1       5.889   2.409  19.850  0.00  0.00    +0.000 HD
ENDBRANCH  11  16
TORSDOF 1
ENDMDL
MODEL 3
REMARK VINA RESULT:      -6.9      2.533      5.089
REMARK  Name = 
REMARK  2 active torsions:
REMARK  status: ('A' for Active; 'I' for Inactive)
REMARK    1  A    between atoms: C_1  and  N_2
REMARK    2  A    between atoms: C_11  and  O_12
REMARK                            x       y       z     vdW  Elec       q    Type
REMARK                         _______ _______ _______ _____ _____    ______ ____
ROOT
ATOM      1  C   UNL     1       5.465   4.403  14.937  0.00  0.00    +0.000 C 
ATOM      2  N   UNL     1       5.702   4.452  16.401  0.00  0.00    +0.000 N 
ATOM      3  C   UNL     1       6.889   4.910  16.839  0.00  0.00    +0.000 A 
ATOM      4  C   UNL     1       7.169   5.022  18.195  0.00  0.00    +0.000 A 
ATOM      5  C   UNL     1       6.179   4.678  19.118  0.00  0.00    +0.000 A 
ATOM      6  C   UNL     1       4.925   4.240  18.679  0.00  0.00    +0.000 A 
ATOM      7  C   UNL     1       4.710   4.096  17.280  0.00  0.00    +0.000 A 
ATOM      8  C   UNL     1       3.373   3.680  16.729  0.00  0.00    +0.000 C 
ATOM      9  C   UNL     1       2.338   3.277  17.773  0.00  0.00    +0.000 C 
ATOM     10  C   UNL     1       2.426   4.235  18.960  0.00  0.00    +0.000 C 
ATOM     11  C   UNL     1       1.234   4.159  19.909  0.00  0.00    +0.000 C 
ATOM     12  C   UNL     1       1.221   3.016  20.916  0.00  0.00    +0.000 C 
ATOM     13  C   UNL     1       2.583   2.602  21.472  0.00  0.00    +0.000 C 
ATOM     14  C   UNL     1       3.804   2.805  20.556  0.00  0.00    +0.000 C 
ATOM     15  C   UNL     1       3.771   4.083  19.695  0.00  0.00    +0.000 C 
ENDROOT
BRANCH  11  16
ATOM     16  O   UNL     1       1.252   5.402  20.614  0.00  0.00    +0.000 OA
ATOM     17  H   UNL     1       0.338   5.722  20.695  0.00  0.00    +0.000 HD
ENDBRANCH  11  16
TORSDOF 1
ENDMDL
MODEL 4
REMARK VINA RESULT:      -6.8      2.597      4.958
REMARK  Name = 
REMARK  2 active torsions:
REMARK  status: ('A' for Active; 'I' for Inactive)
REMARK    1  A    between atoms: C_1  and  N_2
REMARK    2  A    between atoms: C_11  and  O_12
REMARK                            x       y       z     vdW  Elec       q    Type
REMARK                         _______ _______ _______ _____ _____    ______ ____
ROOT
ATOM      1  C   UNL     1       5.922   3.987  15.288  0.00  0.00    +0.000 C 
ATOM      2  N   UNL     1       5.136   4.830  16.222  0.00  0.00    +0.000 N 
ATOM      3  C   UNL     1       5.108   6.159  16.011  0.00  0.00    +0.000 A 
ATOM      4  C   UNL     1       4.362   7.007  16.820  0.00  0.00    +0.000 A 
ATOM      5  C   UNL     1       3.603   6.456  17.855  0.00  0.00    +0.000 A 
ATOM      6  C   UNL     1       3.588   5.072  18.062  0.00  0.00    +0.000 A 
ATOM      7  C   UNL     1       4.410   4.256  17.235  0.00  0.00    +0.000 A 
ATOM      8  C   UNL     1       4.409   2.757  17.363  0.00  0.00    +0.000 C 
ATOM      9  C   UNL     1       3.598   2.205  18.530  0.00  0.00    +0.000 C 
ATOM     10  C   UNL     1       2.298   2.997  18.653  0.00  0.00    +0.000 C 
ATOM     11  C   UNL     1       1.252   2.338  19.548  0.00  0.00    +0.000 C 
ATOM     12  C   UNL     1       1.421   2.507  21.052  0.00  0.00    +0.000 C 
ATOM     13  C   UNL     1       1.988   3.850  21.512  0.00  0.00    +0.000 C 
ATOM     14  C   UNL     1       2.942   4.576  20.546  0.00  0.00    +0.000 C 
ATOM     15  C   UNL     1       2.575   4.458  19.054  0.00  0.00    +0.000 C 
ENDROOT
BRANCH  11  16
ATOM     16  O   UNL     1       0.011   2.926  19.149  0.00  0.00    +0.000 OA
ATOM     17  H   UNL     1       0.167   3.459  18.352  0.00  0.00    +0.000 HD
ENDBRANCH  11  16
TORSDOF 1
ENDMDL
MODEL 5
REMARK VINA RESULT:      -6.7      2.312      5.346
REMARK  Name = 
REMARK  2 active torsions:
REMARK  status: ('A' for Active; 'I' for Inactive)
REMARK    1  A    between atoms: C_1  and  N_2
REMARK    2  A    between atoms: C_11  and  O_12
REMARK                            x       y       z     vdW  Elec       q    Type
REMARK                         _______ _______ _______ _____ _____    ______ ____
ROOT
ATOM      1  C   UNL     1       7.354   6.930  17.317  0.00  0.00    +0.000 C 
ATOM      2  N   UNL     1       6.523   5.798  16.839  0.00  0.00    +0.000 N 
ATOM      3  C   UNL     1       6.924   5.133  15.740  0.00  0.00    +0.000 A 
ATOM      4  C   UNL     1       6.219   4.038  15.256  0.00  0.00    +0.000 A 
ATOM      5  C   UNL     1       5.086   3.606  15.949  0.00  0.00    +0.000 A 
ATOM      6  C   UNL     1       4.680   4.261  17.117  0.00  0.00    +0.000 A 
ATOM      7  C   UNL     1       5.410   5.407  17.539  0.00  0.00    +0.000 A 
ATOM      8  C   UNL     1       5.065   6.133  18.811  0.00  0.00    +0.000 C 
ATOM      9  C   UNL     1       3.799   5.651  19.511  0.00  0.00    +0.000 C 
ATOM     10  C   UNL     1       3.742   4.126  19.446  0.00  0.00    +0.000 C 
ATOM     11  C   UNL     1       2.722   3.501  20.392  0.00  0.00    +0.000 C 
ATOM     12  C   UNL     1       1.265   3.509  19.945  0.00  0.00    +0.000 C 
ATOM     13  C   UNL     1       1.028   3.331  18.446  0.00  0.00    +0.000 C 
ATOM     14  C   UNL     1       2.126   3.845  17.497  0.00  0.00    +0.000 C 
ATOM     15  C   UNL     1       3.570   3.639  17.995  0.00  0.00    +0.000 C 
ENDROOT
BRANCH  11  16
ATOM     16  O   UNL     1       3.153   2.148  20.550  0.00  0.00    +0.000 OA
ATOM     17  H   UNL     1       3.554   1.855  19.715  0.00  0.00    +0.000 HD
ENDBRANCH  11  16
TORSDOF 1
ENDMDL
MODEL 6
REMARK VINA RESULT:      -6.7      1.594      2.825
REMARK  Name = 
REMARK  2 active torsions:
REMARK  status: ('A' for Active; 'I' for Inactive)
REMARK    1  A    between atoms: C_1  and  N_2
REMARK    2  A    between atoms: C_11  and  O_12
REMARK                            x       y       z     vdW  Elec       q    Type
REMARK                         _______ _______ _______ _____ _____    ______ ____
ROOT
ATOM      1  C   UNL     1       2.239   4.458  21.384  0.00  0.00    +0.000 C 
ATOM      2  N   UNL     1       2.288   3.942  19.994  0.00  0.00    +0.000 N 
ATOM      3  C   UNL     1       1.265   3.183  19.560  0.00  0.00    +0.000 A 
ATOM      4  C   UNL     1       1.222   2.698  18.259  0.00  0.00    +0.000 A 
ATOM      5  C   UNL     1       2.252   3.035  17.379  0.00  0.00    +0.000 A 
ATOM      6  C   UNL     1       3.302   3.858  17.802  0.00  0.00    +0.000 A 
ATOM      7  C   UNL     1       3.322   4.286  19.159  0.00  0.00    +0.000 A 
ATOM      8  C   UNL     1       4.388   5.213  19.675  0.00  0.00    +0.000 C 
ATOM      9  C   UNL     1       5.512   5.522  18.691  0.00  0.00    +0.000 C 
ATOM     10  C   UNL     1       4.916   5.720  17.299  0.00  0.00    +0.000 C 
ATOM     11  C   UNL     1       5.872   6.364  16.300  0.00  0.00    +0.000 C 
ATOM     12  C   UNL     1       6.914   5.459  15.654  0.00  0.00    +0.000 C 
ATOM     13  C   UNL     1       6.466   4.027  15.368  0.00  0.00    +0.000 C 
ATOM     14  C   UNL     1       5.399   3.425  16.302  0.00  0.00    +0.000 C 
ATOM     15  C   UNL     1       4.307   4.409  16.766  0.00  0.00    +0.000 C 
ENDROOT
BRANCH  11  16
ATOM     16  O   UNL     1       5.025   6.901  15.281  0.00  0.00    +0.000 OA
ATOM     17  H   UNL     1       4.951   7.860  15.419  0.00  0.00    +0.000 HD
ENDBRANCH  11  16
TORSDOF 1
ENDMDL
MODEL 7
REMARK VINA RESULT:      -6.7      2.448      5.073
REMARK  Name = 
REMARK  2 active torsions:
REMARK  status: ('A' for Active; 'I' for Inactive)
REMARK    1  A    between atoms: C_1  and  N_2
REMARK    2  A    between atoms: C_11  and  O_12
REMARK                            x       y       z     vdW  Elec       q    Type
REMARK                         _______ _______ _______ _____ _____    ______ ____
ROOT
ATOM      1  C   UNL     1       7.658   4.781  17.831  0.00  0.00    +0.000 C 
ATOM      2  N   UNL     1       6.294   5.357  17.733  0.00  0.00    +0.000 N 
ATOM      3  C   UNL     1       6.113   6.434  16.946  0.00  0.00    +0.000 A 
ATOM      4  C   UNL     1       4.857   7.003  16.774  0.00  0.00    +0.000 A 
ATOM      5  C   UNL     1       3.759   6.422  17.411  0.00  0.00    +0.000 A 
ATOM      6  C   UNL     1       3.924   5.277  18.199  0.00  0.00    +0.000 A 
ATOM      7  C   UNL     1       5.240   4.765  18.381  0.00  0.00    +0.000 A 
ATOM      8  C   UNL     1       5.491   3.510  19.172  0.00  0.00    +0.000 C 
ATOM      9  C   UNL     1       4.270   2.933  19.880  0.00  0.00    +0.000 C 
ATOM     10  C   UNL     1       3.059   3.040  18.956  0.00  0.00    +0.000 C 
ATOM     11  C   UNL     1       1.864   2.202  19.398  0.00  0.00    +0.000 C 
ATOM     12  C   UNL     1       0.988   2.772  20.506  0.00  0.00    +0.000 C 
ATOM     13  C   UNL     1       0.811   4.290  20.500  0.00  0.00    +0.000 C 
ATOM     14  C   UNL     1       1.969   5.128  19.929  0.00  0.00    +0.000 C 
ATOM     15  C   UNL     1       2.681   4.513  18.708  0.00  0.00    +0.000 C 
ENDROOT
BRANCH  11  16
ATOM     16  O   UNL     1       1.076   2.041  18.216  0.00  0.00    +0.000 OA
ATOM     17  H   UNL     1       0.905   2.921  17.841  0.00  0.00    +0.000 HD
ENDBRANCH  11  16
TORSDOF 1
ENDMDL
MODEL 8
REMARK VINA RESULT:      -6.7      2.471      5.366
REMARK  Name = 
REMARK  2 active torsions:
REMARK  status: ('A' for Active; 'I' for Inactive)
REMARK    1  A    between atoms: C_1  and  N_2
REMARK    2  A    between atoms: C_11  and  O_12
REMARK                            x       y       z     vdW  Elec       q    Type
REMARK                         _______ _______ _______ _____ _____    ______ ____
ROOT
ATOM      1  C   UNL     1       7.460   7.228  17.410  0.00  0.00    +0.000 C 
ATOM      2  N   UNL     1       6.708   6.156  16.712  0.00  0.00    +0.000 N 
ATOM      3  C   UNL     1       7.012   5.896  15.427  0.00  0.00    +0.000 A 
ATOM      4  C   UNL     1       6.378   4.881  14.722  0.00  0.00    +0.000 A 
ATOM      5  C   UNL     1       5.427   4.097  15.377  0.00  0.00    +0.000 A 
ATOM      6  C   UNL     1       5.129   4.326  16.725  0.00  0.00    +0.000 A 
ATOM      7  C   UNL     1       5.772   5.411  17.385  0.00  0.00    +0.000 A 
ATOM      8  C   UNL     1       5.542   5.688  18.845  0.00  0.00    +0.000 C 
ATOM      9  C   UNL     1       4.468   4.833  19.508  0.00  0.00    +0.000 C 
ATOM     10  C   UNL     1       4.586   3.398  18.998  0.00  0.00    +0.000 C 
ATOM     11  C   UNL     1       3.807   2.380  19.824  0.00  0.00    +0.000 C 
ATOM     12  C   UNL     1       2.309   2.278  19.566  0.00  0.00    +0.000 C 
ATOM     13  C   UNL     1       1.866   2.489  18.119  0.00  0.00    +0.000 C 
ATOM     14  C   UNL     1       2.734   3.417  17.248  0.00  0.00    +0.000 C 
ATOM     15  C   UNL     1       4.252   3.315  17.497  0.00  0.00    +0.000 C 
ENDROOT
BRANCH  11  16
ATOM     16  O   UNL     1       4.418   1.123  19.521  0.00  0.00    +0.000 OA
ATOM     17  H   UNL     1       3.823   0.414  19.816  0.00  0.00    +0.000 HD
ENDBRANCH  11  16
TORSDOF 1
ENDMDL
MODEL 9
REMARK VINA RESULT:      -6.5      1.526      2.791
REMARK  Name = 
REMARK  2 active torsions:
REMARK  status: ('A' for Active; 'I' for Inactive)
REMARK    1  A    between atoms: C_1  and  N_2
REMARK    2  A    between atoms: C_11  and  O_12
REMARK                            x       y       z     vdW  Elec       q    Type
REMARK                         _______ _______ _______ _____ _____    ______ ____
ROOT
ATOM      1  C   UNL     1       0.722   3.853  20.171  0.00  0.00    +0.000 C 
ATOM      2  N   UNL     1       1.899   3.339  19.428  0.00  0.00    +0.000 N 
ATOM      3  C   UNL     1       1.931   2.031  19.112  0.00  0.00    +0.000 A 
ATOM      4  C   UNL     1       2.981   1.486  18.383  0.00  0.00    +0.000 A 
ATOM      5  C   UNL     1       4.006   2.327  17.945  0.00  0.00    +0.000 A 
ATOM      6  C   UNL     1       3.966   3.697  18.228  0.00  0.00    +0.000 A 
ATOM      7  C   UNL     1       2.894   4.193  19.022  0.00  0.00    +0.000 A 
ATOM      8  C   UNL     1       2.755   5.660  19.325  0.00  0.00    +0.000 C 
ATOM      9  C   UNL     1       3.916   6.532  18.861  0.00  0.00    +0.000 C 
ATOM     10  C   UNL     1       4.373   6.063  17.481  0.00  0.00    +0.000 C 
ATOM     11  C   UNL     1       5.286   7.050  16.761  0.00  0.00    +0.000 C 
ATOM     12  C   UNL     1       6.754   7.063  17.170  0.00  0.00    +0.000 C 
ATOM     13  C   UNL     1       7.351   5.709  17.551  0.00  0.00    +0.000 C 
ATOM     14  C   UNL     1       6.394   4.666  18.157  0.00  0.00    +0.000 C 
ATOM     15  C   UNL     1       4.977   4.648  17.549  0.00  0.00    +0.000 C 
ENDROOT
BRANCH  11  16
ATOM     16  O   UNL     1       5.191   6.692  15.380  0.00  0.00    +0.000 OA
ATOM     17  H   UNL     1       5.644   7.372  14.855  0.00  0.00    +0.000 HD
ENDBRANCH  11  16
TORSDOF 1
ENDMDL
