MODEL 1
REMARK VINA RESULT:      -8.2      0.000      0.000
REMARK  Name = 
REMARK  6 active torsions:
REMARK  status: ('A' for Active; 'I' for Inactive)
REMARK    1  A    between atoms: C_2  and  C_3
REMARK    2  A    between atoms: N_5  and  C_6
REMARK    3  A    between atoms: C_6  and  C_7
REMARK    4  A    between atoms: C_16  and  N_17
REMARK    5  A    between atoms: C_19  and  C_20
REMARK    6  A    between atoms: N_24  and  C_25
REMARK                            x       y       z     vdW  Elec       q    Type
REMARK                         _______ _______ _______ _____ _____    ______ ____
ROOT
ATOM      1  N   UNL     1       0.079  10.076  19.309  0.00  0.00    +0.000 N 
ATOM      2  C   UNL     1      -0.136  10.437  20.608  0.00  0.00    +0.000 A 
ATOM      3  C   UNL     1       0.548   9.528  21.392  0.00  0.00    +0.000 A 
ATOM      4  C   UNL     1       1.187   8.657  20.461  0.00  0.00    +0.000 A 
ATOM      5  N   UNL     1       1.890   7.559  20.834  0.00  0.00    +0.000 N 
ATOM      6  N   UNL     1       0.924   9.043  19.203  0.00  0.00    +0.000 NA
ATOM      7  H   UNL     1       2.098   7.460  21.830  0.00  0.00    +0.000 HD
ENDROOT
BRANCH   5   8
ATOM      8  C   UNL     1       2.166   6.383  20.094  0.00  0.00    +0.000 A 
ATOM      9  C   UNL     1       2.969   6.381  18.941  0.00  0.00    +0.000 A 
ATOM     10  C   UNL     1       3.103   5.242  18.147  0.00  0.00    +0.000 A 
ATOM     11  C   UNL     1       2.438   4.081  18.505  0.00  0.00    +0.000 A 
ATOM     12  F   UNL     1       2.543   2.994  17.730  0.00  0.00    +0.000 F 
ATOM     13  C   UNL     1       1.658   4.036  19.653  0.00  0.00    +0.000 A 
ATOM     14  C   UNL     1       1.525   5.183  20.445  0.00  0.00    +0.000 A 
ENDBRANCH   5   8
BRANCH   1  20
ATOM     15  C   UNL     1      -1.926  10.217  17.793  0.00  0.00    +0.000 C 
ATOM     16  C   UNL     1      -2.855  10.759  18.899  0.00  0.00    +0.000 C 
ATOM     17  N   UNL     1      -2.751  12.215  19.099  0.00  0.00    +0.000 NA
ATOM     18  C   UNL     1      -1.398  12.771  19.167  0.00  0.00    +0.000 C 
ATOM     19  C   UNL     1      -0.435  12.215  18.119  0.00  0.00    +0.000 C 
ATOM     20  C   UNL     1      -0.474  10.677  18.082  0.00  0.00    +0.000 C 
BRANCH  15  22
ATOM     21  N   UNL     1      -2.867  11.226  15.378  0.00  0.00    +0.000 NA
ATOM     22  C   UNL     1      -2.440  10.769  16.473  0.00  0.00    +0.000 C 
ENDBRANCH  15  22
BRANCH  17  23
ATOM     23  C   UNL     1      -3.596  12.679  20.224  0.00  0.00    +0.000 C 
BRANCH  23  24
ATOM     24  C   UNL     1      -5.100  12.437  20.111  0.00  0.00    +0.000 A 
ATOM     25  C   UNL     1      -5.757  12.671  18.902  0.00  0.00    +0.000 A 
ATOM     26  C   UNL     1      -7.141  12.508  18.841  0.00  0.00    +0.000 A 
ATOM     27  C   UNL     1      -7.827  12.088  19.974  0.00  0.00    +0.000 A 
ATOM     28  C   UNL     1      -7.098  11.846  21.121  0.00  0.00    +0.000 A 
ATOM     29  F   UNL     1      -7.739  11.401  22.211  0.00  0.00    +0.000 F 
ATOM     30  N   UNL     1      -5.768  12.030  21.222  0.00  0.00    +0.000 NA
ENDBRANCH  23  24
ENDBRANCH  17  23
ENDBRANCH   1  20
BRANCH   3  31
ATOM     31  C   UNL     1       0.577   9.472  22.841  0.00  0.00    +0.000 C 
ATOM     32  N   UNL     1      -0.646   9.386  23.452  0.00  0.00    +0.000 N 
ATOM     33  O   UNL     1       1.612   9.453  23.496  0.00  0.00    +0.000 OA
ATOM     34  H   UNL     1      -1.436   9.023  22.935  0.00  0.00    +0.000 HD
ATOM     35  H   UNL     1      -0.638   9.219  24.449  0.00  0.00    +0.000 HD
ENDBRANCH   3  31
TORSDOF 6
ENDMDL
MODEL 2
REMARK VINA RESULT:      -8.0      1.013      1.216
REMARK  Name = 
REMARK  6 active torsions:
REMARK  status: ('A' for Active; 'I' for Inactive)
REMARK    1  A    between atoms: C_2  and  C_3
REMARK    2  A    between atoms: N_5  and  C_6
REMARK    3  A    between atoms: C_6  and  C_7
REMARK    4  A    between atoms: C_16  and  N_17
REMARK    5  A    between atoms: C_19  and  C_20
REMARK    6  A    between atoms: N_24  and  C_25
REMARK                            x       y       z     vdW  Elec       q    Type
REMARK                         _______ _______ _______ _____ _____    ______ ____
ROOT
ATOM      1  N   UNL     1       0.139  10.004  19.307  0.00  0.00    +0.000 N 
ATOM      2  C   UNL     1      -0.058  10.392  20.601  0.00  0.00    +0.000 A 
ATOM      3  C   UNL     1       0.618   9.485  21.395  0.00  0.00    +0.000 A 
ATOM      4  C   UNL     1       1.234   8.588  20.475  0.00  0.00    +0.000 A 
ATOM      5  N   UNL     1       1.922   7.485  20.862  0.00  0.00    +0.000 N 
ATOM      6  N   UNL     1       0.966   8.955  19.213  0.00  0.00    +0.000 NA
ATOM      7  H   UNL     1       2.138   7.401  21.857  0.00  0.00    +0.000 HD
ENDROOT
BRANCH   5   8
ATOM      8  C   UNL     1       2.172   6.292  20.141  0.00  0.00    +0.000 A 
ATOM      9  C   UNL     1       2.965   6.255  18.982  0.00  0.00    +0.000 A 
ATOM     10  C   UNL     1       3.073   5.100  18.206  0.00  0.00    +0.000 A 
ATOM     11  C   UNL     1       2.392   3.957  18.592  0.00  0.00    +0.000 A 
ATOM     12  F   UNL     1       2.472   2.855  17.836  0.00  0.00    +0.000 F 
ATOM     13  C   UNL     1       1.621   3.946  19.747  0.00  0.00    +0.000 A 
ATOM     14  C   UNL     1       1.514   5.108  20.519  0.00  0.00    +0.000 A 
ENDBRANCH   5   8
BRANCH   1  20
ATOM     15  C   UNL     1      -1.869  10.133  17.794  0.00  0.00    +0.000 C 
ATOM     16  C   UNL     1      -2.793  10.692  18.896  0.00  0.00    +0.000 C 
ATOM     17  N   UNL     1      -2.684  12.150  19.077  0.00  0.00    +0.000 NA
ATOM     18  C   UNL     1      -1.329  12.702  19.135  0.00  0.00    +0.000 C 
ATOM     19  C   UNL     1      -0.371  12.129  18.092  0.00  0.00    +0.000 C 
ATOM     20  C   UNL     1      -0.415  10.592  18.074  0.00  0.00    +0.000 C 
BRANCH  15  22
ATOM     21  N   UNL     1      -2.813  11.116  15.370  0.00  0.00    +0.000 NA
ATOM     22  C   UNL     1      -2.385  10.670  16.469  0.00  0.00    +0.000 C 
ENDBRANCH  15  22
BRANCH  17  23
ATOM     23  C   UNL     1      -3.525  12.631  20.200  0.00  0.00    +0.000 C 
BRANCH  23  24
ATOM     24  C   UNL     1      -5.039  12.501  20.040  0.00  0.00    +0.000 A 
ATOM     25  C   UNL     1      -5.850  12.341  21.164  0.00  0.00    +0.000 A 
ATOM     26  C   UNL     1      -7.220  12.155  20.989  0.00  0.00    +0.000 A 
ATOM     27  C   UNL     1      -7.750  12.165  19.705  0.00  0.00    +0.000 A 
ATOM     28  C   UNL     1      -6.884  12.363  18.648  0.00  0.00    +0.000 A 
ATOM     29  F   UNL     1      -7.383  12.416  17.405  0.00  0.00    +0.000 F 
ATOM     30  N   UNL     1      -5.551  12.506  18.782  0.00  0.00    +0.000 NA
ENDBRANCH  23  24
ENDBRANCH  17  23
ENDBRANCH   1  20
BRANCH   3  31
ATOM     31  C   UNL     1       0.658   9.455  22.845  0.00  0.00    +0.000 C 
ATOM     32  N   UNL     1      -0.561   9.403  23.468  0.00  0.00    +0.000 N 
ATOM     33  O   UNL     1       1.699   9.429  23.491  0.00  0.00    +0.000 OA
ATOM     34  H   UNL     1      -1.361   9.045  22.964  0.00  0.00    +0.000 HD
ATOM     35  H   UNL     1      -0.546   9.254  24.467  0.00  0.00    +0.000 HD
ENDBRANCH   3  31
TORSDOF 6
ENDMDL
MODEL 3
REMARK VINA RESULT:      -8.0      1.230      1.366
REMARK  Name = 
REMARK  6 active torsions:
REMARK  status: ('A' for Active; 'I' for Inactive)
REMARK    1  A    between atoms: C_2  and  C_3
REMARK    2  A    between atoms: N_5  and  C_6
REMARK    3  A    between atoms: C_6  and  C_7
REMARK    4  A    between atoms: C_16  and  N_17
REMARK    5  A    between atoms: C_19  and  C_20
REMARK    6  A    between atoms: N_24  and  C_25
REMARK                            x       y       z     vdW  Elec       q    Type
REMARK                         _______ _______ _______ _____ _____    ______ ____
ROOT
ATOM      1  N   UNL     1      -0.628  10.484  18.986  0.00  0.00    +0.000 N 
ATOM      2  C   UNL     1      -0.964  10.915  20.237  0.00  0.00    +0.000 A 
ATOM      3  C   UNL     1      -0.217  10.169  21.128  0.00  0.00    +0.000 A 
ATOM      4  C   UNL     1       0.584   9.321  20.308  0.00  0.00    +0.000 A 
ATOM      5  N   UNL     1       1.399   8.360  20.808  0.00  0.00    +0.000 N 
ATOM      6  N   UNL     1       0.348   9.568  19.011  0.00  0.00    +0.000 NA
ATOM      7  H   UNL     1       1.558   8.368  21.817  0.00  0.00    +0.000 HD
ENDROOT
BRANCH   5   8
ATOM      8  C   UNL     1       1.868   7.177  20.186  0.00  0.00    +0.000 A 
ATOM      9  C   UNL     1       2.559   7.183  18.962  0.00  0.00    +0.000 A 
ATOM     10  C   UNL     1       2.877   5.999  18.297  0.00  0.00    +0.000 A 
ATOM     11  C   UNL     1       2.514   4.785  18.858  0.00  0.00    +0.000 A 
ATOM     12  F   UNL     1       2.795   3.648  18.208  0.00  0.00    +0.000 F 
ATOM     13  C   UNL     1       1.855   4.737  20.078  0.00  0.00    +0.000 A 
ATOM     14  C   UNL     1       1.536   5.928  20.741  0.00  0.00    +0.000 A 
ENDBRANCH   5   8
BRANCH   1  20
ATOM     15  C   UNL     1      -2.038   9.806  17.014  0.00  0.00    +0.000 C 
ATOM     16  C   UNL     1      -3.299   9.560  17.867  0.00  0.00    +0.000 C 
ATOM     17  N   UNL     1      -4.070  10.783  18.153  0.00  0.00    +0.000 NA
ATOM     18  C   UNL     1      -3.304  11.951  18.591  0.00  0.00    +0.000 C 
ATOM     19  C   UNL     1      -2.018  12.193  17.802  0.00  0.00    +0.000 C 
ATOM     20  C   UNL     1      -1.180  10.908  17.687  0.00  0.00    +0.000 C 
BRANCH  15  22
ATOM     21  N   UNL     1      -2.908  10.575  14.487  0.00  0.00    +0.000 NA
ATOM     22  C   UNL     1      -2.513  10.226  15.633  0.00  0.00    +0.000 C 
ENDBRANCH  15  22
BRANCH  17  23
ATOM     23  C   UNL     1      -5.223  10.512  19.044  0.00  0.00    +0.000 C 
BRANCH  23  24
ATOM     24  C   UNL     1      -6.216  11.653  19.262  0.00  0.00    +0.000 A 
ATOM     25  C   UNL     1      -6.950  12.156  18.188  0.00  0.00    +0.000 A 
ATOM     26  C   UNL     1      -7.799  13.243  18.398  0.00  0.00    +0.000 A 
ATOM     27  C   UNL     1      -7.916  13.777  19.675  0.00  0.00    +0.000 A 
ATOM     28  C   UNL     1      -7.180  13.199  20.689  0.00  0.00    +0.000 A 
ATOM     29  F   UNL     1      -7.313  13.676  21.936  0.00  0.00    +0.000 F 
ATOM     30  N   UNL     1      -6.324  12.175  20.512  0.00  0.00    +0.000 NA
ENDBRANCH  23  24
ENDBRANCH  17  23
ENDBRANCH   1  20
BRANCH   3  31
ATOM     31  C   UNL     1      -0.268  10.231  22.577  0.00  0.00    +0.000 C 
ATOM     32  N   UNL     1      -1.371  10.851  23.102  0.00  0.00    +0.000 N 
ATOM     33  O   UNL     1       0.581   9.730  23.305  0.00  0.00    +0.000 OA
ATOM     34  H   UNL     1      -2.216  10.911  22.551  0.00  0.00    +0.000 HD
ATOM     35  H   UNL     1      -1.483  10.791  24.105  0.00  0.00    +0.000 HD
ENDBRANCH   3  31
TORSDOF 6
ENDMDL
MODEL 4
REMARK VINA RESULT:      -7.9      5.011      8.604
REMARK  Name = 
REMARK  6 active torsions:
REMARK  status: ('A' for Active; 'I' for Inactive)
REMARK    1  A    between atoms: C_2  and  C_3
REMARK    2  A    between atoms: N_5  and  C_6
REMARK    3  A    between atoms: C_6  and  C_7
REMARK    4  A    between atoms: C_16  and  N_17
REMARK    5  A    between atoms: C_19  and  C_20
REMARK    6  A    between atoms: N_24  and  C_25
REMARK                            x       y       z     vdW  Elec       q    Type
REMARK                         _______ _______ _______ _____ _____    ______ ____
ROOT
ATOM      1  N   UNL     1       4.538   3.943  17.275  0.00  0.00    +0.000 N 
ATOM      2  C   UNL     1       4.678   3.575  15.968  0.00  0.00    +0.000 A 
ATOM      3  C   UNL     1       5.801   4.224  15.491  0.00  0.00    +0.000 A 
ATOM      4  C   UNL     1       6.303   4.949  16.612  0.00  0.00    +0.000 A 
ATOM      5  N   UNL     1       7.356   5.799  16.534  0.00  0.00    +0.000 N 
ATOM      6  N   UNL     1       5.544   4.721  17.694  0.00  0.00    +0.000 NA
ATOM      7  H   UNL     1       7.902   5.781  15.670  0.00  0.00    +0.000 HD
ENDROOT
BRANCH   5   8
ATOM      8  C   UNL     1       7.675   6.902  17.363  0.00  0.00    +0.000 A 
ATOM      9  C   UNL     1       7.575   8.234  16.928  0.00  0.00    +0.000 A 
ATOM     10  C   UNL     1       8.037   9.294  17.710  0.00  0.00    +0.000 A 
ATOM     11  C   UNL     1       8.598   9.032  18.949  0.00  0.00    +0.000 A 
ATOM     12  F   UNL     1       9.066  10.044  19.689  0.00  0.00    +0.000 F 
ATOM     13  C   UNL     1       8.689   7.731  19.424  0.00  0.00    +0.000 A 
ATOM     14  C   UNL     1       8.227   6.670  18.635  0.00  0.00    +0.000 A 
ENDBRANCH   5   8
BRANCH   1  20
ATOM     15  C   UNL     1       3.738   4.110  19.657  0.00  0.00    +0.000 C 
ATOM     16  C   UNL     1       3.689   5.652  19.642  0.00  0.00    +0.000 C 
ATOM     17  N   UNL     1       2.452   6.200  19.060  0.00  0.00    +0.000 NA
ATOM     18  C   UNL     1       2.002   5.603  17.801  0.00  0.00    +0.000 C 
ATOM     19  C   UNL     1       2.088   4.078  17.760  0.00  0.00    +0.000 C 
ATOM     20  C   UNL     1       3.469   3.582  18.224  0.00  0.00    +0.000 C 
BRANCH  15  22
ATOM     21  N   UNL     1       1.794   3.255  21.453  0.00  0.00    +0.000 NA
ATOM     22  C   UNL     1       2.675   3.643  20.638  0.00  0.00    +0.000 C 
ENDBRANCH  15  22
BRANCH  17  23
ATOM     23  C   UNL     1       2.484   7.680  18.989  0.00  0.00    +0.000 C 
BRANCH  23  24
ATOM     24  C   UNL     1       1.481   8.440  19.855  0.00  0.00    +0.000 A 
ATOM     25  C   UNL     1       1.146   7.960  21.122  0.00  0.00    +0.000 A 
ATOM     26  C   UNL     1       0.177   8.632  21.866  0.00  0.00    +0.000 A 
ATOM     27  C   UNL     1      -0.407   9.779  21.344  0.00  0.00    +0.000 A 
ATOM     28  C   UNL     1       0.005  10.206  20.098  0.00  0.00    +0.000 A 
ATOM     29  F   UNL     1      -0.520  11.334  19.596  0.00  0.00    +0.000 F 
ATOM     30  N   UNL     1       0.909   9.559  19.338  0.00  0.00    +0.000 NA
ENDBRANCH  23  24
ENDBRANCH  17  23
ENDBRANCH   1  20
BRANCH   3  31
ATOM     31  C   UNL     1       6.323   4.185  14.138  0.00  0.00    +0.000 C 
ATOM     32  N   UNL     1       5.909   3.125  13.377  0.00  0.00    +0.000 N 
ATOM     33  O   UNL     1       7.049   5.054  13.669  0.00  0.00    +0.000 OA
ATOM     34  H   UNL     1       5.049   2.648  13.615  0.00  0.00    +0.000 HD
ATOM     35  H   UNL     1       6.161   3.151  12.398  0.00  0.00    +0.000 HD
ENDBRANCH   3  31
TORSDOF 6
ENDMDL
MODEL 5
REMARK VINA RESULT:      -7.8      4.597      7.896
REMARK  Name = 
REMARK  6 active torsions:
REMARK  status: ('A' for Active; 'I' for Inactive)
REMARK    1  A    between atoms: C_2  and  C_3
REMARK    2  A    between atoms: N_5  and  C_6
REMARK    3  A    between atoms: C_6  and  C_7
REMARK    4  A    between atoms: C_16  and  N_17
REMARK    5  A    between atoms: C_19  and  C_20
REMARK    6  A    between atoms: N_24  and  C_25
REMARK                            x       y       z     vdW  Elec       q    Type
REMARK                         _______ _______ _______ _____ _____    ______ ____
ROOT
ATOM      1  N   UNL     1       4.564   4.752  18.252  0.00  0.00    +0.000 N 
ATOM      2  C   UNL     1       5.466   5.205  19.171  0.00  0.00    +0.000 A 
ATOM      3  C   UNL     1       6.580   5.615  18.464  0.00  0.00    +0.000 A 
ATOM      4  C   UNL     1       6.240   5.401  17.097  0.00  0.00    +0.000 A 
ATOM      5  N   UNL     1       7.112   5.595  16.077  0.00  0.00    +0.000 N 
ATOM      6  N   UNL     1       4.992   4.921  16.995  0.00  0.00    +0.000 NA
ATOM      7  H   UNL     1       7.989   6.070  16.301  0.00  0.00    +0.000 HD
ENDROOT
BRANCH   5   8
ATOM      8  C   UNL     1       7.118   5.011  14.786  0.00  0.00    +0.000 A 
ATOM      9  C   UNL     1       7.863   5.537  13.717  0.00  0.00    +0.000 A 
ATOM     10  C   UNL     1       7.735   5.036  12.421  0.00  0.00    +0.000 A 
ATOM     11  C   UNL     1       6.862   3.988  12.181  0.00  0.00    +0.000 A 
ATOM     12  F   UNL     1       6.717   3.523  10.933  0.00  0.00    +0.000 F 
ATOM     13  C   UNL     1       6.129   3.424  13.216  0.00  0.00    +0.000 A 
ATOM     14  C   UNL     1       6.259   3.932  14.514  0.00  0.00    +0.000 A 
ENDBRANCH   5   8
BRANCH   1  20
ATOM     15  C   UNL     1       2.939   3.918  19.986  0.00  0.00    +0.000 C 
ATOM     16  C   UNL     1       2.827   5.286  20.690  0.00  0.00    +0.000 C 
ATOM     17  N   UNL     1       1.865   6.203  20.053  0.00  0.00    +0.000 NA
ATOM     18  C   UNL     1       1.937   6.317  18.595  0.00  0.00    +0.000 C 
ATOM     19  C   UNL     1       2.103   4.983  17.867  0.00  0.00    +0.000 C 
ATOM     20  C   UNL     1       3.239   4.147  18.482  0.00  0.00    +0.000 C 
BRANCH  15  22
ATOM     21  N   UNL     1       0.515   2.610  20.366  0.00  0.00    +0.000 NA
ATOM     22  C   UNL     1       1.614   3.203  20.194  0.00  0.00    +0.000 C 
ENDBRANCH  15  22
BRANCH  17  23
ATOM     23  C   UNL     1       1.852   7.532  20.711  0.00  0.00    +0.000 C 
BRANCH  23  24
ATOM     24  C   UNL     1       1.219   8.685  19.936  0.00  0.00    +0.000 A 
ATOM     25  C   UNL     1       1.728   9.053  18.690  0.00  0.00    +0.000 A 
ATOM     26  C   UNL     1       1.178  10.153  18.032  0.00  0.00    +0.000 A 
ATOM     27  C   UNL     1       0.118  10.835  18.616  0.00  0.00    +0.000 A 
ATOM     28  C   UNL     1      -0.349  10.386  19.835  0.00  0.00    +0.000 A 
ATOM     29  F   UNL     1      -1.397  11.008  20.394  0.00  0.00    +0.000 F 
ATOM     30  N   UNL     1       0.185   9.352  20.513  0.00  0.00    +0.000 NA
ENDBRANCH  23  24
ENDBRANCH  17  23
ENDBRANCH   1  20
BRANCH   3  31
ATOM     31  C   UNL     1       7.823   6.125  19.013  0.00  0.00    +0.000 C 
ATOM     32  N   UNL     1       8.397   5.355  19.989  0.00  0.00    +0.000 N 
ATOM     33  O   UNL     1       8.367   7.149  18.615  0.00  0.00    +0.000 OA
ATOM     34  H   UNL     1       8.174   4.369  20.039  0.00  0.00    +0.000 HD
ATOM     35  H   UNL     1       9.322   5.629  20.290  0.00  0.00    +0.000 HD
ENDBRANCH   3  31
TORSDOF 6
ENDMDL
MODEL 6
REMARK VINA RESULT:      -7.8      4.738      8.088
REMARK  Name = 
REMARK  6 active torsions:
REMARK  status: ('A' for Active; 'I' for Inactive)
REMARK    1  A    between atoms: C_2  and  C_3
REMARK    2  A    between atoms: N_5  and  C_6
REMARK    3  A    between atoms: C_6  and  C_7
REMARK    4  A    between atoms: C_16  and  N_17
REMARK    5  A    between atoms: C_19  and  C_20
REMARK    6  A    between atoms: N_24  and  C_25
REMARK                            x       y       z     vdW  Elec       q    Type
REMARK                         _______ _______ _______ _____ _____    ______ ____
ROOT
ATOM      1  N   UNL     1       4.523   4.742  18.238  0.00  0.00    +0.000 N 
ATOM      2  C   UNL     1       5.411   5.185  19.175  0.00  0.00    +0.000 A 
ATOM      3  C   UNL     1       6.535   5.605  18.490  0.00  0.00    +0.000 A 
ATOM      4  C   UNL     1       6.216   5.407  17.115  0.00  0.00    +0.000 A 
ATOM      5  N   UNL     1       7.102   5.612  16.110  0.00  0.00    +0.000 N 
ATOM      6  N   UNL     1       4.970   4.926  16.989  0.00  0.00    +0.000 NA
ATOM      7  H   UNL     1       7.975   6.086  16.353  0.00  0.00    +0.000 HD
ENDROOT
BRANCH   5   8
ATOM      8  C   UNL     1       7.128   5.044  14.813  0.00  0.00    +0.000 A 
ATOM      9  C   UNL     1       7.883   5.586  13.760  0.00  0.00    +0.000 A 
ATOM     10  C   UNL     1       7.774   5.099  12.457  0.00  0.00    +0.000 A 
ATOM     11  C   UNL     1       6.911   4.048  12.193  0.00  0.00    +0.000 A 
ATOM     12  F   UNL     1       6.785   3.596  10.939  0.00  0.00    +0.000 F 
ATOM     13  C   UNL     1       6.169   3.468  13.213  0.00  0.00    +0.000 A 
ATOM     14  C   UNL     1       6.280   3.962  14.518  0.00  0.00    +0.000 A 
ENDBRANCH   5   8
BRANCH   1  20
ATOM     15  C   UNL     1       2.908   3.811  19.930  0.00  0.00    +0.000 C 
ATOM     16  C   UNL     1       2.812   5.132  20.721  0.00  0.00    +0.000 C 
ATOM     17  N   UNL     1       1.852   6.095  20.153  0.00  0.00    +0.000 NA
ATOM     18  C   UNL     1       1.911   6.300  18.704  0.00  0.00    +0.000 C 
ATOM     19  C   UNL     1       2.061   5.014  17.892  0.00  0.00    +0.000 C 
ATOM     20  C   UNL     1       3.196   4.133  18.442  0.00  0.00    +0.000 C 
BRANCH  15  22
ATOM     21  N   UNL     1       0.477   2.499  20.250  0.00  0.00    +0.000 NA
ATOM     22  C   UNL     1       1.579   3.094  20.105  0.00  0.00    +0.000 C 
ENDBRANCH  15  22
BRANCH  17  23
ATOM     23  C   UNL     1       1.854   7.379  20.894  0.00  0.00    +0.000 C 
BRANCH  23  24
ATOM     24  C   UNL     1       1.276   8.597  20.176  0.00  0.00    +0.000 A 
ATOM     25  C   UNL     1       0.059   9.140  20.589  0.00  0.00    +0.000 A 
ATOM     26  C   UNL     1      -0.483  10.208  19.876  0.00  0.00    +0.000 A 
ATOM     27  C   UNL     1       0.216  10.727  18.792  0.00  0.00    +0.000 A 
ATOM     28  C   UNL     1       1.430  10.154  18.470  0.00  0.00    +0.000 A 
ATOM     29  F   UNL     1       2.136  10.668  17.452  0.00  0.00    +0.000 F 
ATOM     30  N   UNL     1       1.961   9.097  19.114  0.00  0.00    +0.000 NA
ENDBRANCH  23  24
ENDBRANCH  17  23
ENDBRANCH   1  20
BRANCH   3  31
ATOM     31  C   UNL     1       7.769   6.111  19.063  0.00  0.00    +0.000 C 
ATOM     32  N   UNL     1       8.313   5.345  20.060  0.00  0.00    +0.000 N 
ATOM     33  O   UNL     1       8.331   7.125  18.667  0.00  0.00    +0.000 OA
ATOM     34  H   UNL     1       8.080   4.363  20.114  0.00  0.00    +0.000 HD
ATOM     35  H   UNL     1       9.233   5.615  20.380  0.00  0.00    +0.000 HD
ENDBRANCH   3  31
TORSDOF 6
ENDMDL
MODEL 7
REMARK VINA RESULT:      -7.8      1.525      1.952
REMARK  Name = 
REMARK  6 active torsions:
REMARK  status: ('A' for Active; 'I' for Inactive)
REMARK    1  A    between atoms: C_2  and  C_3
REMARK    2  A    between atoms: N_5  and  C_6
REMARK    3  A    between atoms: C_6  and  C_7
REMARK    4  A    between atoms: C_16  and  N_17
REMARK    5  A    between atoms: C_19  and  C_20
REMARK    6  A    between atoms: N_24  and  C_25
REMARK                            x       y       z     vdW  Elec       q    Type
REMARK                         _______ _______ _______ _____ _____    ______ ____
ROOT
ATOM      1  N   UNL     1      -0.351  10.372  19.236  0.00  0.00    +0.000 N 
ATOM      2  C   UNL     1      -0.665  10.736  20.513  0.00  0.00    +0.000 A 
ATOM      3  C   UNL     1       0.053   9.905  21.351  0.00  0.00    +0.000 A 
ATOM      4  C   UNL     1       0.815   9.078  20.475  0.00  0.00    +0.000 A 
ATOM      5  N   UNL     1       1.590   8.054  20.908  0.00  0.00    +0.000 N 
ATOM      6  N   UNL     1       0.586   9.415  19.197  0.00  0.00    +0.000 NA
ATOM      7  H   UNL     1       1.753   7.991  21.915  0.00  0.00    +0.000 HD
ENDROOT
BRANCH   5   8
ATOM      8  C   UNL     1       2.007   6.894  20.210  0.00  0.00    +0.000 A 
ATOM      9  C   UNL     1       2.693   6.948  18.986  0.00  0.00    +0.000 A 
ATOM     10  C   UNL     1       2.959   5.796  18.245  0.00  0.00    +0.000 A 
ATOM     11  C   UNL     1       2.548   4.565  18.731  0.00  0.00    +0.000 A 
ATOM     12  F   UNL     1       2.778   3.461  18.011  0.00  0.00    +0.000 F 
ATOM     13  C   UNL     1       1.892   4.468  19.951  0.00  0.00    +0.000 A 
ATOM     14  C   UNL     1       1.625   5.628  20.689  0.00  0.00    +0.000 A 
ENDBRANCH   5   8
BRANCH   1  20
ATOM     15  C   UNL     1      -2.116  10.099  17.461  0.00  0.00    +0.000 C 
ATOM     16  C   UNL     1      -3.286  10.294  18.448  0.00  0.00    +0.000 C 
ATOM     17  N   UNL     1      -3.604  11.707  18.718  0.00  0.00    +0.000 NA
ATOM     18  C   UNL     1      -2.470  12.590  18.997  0.00  0.00    +0.000 C 
ATOM     19  C   UNL     1      -1.270  12.386  18.072  0.00  0.00    +0.000 C 
ATOM     20  C   UNL     1      -0.890  10.899  17.969  0.00  0.00    +0.000 C 
BRANCH  15  22
ATOM     21  N   UNL     1      -2.987  11.008  14.982  0.00  0.00    +0.000 NA
ATOM     22  C   UNL     1      -2.592  10.596  16.106  0.00  0.00    +0.000 C 
ENDBRANCH  15  22
BRANCH  17  23
ATOM     23  C   UNL     1      -4.676  11.847  19.733  0.00  0.00    +0.000 C 
BRANCH  23  24
ATOM     24  C   UNL     1      -4.423  12.821  20.882  0.00  0.00    +0.000 A 
ATOM     25  C   UNL     1      -4.695  14.180  20.720  0.00  0.00    +0.000 A 
ATOM     26  C   UNL     1      -4.392  15.059  21.759  0.00  0.00    +0.000 A 
ATOM     27  C   UNL     1      -3.856  14.559  22.939  0.00  0.00    +0.000 A 
ATOM     28  C   UNL     1      -3.649  13.198  23.031  0.00  0.00    +0.000 A 
ATOM     29  F   UNL     1      -3.171  12.693  24.178  0.00  0.00    +0.000 F 
ATOM     30  N   UNL     1      -3.895  12.328  22.033  0.00  0.00    +0.000 NA
ENDBRANCH  23  24
ENDBRANCH  17  23
ENDBRANCH   1  20
BRANCH   3  31
ATOM     31  C   UNL     1       0.010   9.878  22.802  0.00  0.00    +0.000 C 
ATOM     32  N   UNL     1      -1.192  10.222  23.362  0.00  0.00    +0.000 N 
ATOM     33  O   UNL     1       0.955   9.529  23.499  0.00  0.00    +0.000 OA
ATOM     34  H   UNL     1      -2.038  10.131  22.816  0.00  0.00    +0.000 HD
ATOM     35  H   UNL     1      -1.276  10.086  24.360  0.00  0.00    +0.000 HD
ENDBRANCH   3  31
TORSDOF 6
ENDMDL
MODEL 8
REMARK VINA RESULT:      -7.7      5.042      8.546
REMARK  Name = 
REMARK  6 active torsions:
REMARK  status: ('A' for Active; 'I' for Inactive)
REMARK    1  A    between atoms: C_2  and  C_3
REMARK    2  A    between atoms: N_5  and  C_6
REMARK    3  A    between atoms: C_6  and  C_7
REMARK    4  A    between atoms: C_16  and  N_17
REMARK    5  A    between atoms: C_19  and  C_20
REMARK    6  A    between atoms: N_24  and  C_25
REMARK                            x       y       z     vdW  Elec       q    Type
REMARK                         _______ _______ _______ _____ _____    ______ ____
ROOT
ATOM      1  N   UNL     1       4.528   3.978  17.183  0.00  0.00    +0.000 N 
ATOM      2  C   UNL     1       4.689   3.628  15.874  0.00  0.00    +0.000 A 
ATOM      3  C   UNL     1       5.826   4.272  15.427  0.00  0.00    +0.000 A 
ATOM      4  C   UNL     1       6.315   4.975  16.566  0.00  0.00    +0.000 A 
ATOM      5  N   UNL     1       7.378   5.815  16.519  0.00  0.00    +0.000 N 
ATOM      6  N   UNL     1       5.534   4.741  17.631  0.00  0.00    +0.000 NA
ATOM      7  H   UNL     1       7.940   5.804  15.666  0.00  0.00    +0.000 HD
ENDROOT
BRANCH   5   8
ATOM      8  C   UNL     1       7.693   6.903  17.370  0.00  0.00    +0.000 A 
ATOM      9  C   UNL     1       7.600   8.243  16.957  0.00  0.00    +0.000 A 
ATOM     10  C   UNL     1       8.058   9.289  17.760  0.00  0.00    +0.000 A 
ATOM     11  C   UNL     1       8.607   9.003  18.999  0.00  0.00    +0.000 A 
ATOM     12  F   UNL     1       9.072  10.002  19.760  0.00  0.00    +0.000 F 
ATOM     13  C   UNL     1       8.691   7.694  19.454  0.00  0.00    +0.000 A 
ATOM     14  C   UNL     1       8.233   6.649  18.643  0.00  0.00    +0.000 A 
ENDBRANCH   5   8
BRANCH   1  20
ATOM     15  C   UNL     1       3.739   4.017  19.574  0.00  0.00    +0.000 C 
ATOM     16  C   UNL     1       3.786   5.556  19.674  0.00  0.00    +0.000 C 
ATOM     17  N   UNL     1       2.586   6.223  19.139  0.00  0.00    +0.000 NA
ATOM     18  C   UNL     1       2.100   5.750  17.841  0.00  0.00    +0.000 C 
ATOM     19  C   UNL     1       2.091   4.230  17.687  0.00  0.00    +0.000 C 
ATOM     20  C   UNL     1       3.438   3.616  18.107  0.00  0.00    +0.000 C 
BRANCH  15  22
ATOM     21  N   UNL     1       1.744   3.155  21.309  0.00  0.00    +0.000 NA
ATOM     22  C   UNL     1       2.648   3.546  20.522  0.00  0.00    +0.000 C 
ENDBRANCH  15  22
BRANCH  17  23
ATOM     23  C   UNL     1       2.711   7.699  19.178  0.00  0.00    +0.000 C 
BRANCH  23  24
ATOM     24  C   UNL     1       1.496   8.487  19.662  0.00  0.00    +0.000 A 
ATOM     25  C   UNL     1       0.905   9.442  18.832  0.00  0.00    +0.000 A 
ATOM     26  C   UNL     1      -0.160  10.197  19.320  0.00  0.00    +0.000 A 
ATOM     27  C   UNL     1      -0.628   9.961  20.607  0.00  0.00    +0.000 A 
ATOM     28  C   UNL     1      -0.010   8.976  21.351  0.00  0.00    +0.000 A 
ATOM     29  F   UNL     1      -0.476   8.707  22.580  0.00  0.00    +0.000 F 
ATOM     30  N   UNL     1       1.044   8.256  20.922  0.00  0.00    +0.000 NA
ENDBRANCH  23  24
ENDBRANCH  17  23
ENDBRANCH   1  20
BRANCH   3  31
ATOM     31  C   UNL     1       6.373   4.246  14.083  0.00  0.00    +0.000 C 
ATOM     32  N   UNL     1       5.930   3.224  13.285  0.00  0.00    +0.000 N 
ATOM     33  O   UNL     1       7.143   5.096  13.651  0.00  0.00    +0.000 OA
ATOM     34  H   UNL     1       5.047   2.779  13.494  0.00  0.00    +0.000 HD
ATOM     35  H   UNL     1       6.202   3.265  12.313  0.00  0.00    +0.000 HD
ENDBRANCH   3  31
TORSDOF 6
ENDMDL
MODEL 9
REMARK VINA RESULT:      -7.7      1.177      1.525
REMARK  Name = 
REMARK  6 active torsions:
REMARK  status: ('A' for Active; 'I' for Inactive)
REMARK    1  A    between atoms: C_2  and  C_3
REMARK    2  A    between atoms: N_5  and  C_6
REMARK    3  A    between atoms: C_6  and  C_7
REMARK    4  A    between atoms: C_16  and  N_17
REMARK    5  A    between atoms: C_19  and  C_20
REMARK    6  A    between atoms: N_24  and  C_25
REMARK                            x       y       z     vdW  Elec       q    Type
REMARK                         _______ _______ _______ _____ _____    ______ ____
ROOT
ATOM      1  N   UNL     1      -0.063  10.131  19.238  0.00  0.00    +0.000 N 
ATOM      2  C   UNL     1      -0.301  10.479  20.536  0.00  0.00    +0.000 A 
ATOM      3  C   UNL     1       0.405   9.588  21.322  0.00  0.00    +0.000 A 
ATOM      4  C   UNL     1       1.080   8.743  20.394  0.00  0.00    +0.000 A 
ATOM      5  N   UNL     1       1.815   7.667  20.768  0.00  0.00    +0.000 N 
ATOM      6  N   UNL     1       0.816   9.126  19.135  0.00  0.00    +0.000 NA
ATOM      7  H   UNL     1       2.018   7.570  21.765  0.00  0.00    +0.000 HD
ENDROOT
BRANCH   5   8
ATOM      8  C   UNL     1       2.135   6.504  20.026  0.00  0.00    +0.000 A 
ATOM      9  C   UNL     1       1.735   5.216  20.420  0.00  0.00    +0.000 A 
ATOM     10  C   UNL     1       2.189   4.075  19.757  0.00  0.00    +0.000 A 
ATOM     11  C   UNL     1       3.046   4.213  18.677  0.00  0.00    +0.000 A 
ATOM     12  F   UNL     1       3.505   3.119  18.055  0.00  0.00    +0.000 F 
ATOM     13  C   UNL     1       3.442   5.470  18.241  0.00  0.00    +0.000 A 
ATOM     14  C   UNL     1       2.985   6.611  18.911  0.00  0.00    +0.000 A 
ENDBRANCH   5   8
BRANCH   1  20
ATOM     15  C   UNL     1      -2.002  10.115  17.632  0.00  0.00    +0.000 C 
ATOM     16  C   UNL     1      -3.034  10.506  18.711  0.00  0.00    +0.000 C 
ATOM     17  N   UNL     1      -3.102  11.955  18.969  0.00  0.00    +0.000 NA
ATOM     18  C   UNL     1      -1.823  12.652  19.124  0.00  0.00    +0.000 C 
ATOM     19  C   UNL     1      -0.759  12.249  18.104  0.00  0.00    +0.000 C 
ATOM     20  C   UNL     1      -0.625  10.719  18.008  0.00  0.00    +0.000 C 
BRANCH  15  22
ATOM     21  N   UNL     1      -2.941  11.117  15.214  0.00  0.00    +0.000 NA
ATOM     22  C   UNL     1      -2.516  10.663  16.310  0.00  0.00    +0.000 C 
ENDBRANCH  15  22
BRANCH  17  23
ATOM     23  C   UNL     1      -4.043  12.275  20.069  0.00  0.00    +0.000 C 
BRANCH  23  24
ATOM     24  C   UNL     1      -5.408  12.834  19.675  0.00  0.00    +0.000 A 
ATOM     25  C   UNL     1      -6.327  12.027  19.002  0.00  0.00    +0.000 A 
ATOM     26  C   UNL     1      -7.540  12.578  18.592  0.00  0.00    +0.000 A 
ATOM     27  C   UNL     1      -7.818  13.906  18.890  0.00  0.00    +0.000 A 
ATOM     28  C   UNL     1      -6.870  14.627  19.588  0.00  0.00    +0.000 A 
ATOM     29  F   UNL     1      -7.140  15.898  19.919  0.00  0.00    +0.000 F 
ATOM     30  N   UNL     1      -5.675  14.134  19.964  0.00  0.00    +0.000 NA
ENDBRANCH  23  24
ENDBRANCH  17  23
ENDBRANCH   1  20
BRANCH   3  31
ATOM     31  C   UNL     1       0.423   9.527  22.772  0.00  0.00    +0.000 C 
ATOM     32  N   UNL     1      -0.803   9.405  23.372  0.00  0.00    +0.000 N 
ATOM     33  O   UNL     1       1.452   9.533  23.435  0.00  0.00    +0.000 OA
ATOM     34  H   UNL     1      -1.577   9.022  22.846  0.00  0.00    +0.000 HD
ATOM     35  H   UNL     1      -0.799   9.234  24.368  0.00  0.00    +0.000 HD
ENDBRANCH   3  31
TORSDOF 6
ENDMDL
