MODEL 1
REMARK VINA RESULT:      -8.6      0.000      0.000
REMARK  Name = 
REMARK  10 active torsions:
REMARK  status: ('A' for Active; 'I' for Inactive)
REMARK    1  A    between atoms: C_1  and  C_2
REMARK    2  A    between atoms: C_11  and  C_12
REMARK    3  A    between atoms: C_12  and  O_13
REMARK    4  A    between atoms: O_13  and  C_14
REMARK    5  A    between atoms: C_18  and  C_19
REMARK    6  A    between atoms: C_20  and  C_21
REMARK    7  A    between atoms: C_21  and  C_22
REMARK    8  A    between atoms: C_22  and  C_23
REMARK    9  A    between atoms: C_23  and  O_25
REMARK   10  A    between atoms: C_30  and  C_31
REMARK                            x       y       z     vdW  Elec       q    Type
REMARK                         _______ _______ _______ _____ _____    ______ ____
ROOT
ATOM      1  C   UNL     1       0.396  10.360  20.346  0.00  0.00    +0.000 A 
ATOM      2  C   UNL     1       1.017  10.551  19.106  0.00  0.00    +0.000 A 
ATOM      3  C   UNL     1       1.772   9.534  18.505  0.00  0.00    +0.000 A 
ATOM      4  C   UNL     1       1.911   8.288  19.122  0.00  0.00    +0.000 A 
ATOM      5  C   UNL     1       2.637   7.135  18.548  0.00  0.00    +0.000 A 
ATOM      6  C   UNL     1       3.441   7.310  17.282  0.00  0.00    +0.000 C 
ATOM      7  C   UNL     1       2.582   5.937  19.174  0.00  0.00    +0.000 A 
ATOM      8  C   UNL     1       1.879   5.774  20.472  0.00  0.00    +0.000 A 
ATOM      9  O   UNL     1       1.777   4.689  21.031  0.00  0.00    +0.000 OA
ATOM     10  O   UNL     1       1.364   6.907  21.047  0.00  0.00    +0.000 OA
ATOM     11  C   UNL     1       1.309   8.142  20.375  0.00  0.00    +0.000 A 
ATOM     12  C   UNL     1       0.598   9.161  21.039  0.00  0.00    +0.000 A 
ATOM     13  C   UNL     1       0.141   8.912  22.454  0.00  0.00    +0.000 C 
ENDROOT
BRANCH   1  14
ATOM     14  O   UNL     1      -0.358  11.431  20.745  0.00  0.00    +0.000 OA
BRANCH  14  15
ATOM     15  C   UNL     1      -0.787  12.310  19.705  0.00  0.00    +0.000 C 
BRANCH  15  26
ATOM     16  C   UNL     1      -2.631  13.509  21.723  0.00  0.00    +0.000 C 
ATOM     17  C   UNL     1      -3.147  12.835  20.475  0.00  0.00    +0.000 A 
ATOM     18  C   UNL     1      -4.524  12.803  20.256  0.00  0.00    +0.000 A 
ATOM     19  C   UNL     1      -5.045  12.230  19.097  0.00  0.00    +0.000 A 
ATOM     20  C   UNL     1      -4.207  11.690  18.113  0.00  0.00    +0.000 A 
ATOM     21  C   UNL     1      -4.752  11.147  16.935  0.00  0.00    +0.000 A 
ATOM     22  C   UNL     1      -3.932  10.634  15.931  0.00  0.00    +0.000 A 
ATOM     23  C   UNL     1      -2.557  10.659  16.086  0.00  0.00    +0.000 A 
ATOM     24  C   UNL     1      -2.005  11.189  17.252  0.00  0.00    +0.000 A 
ATOM     25  C   UNL     1      -2.809  11.706  18.300  0.00  0.00    +0.000 A 
ATOM     26  C   UNL     1      -2.284  12.258  19.508  0.00  0.00    +0.000 A 
ENDBRANCH  15  26
ENDBRANCH  14  15
ENDBRANCH   1  14
BRANCH   7  27
ATOM     27  C   UNL     1       3.268   4.674  18.694  0.00  0.00    +0.000 C 
BRANCH  27  28
ATOM     28  C   UNL     1       2.502   3.919  17.602  0.00  0.00    +0.000 C 
BRANCH  28  29
ATOM     29  C   UNL     1       1.893   2.657  18.162  0.00  0.00    +0.000 C 
ATOM     30  O   UNL     1       0.789   2.576  18.675  0.00  0.00    +0.000 OA
BRANCH  29  31
ATOM     31  O   UNL     1       2.719   1.591  18.052  0.00  0.00    +0.000 OA
ATOM     32  H   UNL     1       2.668   0.975  18.807  0.00  0.00    +0.000 HD
ENDBRANCH  29  31
ENDBRANCH  28  29
ENDBRANCH  27  28
ENDBRANCH   7  27
TORSDOF 7
ENDMDL
MODEL 2
REMARK VINA RESULT:      -8.6      0.916      2.491
REMARK  Name = 
REMARK  10 active torsions:
REMARK  status: ('A' for Active; 'I' for Inactive)
REMARK    1  A    between atoms: C_1  and  C_2
REMARK    2  A    between atoms: C_11  and  C_12
REMARK    3  A    between atoms: C_12  and  O_13
REMARK    4  A    between atoms: O_13  and  C_14
REMARK    5  A    between atoms: C_18  and  C_19
REMARK    6  A    between atoms: C_20  and  C_21
REMARK    7  A    between atoms: C_21  and  C_22
REMARK    8  A    between atoms: C_22  and  C_23
REMARK    9  A    between atoms: C_23  and  O_25
REMARK   10  A    between atoms: C_30  and  C_31
REMARK                            x       y       z     vdW  Elec       q    Type
REMARK                         _______ _______ _______ _____ _____    ______ ____
ROOT
ATOM      1  C   UNL     1       0.638  10.031  19.659  0.00  0.00    +0.000 A 
ATOM      2  C   UNL     1       1.330  10.142  18.446  0.00  0.00    +0.000 A 
ATOM      3  C   UNL     1       2.171   9.118  17.991  0.00  0.00    +0.000 A 
ATOM      4  C   UNL     1       2.328   7.942  18.728  0.00  0.00    +0.000 A 
ATOM      5  C   UNL     1       3.144   6.782  18.310  0.00  0.00    +0.000 A 
ATOM      6  C   UNL     1       4.021   6.885  17.085  0.00  0.00    +0.000 C 
ATOM      7  C   UNL     1       3.104   5.644  19.040  0.00  0.00    +0.000 A 
ATOM      8  C   UNL     1       2.326   5.561  20.302  0.00  0.00    +0.000 A 
ATOM      9  O   UNL     1       2.239   4.526  20.952  0.00  0.00    +0.000 OA
ATOM     10  O   UNL     1       1.721   6.712  20.737  0.00  0.00    +0.000 OA
ATOM     11  C   UNL     1       1.651   7.877  19.950  0.00  0.00    +0.000 A 
ATOM     12  C   UNL     1       0.850   8.912  20.471  0.00  0.00    +0.000 A 
ATOM     13  C   UNL     1       0.313   8.766  21.872  0.00  0.00    +0.000 C 
ENDROOT
BRANCH   1  14
ATOM     14  O   UNL     1      -0.191  11.092  19.908  0.00  0.00    +0.000 OA
BRANCH  14  15
ATOM     15  C   UNL     1      -0.699  11.767  18.759  0.00  0.00    +0.000 C 
BRANCH  15  26
ATOM     16  C   UNL     1      -1.955   9.831  16.865  0.00  0.00    +0.000 C 
ATOM     17  C   UNL     1      -2.783  10.725  17.755  0.00  0.00    +0.000 A 
ATOM     18  C   UNL     1      -4.173  10.614  17.703  0.00  0.00    +0.000 A 
ATOM     19  C   UNL     1      -4.979  11.388  18.536  0.00  0.00    +0.000 A 
ATOM     20  C   UNL     1      -4.422  12.280  19.461  0.00  0.00    +0.000 A 
ATOM     21  C   UNL     1      -5.252  13.027  20.317  0.00  0.00    +0.000 A 
ATOM     22  C   UNL     1      -4.715  13.896  21.265  0.00  0.00    +0.000 A 
ATOM     23  C   UNL     1      -3.342  14.030  21.376  0.00  0.00    +0.000 A 
ATOM     24  C   UNL     1      -2.509  13.301  20.529  0.00  0.00    +0.000 A 
ATOM     25  C   UNL     1      -3.020  12.418  19.544  0.00  0.00    +0.000 A 
ATOM     26  C   UNL     1      -2.202  11.652  18.658  0.00  0.00    +0.000 A 
ENDBRANCH  15  26
ENDBRANCH  14  15
ENDBRANCH   1  14
BRANCH   7  27
ATOM     27  C   UNL     1       3.881   4.381  18.723  0.00  0.00    +0.000 C 
BRANCH  27  28
ATOM     28  C   UNL     1       3.165   3.431  17.757  0.00  0.00    +0.000 C 
BRANCH  28  29
ATOM     29  C   UNL     1       2.964   2.080  18.399  0.00  0.00    +0.000 C 
ATOM     30  O   UNL     1       1.999   1.758  19.073  0.00  0.00    +0.000 OA
BRANCH  29  31
ATOM     31  O   UNL     1       3.995   1.235  18.163  0.00  0.00    +0.000 OA
ATOM     32  H   UNL     1       4.002   0.867  17.259  0.00  0.00    +0.000 HD
ENDBRANCH  29  31
ENDBRANCH  28  29
ENDBRANCH  27  28
ENDBRANCH   7  27
TORSDOF 7
ENDMDL
MODEL 3
REMARK VINA RESULT:      -8.5      2.173      2.580
REMARK  Name = 
REMARK  10 active torsions:
REMARK  status: ('A' for Active; 'I' for Inactive)
REMARK    1  A    between atoms: C_1  and  C_2
REMARK    2  A    between atoms: C_11  and  C_12
REMARK    3  A    between atoms: C_12  and  O_13
REMARK    4  A    between atoms: O_13  and  C_14
REMARK    5  A    between atoms: C_18  and  C_19
REMARK    6  A    between atoms: C_20  and  C_21
REMARK    7  A    between atoms: C_21  and  C_22
REMARK    8  A    between atoms: C_22  and  C_23
REMARK    9  A    between atoms: C_23  and  O_25
REMARK   10  A    between atoms: C_30  and  C_31
REMARK                            x       y       z     vdW  Elec       q    Type
REMARK                         _______ _______ _______ _____ _____    ______ ____
ROOT
ATOM      1  C   UNL     1       0.969   9.301  19.566  0.00  0.00    +0.000 A 
ATOM      2  C   UNL     1       1.492   9.664  18.319  0.00  0.00    +0.000 A 
ATOM      3  C   UNL     1       2.432   8.858  17.661  0.00  0.00    +0.000 A 
ATOM      4  C   UNL     1       2.859   7.653  18.225  0.00  0.00    +0.000 A 
ATOM      5  C   UNL     1       3.800   6.707  17.589  0.00  0.00    +0.000 A 
ATOM      6  C   UNL     1       4.504   7.094  16.312  0.00  0.00    +0.000 C 
ATOM      7  C   UNL     1       4.027   5.505  18.170  0.00  0.00    +0.000 A 
ATOM      8  C   UNL     1       3.419   5.150  19.477  0.00  0.00    +0.000 A 
ATOM      9  O   UNL     1       3.574   4.051  19.995  0.00  0.00    +0.000 OA
ATOM     10  O   UNL     1       2.689   6.123  20.108  0.00  0.00    +0.000 OA
ATOM     11  C   UNL     1       2.343   7.338  19.486  0.00  0.00    +0.000 A 
ATOM     12  C   UNL     1       1.449   8.154  20.207  0.00  0.00    +0.000 A 
ATOM     13  C   UNL     1       1.104   7.764  21.621  0.00  0.00    +0.000 C 
ENDROOT
BRANCH   1  14
ATOM     14  O   UNL     1       0.012  10.168  20.024  0.00  0.00    +0.000 OA
BRANCH  14  15
ATOM     15  C   UNL     1      -0.250  11.298  19.194  0.00  0.00    +0.000 C 
BRANCH  15  26
ATOM     16  C   UNL     1      -1.544  12.855  21.388  0.00  0.00    +0.000 C 
ATOM     17  C   UNL     1      -2.323  12.369  20.191  0.00  0.00    +0.000 A 
ATOM     18  C   UNL     1      -3.679  12.687  20.105  0.00  0.00    +0.000 A 
ATOM     19  C   UNL     1      -4.431  12.297  18.997  0.00  0.00    +0.000 A 
ATOM     20  C   UNL     1      -3.848  11.597  17.933  0.00  0.00    +0.000 A 
ATOM     21  C   UNL     1      -4.616  11.242  16.810  0.00  0.00    +0.000 A 
ATOM     22  C   UNL     1      -4.046  10.573  15.728  0.00  0.00    +0.000 A 
ATOM     23  C   UNL     1      -2.700  10.251  15.750  0.00  0.00    +0.000 A 
ATOM     24  C   UNL     1      -1.929  10.591  16.861  0.00  0.00    +0.000 A 
ATOM     25  C   UNL     1      -2.479  11.259  17.985  0.00  0.00    +0.000 A 
ATOM     26  C   UNL     1      -1.724  11.626  19.142  0.00  0.00    +0.000 A 
ENDBRANCH  15  26
ENDBRANCH  14  15
ENDBRANCH   1  14
BRANCH   7  27
ATOM     27  C   UNL     1       4.957   4.440  17.624  0.00  0.00    +0.000 C 
BRANCH  27  28
ATOM     28  C   UNL     1       6.383   4.506  18.181  0.00  0.00    +0.000 C 
BRANCH  28  29
ATOM     29  C   UNL     1       7.336   5.022  17.131  0.00  0.00    +0.000 C 
ATOM     30  O   UNL     1       7.716   4.393  16.157  0.00  0.00    +0.000 OA
BRANCH  29  31
ATOM     31  O   UNL     1       7.756   6.283  17.387  0.00  0.00    +0.000 OA
ATOM     32  H   UNL     1       7.624   6.899  16.642  0.00  0.00    +0.000 HD
ENDBRANCH  29  31
ENDBRANCH  28  29
ENDBRANCH  27  28
ENDBRANCH   7  27
TORSDOF 7
ENDMDL
MODEL 4
REMARK VINA RESULT:      -8.5      3.120      4.638
REMARK  Name = 
REMARK  10 active torsions:
REMARK  status: ('A' for Active; 'I' for Inactive)
REMARK    1  A    between atoms: C_1  and  C_2
REMARK    2  A    between atoms: C_11  and  C_12
REMARK    3  A    between atoms: C_12  and  O_13
REMARK    4  A    between atoms: O_13  and  C_14
REMARK    5  A    between atoms: C_18  and  C_19
REMARK    6  A    between atoms: C_20  and  C_21
REMARK    7  A    between atoms: C_21  and  C_22
REMARK    8  A    between atoms: C_22  and  C_23
REMARK    9  A    between atoms: C_23  and  O_25
REMARK   10  A    between atoms: C_30  and  C_31
REMARK                            x       y       z     vdW  Elec       q    Type
REMARK                         _______ _______ _______ _____ _____    ______ ____
ROOT
ATOM      1  C   UNL     1       1.605   7.716  19.873  0.00  0.00    +0.000 A 
ATOM      2  C   UNL     1       1.828   6.515  20.558  0.00  0.00    +0.000 A 
ATOM      3  C   UNL     1       2.744   5.566  20.085  0.00  0.00    +0.000 A 
ATOM      4  C   UNL     1       3.480   5.802  18.921  0.00  0.00    +0.000 A 
ATOM      5  C   UNL     1       4.509   4.893  18.371  0.00  0.00    +0.000 A 
ATOM      6  C   UNL     1       4.705   3.526  18.979  0.00  0.00    +0.000 C 
ATOM      7  C   UNL     1       5.256   5.297  17.317  0.00  0.00    +0.000 A 
ATOM      8  C   UNL     1       5.007   6.597  16.645  0.00  0.00    +0.000 A 
ATOM      9  O   UNL     1       5.701   7.001  15.720  0.00  0.00    +0.000 OA
ATOM     10  O   UNL     1       3.935   7.330  17.085  0.00  0.00    +0.000 OA
ATOM     11  C   UNL     1       3.209   6.994  18.243  0.00  0.00    +0.000 A 
ATOM     12  C   UNL     1       2.249   7.941  18.652  0.00  0.00    +0.000 A 
ATOM     13  C   UNL     1       1.952   9.100  17.736  0.00  0.00    +0.000 C 
ENDROOT
BRANCH   1  14
ATOM     14  O   UNL     1       0.733   8.553  20.517  0.00  0.00    +0.000 OA
BRANCH  14  15
ATOM     15  C   UNL     1       1.298   9.753  21.044  0.00  0.00    +0.000 C 
BRANCH  15  26
ATOM     16  C   UNL     1      -0.294   9.497  23.556  0.00  0.00    +0.000 C 
ATOM     17  C   UNL     1      -0.512  10.634  22.589  0.00  0.00    +0.000 A 
ATOM     18  C   UNL     1      -1.466  11.602  22.903  0.00  0.00    +0.000 A 
ATOM     19  C   UNL     1      -1.673  12.695  22.061  0.00  0.00    +0.000 A 
ATOM     20  C   UNL     1      -0.919  12.865  20.893  0.00  0.00    +0.000 A 
ATOM     21  C   UNL     1      -1.120  13.991  20.075  0.00  0.00    +0.000 A 
ATOM     22  C   UNL     1      -0.358  14.193  18.926  0.00  0.00    +0.000 A 
ATOM     23  C   UNL     1       0.618  13.276  18.577  0.00  0.00    +0.000 A 
ATOM     24  C   UNL     1       0.822  12.152  19.376  0.00  0.00    +0.000 A 
ATOM     25  C   UNL     1       0.056  11.907  20.544  0.00  0.00    +0.000 A 
ATOM     26  C   UNL     1       0.234  10.769  21.390  0.00  0.00    +0.000 A 
ENDBRANCH  15  26
ENDBRANCH  14  15
ENDBRANCH   1  14
BRANCH   7  27
ATOM     27  C   UNL     1       6.346   4.474  16.660  0.00  0.00    +0.000 C 
BRANCH  27  28
ATOM     28  C   UNL     1       5.880   3.680  15.434  0.00  0.00    +0.000 C 
BRANCH  28  29
ATOM     29  C   UNL     1       6.578   4.174  14.190  0.00  0.00    +0.000 C 
ATOM     30  O   UNL     1       6.404   3.735  13.065  0.00  0.00    +0.000 OA
BRANCH  29  31
ATOM     31  O   UNL     1       7.457   5.170  14.451  0.00  0.00    +0.000 OA
ATOM     32  H   UNL     1       7.926   5.067  15.300  0.00  0.00    +0.000 HD
ENDBRANCH  29  31
ENDBRANCH  28  29
ENDBRANCH  27  28
ENDBRANCH   7  27
TORSDOF 7
ENDMDL
MODEL 5
REMARK VINA RESULT:      -8.4      2.213      2.651
REMARK  Name = 
REMARK  10 active torsions:
REMARK  status: ('A' for Active; 'I' for Inactive)
REMARK    1  A    between atoms: C_1  and  C_2
REMARK    2  A    between atoms: C_11  and  C_12
REMARK    3  A    between atoms: C_12  and  O_13
REMARK    4  A    between atoms: O_13  and  C_14
REMARK    5  A    between atoms: C_18  and  C_19
REMARK    6  A    between atoms: C_20  and  C_21
REMARK    7  A    between atoms: C_21  and  C_22
REMARK    8  A    between atoms: C_22  and  C_23
REMARK    9  A    between atoms: C_23  and  O_25
REMARK   10  A    between atoms: C_30  and  C_31
REMARK                            x       y       z     vdW  Elec       q    Type
REMARK                         _______ _______ _______ _____ _____    ______ ____
ROOT
ATOM      1  C   UNL     1       1.115   8.877  19.390  0.00  0.00    +0.000 A 
ATOM      2  C   UNL     1       1.654   9.334  18.181  0.00  0.00    +0.000 A 
ATOM      3  C   UNL     1       2.677   8.632  17.528  0.00  0.00    +0.000 A 
ATOM      4  C   UNL     1       3.176   7.439  18.059  0.00  0.00    +0.000 A 
ATOM      5  C   UNL     1       4.210   6.596  17.422  0.00  0.00    +0.000 A 
ATOM      6  C   UNL     1       4.929   7.093  16.192  0.00  0.00    +0.000 C 
ATOM      7  C   UNL     1       4.509   5.391  17.961  0.00  0.00    +0.000 A 
ATOM      8  C   UNL     1       3.883   4.934  19.227  0.00  0.00    +0.000 A 
ATOM      9  O   UNL     1       4.104   3.828  19.705  0.00  0.00    +0.000 OA
ATOM     10  O   UNL     1       3.056   5.819  19.869  0.00  0.00    +0.000 OA
ATOM     11  C   UNL     1       2.641   7.030  19.284  0.00  0.00    +0.000 A 
ATOM     12  C   UNL     1       1.659   7.743  20.001  0.00  0.00    +0.000 A 
ATOM     13  C   UNL     1       1.294   7.265  21.383  0.00  0.00    +0.000 C 
ENDROOT
BRANCH   1  14
ATOM     14  O   UNL     1       0.078   9.647  19.844  0.00  0.00    +0.000 OA
BRANCH  14  15
ATOM     15  C   UNL     1      -0.070  10.922  19.220  0.00  0.00    +0.000 C 
BRANCH  15  26
ATOM     16  C   UNL     1      -1.198  12.608  21.410  0.00  0.00    +0.000 C 
ATOM     17  C   UNL     1      -2.033  12.170  20.233  0.00  0.00    +0.000 A 
ATOM     18  C   UNL     1      -3.360  12.594  20.162  0.00  0.00    +0.000 A 
ATOM     19  C   UNL     1      -4.159  12.250  19.072  0.00  0.00    +0.000 A 
ATOM     20  C   UNL     1      -3.652  11.491  18.011  0.00  0.00    +0.000 A 
ATOM     21  C   UNL     1      -4.464  11.183  16.905  0.00  0.00    +0.000 A 
ATOM     22  C   UNL     1      -3.968  10.456  15.825  0.00  0.00    +0.000 A 
ATOM     23  C   UNL     1      -2.652  10.027  15.831  0.00  0.00    +0.000 A 
ATOM     24  C   UNL     1      -1.838  10.319  16.925  0.00  0.00    +0.000 A 
ATOM     25  C   UNL     1      -2.314  11.045  18.047  0.00  0.00    +0.000 A 
ATOM     26  C   UNL     1      -1.513  11.367  19.186  0.00  0.00    +0.000 A 
ENDBRANCH  15  26
ENDBRANCH  14  15
ENDBRANCH   1  14
BRANCH   7  27
ATOM     27  C   UNL     1       5.538   4.425  17.409  0.00  0.00    +0.000 C 
BRANCH  27  28
ATOM     28  C   UNL     1       5.225   3.912  16.000  0.00  0.00    +0.000 C 
BRANCH  28  29
ATOM     29  C   UNL     1       6.433   4.055  15.106  0.00  0.00    +0.000 C 
ATOM     30  O   UNL     1       7.450   4.666  15.390  0.00  0.00    +0.000 OA
BRANCH  29  31
ATOM     31  O   UNL     1       6.272   3.434  13.914  0.00  0.00    +0.000 OA
ATOM     32  H   UNL     1       6.655   3.924  13.162  0.00  0.00    +0.000 HD
ENDBRANCH  29  31
ENDBRANCH  28  29
ENDBRANCH  27  28
ENDBRANCH   7  27
TORSDOF 7
ENDMDL
MODEL 6
REMARK VINA RESULT:      -8.4      2.375      8.967
REMARK  Name = 
REMARK  10 active torsions:
REMARK  status: ('A' for Active; 'I' for Inactive)
REMARK    1  A    between atoms: C_1  and  C_2
REMARK    2  A    between atoms: C_11  and  C_12
REMARK    3  A    between atoms: C_12  and  O_13
REMARK    4  A    between atoms: O_13  and  C_14
REMARK    5  A    between atoms: C_18  and  C_19
REMARK    6  A    between atoms: C_20  and  C_21
REMARK    7  A    between atoms: C_21  and  C_22
REMARK    8  A    between atoms: C_22  and  C_23
REMARK    9  A    between atoms: C_23  and  O_25
REMARK   10  A    between atoms: C_30  and  C_31
REMARK                            x       y       z     vdW  Elec       q    Type
REMARK                         _______ _______ _______ _____ _____    ______ ____
ROOT
ATOM      1  C   UNL     1       1.510   8.811  19.216  0.00  0.00    +0.000 A 
ATOM      2  C   UNL     1       0.859   9.374  18.111  0.00  0.00    +0.000 A 
ATOM      3  C   UNL     1      -0.173  10.309  18.272  0.00  0.00    +0.000 A 
ATOM      4  C   UNL     1      -0.569  10.723  19.546  0.00  0.00    +0.000 A 
ATOM      5  C   UNL     1      -1.603  11.743  19.822  0.00  0.00    +0.000 A 
ATOM      6  C   UNL     1      -2.437  12.291  18.689  0.00  0.00    +0.000 C 
ATOM      7  C   UNL     1      -1.799  12.164  21.093  0.00  0.00    +0.000 A 
ATOM      8  C   UNL     1      -1.058  11.561  22.230  0.00  0.00    +0.000 A 
ATOM      9  O   UNL     1      -1.186  11.960  23.381  0.00  0.00    +0.000 OA
ATOM     10  O   UNL     1      -0.231  10.505  21.945  0.00  0.00    +0.000 OA
ATOM     11  C   UNL     1       0.077  10.117  20.627  0.00  0.00    +0.000 A 
ATOM     12  C   UNL     1       1.071   9.125  20.506  0.00  0.00    +0.000 A 
ATOM     13  C   UNL     1       1.563   8.447  21.759  0.00  0.00    +0.000 C 
ENDROOT
BRANCH   1  14
ATOM     14  O   UNL     1       2.537   7.974  18.869  0.00  0.00    +0.000 OA
BRANCH  14  15
ATOM     15  C   UNL     1       2.185   6.869  18.037  0.00  0.00    +0.000 C 
BRANCH  15  26
ATOM     16  C   UNL     1       4.772   6.655  16.564  0.00  0.00    +0.000 C 
ATOM     17  C   UNL     1       4.329   5.603  17.550  0.00  0.00    +0.000 A 
ATOM     18  C   UNL     1       5.173   4.518  17.792  0.00  0.00    +0.000 A 
ATOM     19  C   UNL     1       4.826   3.543  18.725  0.00  0.00    +0.000 A 
ATOM     20  C   UNL     1       3.637   3.631  19.460  0.00  0.00    +0.000 A 
ATOM     21  C   UNL     1       3.321   2.654  20.422  0.00  0.00    +0.000 A 
ATOM     22  C   UNL     1       2.158   2.742  21.185  0.00  0.00    +0.000 A 
ATOM     23  C   UNL     1       1.294   3.807  21.002  0.00  0.00    +0.000 A 
ATOM     24  C   UNL     1       1.592   4.779  20.047  0.00  0.00    +0.000 A 
ATOM     25  C   UNL     1       2.759   4.714  19.243  0.00  0.00    +0.000 A 
ATOM     26  C   UNL     1       3.102   5.688  18.256  0.00  0.00    +0.000 A 
ENDBRANCH  15  26
ENDBRANCH  14  15
ENDBRANCH   1  14
BRANCH   7  27
ATOM     27  C   UNL     1      -2.816  13.205  21.516  0.00  0.00    +0.000 C 
BRANCH  27  28
ATOM     28  C   UNL     1      -4.197  12.633  21.851  0.00  0.00    +0.000 C 
BRANCH  28  29
ATOM     29  C   UNL     1      -4.546  12.907  23.294  0.00  0.00    +0.000 C 
ATOM     30  O   UNL     1      -5.178  13.870  23.694  0.00  0.00    +0.000 OA
BRANCH  29  31
ATOM     31  O   UNL     1      -4.062  11.960  24.132  0.00  0.00    +0.000 OA
ATOM     32  H   UNL     1      -4.738  11.329  24.443  0.00  0.00    +0.000 HD
ENDBRANCH  29  31
ENDBRANCH  28  29
ENDBRANCH  27  28
ENDBRANCH   7  27
TORSDOF 7
ENDMDL
MODEL 7
REMARK VINA RESULT:      -8.4      0.935      1.186
REMARK  Name = 
REMARK  10 active torsions:
REMARK  status: ('A' for Active; 'I' for Inactive)
REMARK    1  A    between atoms: C_1  and  C_2
REMARK    2  A    between atoms: C_11  and  C_12
REMARK    3  A    between atoms: C_12  and  O_13
REMARK    4  A    between atoms: O_13  and  C_14
REMARK    5  A    between atoms: C_18  and  C_19
REMARK    6  A    between atoms: C_20  and  C_21
REMARK    7  A    between atoms: C_21  and  C_22
REMARK    8  A    between atoms: C_22  and  C_23
REMARK    9  A    between atoms: C_23  and  O_25
REMARK   10  A    between atoms: C_30  and  C_31
REMARK                            x       y       z     vdW  Elec       q    Type
REMARK                         _______ _______ _______ _____ _____    ______ ____
ROOT
ATOM      1  C   UNL     1       0.723  10.257  20.066  0.00  0.00    +0.000 A 
ATOM      2  C   UNL     1       1.360  10.379  18.825  0.00  0.00    +0.000 A 
ATOM      3  C   UNL     1       2.059   9.306  18.257  0.00  0.00    +0.000 A 
ATOM      4  C   UNL     1       2.123   8.070  18.906  0.00  0.00    +0.000 A 
ATOM      5  C   UNL     1       2.784   6.863  18.367  0.00  0.00    +0.000 A 
ATOM      6  C   UNL     1       3.604   6.958  17.103  0.00  0.00    +0.000 C 
ATOM      7  C   UNL     1       2.656   5.687  19.023  0.00  0.00    +0.000 A 
ATOM      8  C   UNL     1       1.939   5.598  20.320  0.00  0.00    +0.000 A 
ATOM      9  O   UNL     1       1.771   4.536  20.906  0.00  0.00    +0.000 OA
ATOM     10  O   UNL     1       1.487   6.773  20.863  0.00  0.00    +0.000 OA
ATOM     11  C   UNL     1       1.506   7.992  20.158  0.00  0.00    +0.000 A 
ATOM     12  C   UNL     1       0.851   9.067  20.791  0.00  0.00    +0.000 A 
ATOM     13  C   UNL     1       0.373   8.881  22.208  0.00  0.00    +0.000 C 
ENDROOT
BRANCH   1  14
ATOM     14  O   UNL     1       0.029  11.380  20.431  0.00  0.00    +0.000 OA
BRANCH  14  15
ATOM     15  C   UNL     1      -0.469  12.178  19.359  0.00  0.00    +0.000 C 
BRANCH  15  26
ATOM     16  C   UNL     1      -2.091  13.423  21.534  0.00  0.00    +0.000 C 
ATOM     17  C   UNL     1      -2.735  12.760  20.342  0.00  0.00    +0.000 A 
ATOM     18  C   UNL     1      -4.127  12.760  20.250  0.00  0.00    +0.000 A 
ATOM     19  C   UNL     1      -4.767  12.197  19.147  0.00  0.00    +0.000 A 
ATOM     20  C   UNL     1      -4.036  11.636  18.092  0.00  0.00    +0.000 A 
ATOM     21  C   UNL     1      -4.699  11.104  16.971  0.00  0.00    +0.000 A 
ATOM     22  C   UNL     1      -3.988  10.571  15.898  0.00  0.00    +0.000 A 
ATOM     23  C   UNL     1      -2.604  10.564  15.925  0.00  0.00    +0.000 A 
ATOM     24  C   UNL     1      -1.935  11.082  17.033  0.00  0.00    +0.000 A 
ATOM     25  C   UNL     1      -2.626  11.620  18.148  0.00  0.00    +0.000 A 
ATOM     26  C   UNL     1      -1.979  12.161  19.302  0.00  0.00    +0.000 A 
ENDBRANCH  15  26
ENDBRANCH  14  15
ENDBRANCH   1  14
BRANCH   7  27
ATOM     27  C   UNL     1       3.272   4.374  18.581  0.00  0.00    +0.000 C 
BRANCH  27  28
ATOM     28  C   UNL     1       4.533   3.979  19.357  0.00  0.00    +0.000 C 
BRANCH  28  29
ATOM     29  C   UNL     1       4.542   2.494  19.628  0.00  0.00    +0.000 C 
ATOM     30  O   UNL     1       4.989   1.965  20.631  0.00  0.00    +0.000 OA
BRANCH  29  31
ATOM     31  O   UNL     1       4.005   1.780  18.611  0.00  0.00    +0.000 OA
ATOM     32  H   UNL     1       3.769   2.320  17.833  0.00  0.00    +0.000 HD
ENDBRANCH  29  31
ENDBRANCH  28  29
ENDBRANCH  27  28
ENDBRANCH   7  27
TORSDOF 7
ENDMDL
MODEL 8
REMARK VINA RESULT:      -8.3      2.138      3.446
REMARK  Name = 
REMARK  10 active torsions:
REMARK  status: ('A' for Active; 'I' for Inactive)
REMARK    1  A    between atoms: C_1  and  C_2
REMARK    2  A    between atoms: C_11  and  C_12
REMARK    3  A    between atoms: C_12  and  O_13
REMARK    4  A    between atoms: O_13  and  C_14
REMARK    5  A    between atoms: C_18  and  C_19
REMARK    6  A    between atoms: C_20  and  C_21
REMARK    7  A    between atoms: C_21  and  C_22
REMARK    8  A    between atoms: C_22  and  C_23
REMARK    9  A    between atoms: C_23  and  O_25
REMARK   10  A    between atoms: C_30  and  C_31
REMARK                            x       y       z     vdW  Elec       q    Type
REMARK                         _______ _______ _______ _____ _____    ______ ____
ROOT
ATOM      1  C   UNL     1       0.916   9.526  19.362  0.00  0.00    +0.000 A 
ATOM      2  C   UNL     1       1.520   9.820  18.133  0.00  0.00    +0.000 A 
ATOM      3  C   UNL     1       2.466   8.959  17.561  0.00  0.00    +0.000 A 
ATOM      4  C   UNL     1       2.820   7.765  18.195  0.00  0.00    +0.000 A 
ATOM      5  C   UNL     1       3.762   6.764  17.651  0.00  0.00    +0.000 A 
ATOM      6  C   UNL     1       4.548   7.076  16.401  0.00  0.00    +0.000 C 
ATOM      7  C   UNL     1       3.916   5.581  18.290  0.00  0.00    +0.000 A 
ATOM      8  C   UNL     1       3.225   5.300  19.574  0.00  0.00    +0.000 A 
ATOM      9  O   UNL     1       3.314   4.218  20.143  0.00  0.00    +0.000 OA
ATOM     10  O   UNL     1       2.494   6.320  20.124  0.00  0.00    +0.000 OA
ATOM     11  C   UNL     1       2.226   7.519  19.436  0.00  0.00    +0.000 A 
ATOM     12  C   UNL     1       1.321   8.392  20.073  0.00  0.00    +0.000 A 
ATOM     13  C   UNL     1       0.886   8.072  21.479  0.00  0.00    +0.000 C 
ENDROOT
BRANCH   1  14
ATOM     14  O   UNL     1      -0.034  10.441  19.730  0.00  0.00    +0.000 OA
BRANCH  14  15
ATOM     15  C   UNL     1      -0.447  11.352  18.713  0.00  0.00    +0.000 C 
BRANCH  15  26
ATOM     16  C   UNL     1      -1.939   9.716  16.711  0.00  0.00    +0.000 C 
ATOM     17  C   UNL     1      -2.647  10.652  17.659  0.00  0.00    +0.000 A 
ATOM     18  C   UNL     1      -4.039  10.725  17.609  0.00  0.00    +0.000 A 
ATOM     19  C   UNL     1      -4.740  11.544  18.493  0.00  0.00    +0.000 A 
ATOM     20  C   UNL     1      -4.074  12.297  19.468  0.00  0.00    +0.000 A 
ATOM     21  C   UNL     1      -4.802  13.091  20.373  0.00  0.00    +0.000 A 
ATOM     22  C   UNL     1      -4.159  13.823  21.370  0.00  0.00    +0.000 A 
ATOM     23  C   UNL     1      -2.781  13.771  21.480  0.00  0.00    +0.000 A 
ATOM     24  C   UNL     1      -2.047  12.994  20.585  0.00  0.00    +0.000 A 
ATOM     25  C   UNL     1      -2.666  12.248  19.550  0.00  0.00    +0.000 A 
ATOM     26  C   UNL     1      -1.952  11.438  18.614  0.00  0.00    +0.000 A 
ENDBRANCH  15  26
ENDBRANCH  14  15
ENDBRANCH   1  14
BRANCH   7  27
ATOM     27  C   UNL     1       4.837   4.465  17.840  0.00  0.00    +0.000 C 
BRANCH  27  28
ATOM     28  C   UNL     1       6.196   4.449  18.548  0.00  0.00    +0.000 C 
BRANCH  28  29
ATOM     29  C   UNL     1       7.265   5.023  17.651  0.00  0.00    +0.000 C 
ATOM     30  O   UNL     1       7.776   4.444  16.706  0.00  0.00    +0.000 OA
BRANCH  29  31
ATOM     31  O   UNL     1       7.629   6.275  18.014  0.00  0.00    +0.000 OA
ATOM     32  H   UNL     1       7.341   6.522  18.914  0.00  0.00    +0.000 HD
ENDBRANCH  29  31
ENDBRANCH  28  29
ENDBRANCH  27  28
ENDBRANCH   7  27
TORSDOF 7
ENDMDL
MODEL 9
REMARK VINA RESULT:      -8.2      2.980      9.049
REMARK  Name = 
REMARK  10 active torsions:
REMARK  status: ('A' for Active; 'I' for Inactive)
REMARK    1  A    between atoms: C_1  and  C_2
REMARK    2  A    between atoms: C_11  and  C_12
REMARK    3  A    between atoms: C_12  and  O_13
REMARK    4  A    between atoms: O_13  and  C_14
REMARK    5  A    between atoms: C_18  and  C_19
REMARK    6  A    between atoms: C_20  and  C_21
REMARK    7  A    between atoms: C_21  and  C_22
REMARK    8  A    between atoms: C_22  and  C_23
REMARK    9  A    between atoms: C_23  and  O_25
REMARK   10  A    between atoms: C_30  and  C_31
REMARK                            x       y       z     vdW  Elec       q    Type
REMARK                         _______ _______ _______ _____ _____    ______ ____
ROOT
ATOM      1  C   UNL     1       1.762   8.576  19.134  0.00  0.00    +0.000 A 
ATOM      2  C   UNL     1       1.410   7.952  20.337  0.00  0.00    +0.000 A 
ATOM      3  C   UNL     1       0.691   8.634  21.328  0.00  0.00    +0.000 A 
ATOM      4  C   UNL     1       0.286   9.957  21.134  0.00  0.00    +0.000 A 
ATOM      5  C   UNL     1      -0.521  10.744  22.091  0.00  0.00    +0.000 A 
ATOM      6  C   UNL     1      -0.821  10.184  23.459  0.00  0.00    +0.000 C 
ATOM      7  C   UNL     1      -0.972  11.968  21.729  0.00  0.00    +0.000 A 
ATOM      8  C   UNL     1      -0.601  12.575  20.426  0.00  0.00    +0.000 A 
ATOM      9  O   UNL     1      -1.037  13.660  20.060  0.00  0.00    +0.000 OA
ATOM     10  O   UNL     1       0.284  11.878  19.644  0.00  0.00    +0.000 OA
ATOM     11  C   UNL     1       0.684  10.561  19.939  0.00  0.00    +0.000 A 
ATOM     12  C   UNL     1       1.462   9.929  18.948  0.00  0.00    +0.000 A 
ATOM     13  C   UNL     1       1.951  10.755  17.785  0.00  0.00    +0.000 C 
ENDROOT
BRANCH   1  14
ATOM     14  O   UNL     1       2.397   7.738  18.256  0.00  0.00    +0.000 OA
BRANCH  14  15
ATOM     15  C   UNL     1       3.433   6.928  18.808  0.00  0.00    +0.000 C 
BRANCH  15  26
ATOM     16  C   UNL     1       5.609   6.723  16.775  0.00  0.00    +0.000 C 
ATOM     17  C   UNL     1       4.673   5.573  17.057  0.00  0.00    +0.000 A 
ATOM     18  C   UNL     1       4.857   4.378  16.362  0.00  0.00    +0.000 A 
ATOM     19  C   UNL     1       4.044   3.274  16.619  0.00  0.00    +0.000 A 
ATOM     20  C   UNL     1       3.037   3.324  17.592  0.00  0.00    +0.000 A 
ATOM     21  C   UNL     1       2.250   2.190  17.859  0.00  0.00    +0.000 A 
ATOM     22  C   UNL     1       1.265   2.211  18.845  0.00  0.00    +0.000 A 
ATOM     23  C   UNL     1       1.053   3.364  19.580  0.00  0.00    +0.000 A 
ATOM     24  C   UNL     1       1.821   4.498  19.319  0.00  0.00    +0.000 A 
ATOM     25  C   UNL     1       2.822   4.517  18.315  0.00  0.00    +0.000 A 
ATOM     26  C   UNL     1       3.632   5.656  18.018  0.00  0.00    +0.000 A 
ENDBRANCH  15  26
ENDBRANCH  14  15
ENDBRANCH   1  14
BRANCH   7  27
ATOM     27  C   UNL     1      -1.813  12.877  22.603  0.00  0.00    +0.000 C 
BRANCH  27  28
ATOM     28  C   UNL     1      -3.309  12.546  22.594  0.00  0.00    +0.000 C 
BRANCH  28  29
ATOM     29  C   UNL     1      -3.887  12.676  23.982  0.00  0.00    +0.000 C 
ATOM     30  O   UNL     1      -4.588  11.844  24.533  0.00  0.00    +0.000 OA
BRANCH  29  31
ATOM     31  O   UNL     1      -3.556  13.848  24.573  0.00  0.00    +0.000 OA
ATOM     32  H   UNL     1      -3.061  13.741  25.407  0.00  0.00    +0.000 HD
ENDBRANCH  29  31
ENDBRANCH  28  29
ENDBRANCH  27  28
ENDBRANCH   7  27
TORSDOF 7
ENDMDL
