MODEL 1
REMARK VINA RESULT:      -7.8      0.000      0.000
REMARK  Name = 
REMARK  7 active torsions:
REMARK  status: ('A' for Active; 'I' for Inactive)
REMARK    1  A    between atoms: C_2  and  C_20
REMARK    2  A    between atoms: N_3  and  C_4
REMARK    3  A    between atoms: C_8  and  C_9
REMARK    4  A    between atoms: N_11  and  C_12
REMARK    5  A    between atoms: C_12  and  C_13
REMARK    6  A    between atoms: C_13  and  C_14
REMARK    7  A    between atoms: C_14  and  O_15
REMARK                            x       y       z     vdW  Elec       q    Type
REMARK                         _______ _______ _______ _____ _____    ______ ____
ROOT
ATOM      1  C   UNL     1       4.017   4.003  17.234  0.00  0.00    +0.000 A 
ATOM      2  S   UNL     1       3.611   2.444  17.766  0.00  0.00    +0.000 S 
ATOM      3  C   UNL     1       2.829   3.063  19.137  0.00  0.00    +0.000 A 
ATOM      4  C   UNL     1       2.853   4.446  19.194  0.00  0.00    +0.000 A 
ATOM      5  C   UNL     1       3.549   5.016  18.051  0.00  0.00    +0.000 A 
ATOM      6  C   UNL     1       2.214   5.178  20.348  0.00  0.00    +0.000 C 
ATOM      7  C   UNL     1       1.981   4.254  21.560  0.00  0.00    +0.000 C 
ATOM      8  C   UNL     1       1.352   2.917  21.147  0.00  0.00    +0.000 C 
ATOM      9  C   UNL     1       2.251   2.147  20.172  0.00  0.00    +0.000 C 
ENDROOT
BRANCH   1  12
ATOM     10  O   UNL     1       6.795   4.200  16.740  0.00  0.00    +0.000 OA
ATOM     11  C   UNL     1       5.973   4.156  15.832  0.00  0.00    +0.000 C 
ATOM     12  N   UNL     1       4.600   4.069  15.986  0.00  0.00    +0.000 N 
ATOM     13  H   UNL     1       3.985   4.047  15.184  0.00  0.00    +0.000 HD
BRANCH  11  14
ATOM     14  C   UNL     1       6.439   4.270  14.423  0.00  0.00    +0.000 A 
ATOM     15  C   UNL     1       7.455   5.175  14.107  0.00  0.00    +0.000 A 
ATOM     16  C   UNL     1       7.902   5.281  12.789  0.00  0.00    +0.000 A 
ATOM     17  C   UNL     1       7.325   4.509  11.782  0.00  0.00    +0.000 A 
ATOM     18  C   UNL     1       6.289   3.627  12.086  0.00  0.00    +0.000 A 
ATOM     19  C   UNL     1       5.855   3.511  13.404  0.00  0.00    +0.000 A 
ENDBRANCH  11  14
ENDBRANCH   1  12
BRANCH   5  20
ATOM     20  C   UNL     1       3.754   6.451  17.792  0.00  0.00    +0.000 C 
ATOM     21  O   UNL     1       4.834   6.902  17.443  0.00  0.00    +0.000 OA
ATOM     22  N   UNL     1       2.633   7.242  17.978  0.00  0.00    +0.000 N 
ATOM     23  H   UNL     1       1.750   6.765  18.099  0.00  0.00    +0.000 HD
BRANCH  22  24
ATOM     24  C   UNL     1       2.633   8.684  17.807  0.00  0.00    +0.000 C 
BRANCH  24  25
ATOM     25  C   UNL     1       1.233   9.284  17.919  0.00  0.00    +0.000 C 
BRANCH  25  26
ATOM     26  C   UNL     1       0.886   9.691  19.345  0.00  0.00    +0.000 C 
BRANCH  26  27
ATOM     27  O   UNL     1       1.338   8.688  20.248  0.00  0.00    +0.000 OA
ATOM     28  H   UNL     1       1.703   9.141  21.027  0.00  0.00    +0.000 HD
ENDBRANCH  26  27
ENDBRANCH  25  26
ENDBRANCH  24  25
ENDBRANCH  22  24
ENDBRANCH   5  20
TORSDOF 7
ENDMDL
MODEL 2
REMARK VINA RESULT:      -7.8      1.826      3.012
REMARK  Name = 
REMARK  7 active torsions:
REMARK  status: ('A' for Active; 'I' for Inactive)
REMARK    1  A    between atoms: C_2  and  C_20
REMARK    2  A    between atoms: N_3  and  C_4
REMARK    3  A    between atoms: C_8  and  C_9
REMARK    4  A    between atoms: N_11  and  C_12
REMARK    5  A    between atoms: C_12  and  C_13
REMARK    6  A    between atoms: C_13  and  C_14
REMARK    7  A    between atoms: C_14  and  O_15
REMARK                            x       y       z     vdW  Elec       q    Type
REMARK                         _______ _______ _______ _____ _____    ______ ____
ROOT
ATOM      1  C   UNL     1       3.901   3.913  16.997  0.00  0.00    +0.000 A 
ATOM      2  S   UNL     1       3.019   2.498  17.312  0.00  0.00    +0.000 S 
ATOM      3  C   UNL     1       2.457   3.118  18.787  0.00  0.00    +0.000 A 
ATOM      4  C   UNL     1       2.915   4.400  19.043  0.00  0.00    +0.000 A 
ATOM      5  C   UNL     1       3.766   4.888  17.969  0.00  0.00    +0.000 A 
ATOM      6  C   UNL     1       2.526   5.114  20.313  0.00  0.00    +0.000 C 
ATOM      7  C   UNL     1       2.002   4.139  21.387  0.00  0.00    +0.000 C 
ATOM      8  C   UNL     1       0.989   3.142  20.808  0.00  0.00    +0.000 C 
ATOM      9  C   UNL     1       1.610   2.285  19.699  0.00  0.00    +0.000 C 
ENDROOT
BRANCH   1  12
ATOM     10  O   UNL     1       6.686   3.927  16.505  0.00  0.00    +0.000 OA
ATOM     11  C   UNL     1       5.863   3.972  15.598  0.00  0.00    +0.000 C 
ATOM     12  N   UNL     1       4.488   3.979  15.751  0.00  0.00    +0.000 N 
ATOM     13  H   UNL     1       3.873   4.028  14.950  0.00  0.00    +0.000 HD
BRANCH  11  14
ATOM     14  C   UNL     1       6.337   4.101  14.193  0.00  0.00    +0.000 A 
ATOM     15  C   UNL     1       5.793   3.276  13.206  0.00  0.00    +0.000 A 
ATOM     16  C   UNL     1       6.227   3.397  11.885  0.00  0.00    +0.000 A 
ATOM     17  C   UNL     1       7.217   4.319  11.548  0.00  0.00    +0.000 A 
ATOM     18  C   UNL     1       7.785   5.125  12.534  0.00  0.00    +0.000 A 
ATOM     19  C   UNL     1       7.340   5.013  13.848  0.00  0.00    +0.000 A 
ENDBRANCH  11  14
ENDBRANCH   1  12
BRANCH   5  20
ATOM     20  C   UNL     1       4.415   6.209  17.913  0.00  0.00    +0.000 C 
ATOM     21  O   UNL     1       3.776   7.246  17.831  0.00  0.00    +0.000 OA
ATOM     22  N   UNL     1       5.798   6.179  17.956  0.00  0.00    +0.000 N 
ATOM     23  H   UNL     1       6.231   5.297  18.195  0.00  0.00    +0.000 HD
BRANCH  22  24
ATOM     24  C   UNL     1       6.628   7.368  17.880  0.00  0.00    +0.000 C 
BRANCH  24  25
ATOM     25  C   UNL     1       8.020   7.147  18.469  0.00  0.00    +0.000 C 
BRANCH  25  26
ATOM     26  C   UNL     1       8.205   5.735  19.011  0.00  0.00    +0.000 C 
BRANCH  26  27
ATOM     27  O   UNL     1       7.690   5.665  20.336  0.00  0.00    +0.000 OA
ATOM     28  H   UNL     1       6.746   5.896  20.293  0.00  0.00    +0.000 HD
ENDBRANCH  26  27
ENDBRANCH  25  26
ENDBRANCH  24  25
ENDBRANCH  22  24
ENDBRANCH   5  20
TORSDOF 7
ENDMDL
MODEL 3
REMARK VINA RESULT:      -7.8      0.846      1.283
REMARK  Name = 
REMARK  7 active torsions:
REMARK  status: ('A' for Active; 'I' for Inactive)
REMARK    1  A    between atoms: C_2  and  C_20
REMARK    2  A    between atoms: N_3  and  C_4
REMARK    3  A    between atoms: C_8  and  C_9
REMARK    4  A    between atoms: N_11  and  C_12
REMARK    5  A    between atoms: C_12  and  C_13
REMARK    6  A    between atoms: C_13  and  C_14
REMARK    7  A    between atoms: C_14  and  O_15
REMARK                            x       y       z     vdW  Elec       q    Type
REMARK                         _______ _______ _______ _____ _____    ______ ____
ROOT
ATOM      1  C   UNL     1       4.033   3.995  17.252  0.00  0.00    +0.000 A 
ATOM      2  S   UNL     1       3.680   2.428  17.802  0.00  0.00    +0.000 S 
ATOM      3  C   UNL     1       2.877   3.036  19.166  0.00  0.00    +0.000 A 
ATOM      4  C   UNL     1       2.853   4.420  19.206  0.00  0.00    +0.000 A 
ATOM      5  C   UNL     1       3.529   5.000  18.057  0.00  0.00    +0.000 A 
ATOM      6  C   UNL     1       2.189   5.143  20.351  0.00  0.00    +0.000 C 
ATOM      7  C   UNL     1       1.987   4.226  21.575  0.00  0.00    +0.000 C 
ATOM      8  C   UNL     1       1.405   2.863  21.177  0.00  0.00    +0.000 C 
ATOM      9  C   UNL     1       2.330   2.114  20.211  0.00  0.00    +0.000 C 
ENDROOT
BRANCH   1  12
ATOM     10  O   UNL     1       6.803   4.271  16.755  0.00  0.00    +0.000 OA
ATOM     11  C   UNL     1       5.983   4.192  15.848  0.00  0.00    +0.000 C 
ATOM     12  N   UNL     1       4.614   4.065  16.003  0.00  0.00    +0.000 N 
ATOM     13  H   UNL     1       3.999   4.016  15.201  0.00  0.00    +0.000 HD
BRANCH  11  14
ATOM     14  C   UNL     1       6.445   4.307  14.438  0.00  0.00    +0.000 A 
ATOM     15  C   UNL     1       5.862   3.503  13.456  0.00  0.00    +0.000 A 
ATOM     16  C   UNL     1       6.285   3.612  12.131  0.00  0.00    +0.000 A 
ATOM     17  C   UNL     1       7.303   4.500  11.784  0.00  0.00    +0.000 A 
ATOM     18  C   UNL     1       7.909   5.283  12.765  0.00  0.00    +0.000 A 
ATOM     19  C   UNL     1       7.475   5.184  14.084  0.00  0.00    +0.000 A 
ENDBRANCH  11  14
ENDBRANCH   1  12
BRANCH   5  20
ATOM     20  C   UNL     1       3.685   6.438  17.780  0.00  0.00    +0.000 C 
ATOM     21  O   UNL     1       4.748   6.922  17.426  0.00  0.00    +0.000 OA
ATOM     22  N   UNL     1       2.537   7.192  17.957  0.00  0.00    +0.000 N 
ATOM     23  H   UNL     1       1.671   6.686  18.084  0.00  0.00    +0.000 HD
BRANCH  22  24
ATOM     24  C   UNL     1       2.487   8.631  17.769  0.00  0.00    +0.000 C 
BRANCH  24  25
ATOM     25  C   UNL     1       1.382   9.288  18.593  0.00  0.00    +0.000 C 
BRANCH  25  26
ATOM     26  C   UNL     1       1.427  10.810  18.520  0.00  0.00    +0.000 C 
BRANCH  26  27
ATOM     27  O   UNL     1       2.272  11.207  17.445  0.00  0.00    +0.000 OA
ATOM     28  H   UNL     1       1.911  12.034  17.083  0.00  0.00    +0.000 HD
ENDBRANCH  26  27
ENDBRANCH  25  26
ENDBRANCH  24  25
ENDBRANCH  22  24
ENDBRANCH   5  20
TORSDOF 7
ENDMDL
MODEL 4
REMARK VINA RESULT:      -7.7      1.717      2.738
REMARK  Name = 
REMARK  7 active torsions:
REMARK  status: ('A' for Active; 'I' for Inactive)
REMARK    1  A    between atoms: C_2  and  C_20
REMARK    2  A    between atoms: N_3  and  C_4
REMARK    3  A    between atoms: C_8  and  C_9
REMARK    4  A    between atoms: N_11  and  C_12
REMARK    5  A    between atoms: C_12  and  C_13
REMARK    6  A    between atoms: C_13  and  C_14
REMARK    7  A    between atoms: C_14  and  O_15
REMARK                            x       y       z     vdW  Elec       q    Type
REMARK                         _______ _______ _______ _____ _____    ______ ____
ROOT
ATOM      1  C   UNL     1       3.978   3.911  17.099  0.00  0.00    +0.000 A 
ATOM      2  S   UNL     1       3.305   2.410  17.514  0.00  0.00    +0.000 S 
ATOM      3  C   UNL     1       2.647   3.044  18.941  0.00  0.00    +0.000 A 
ATOM      4  C   UNL     1       2.913   4.394  19.106  0.00  0.00    +0.000 A 
ATOM      5  C   UNL     1       3.696   4.922  18.000  0.00  0.00    +0.000 A 
ATOM      6  C   UNL     1       2.414   5.132  20.322  0.00  0.00    +0.000 C 
ATOM      7  C   UNL     1       2.025   4.169  21.463  0.00  0.00    +0.000 C 
ATOM      8  C   UNL     1       1.170   3.000  20.956  0.00  0.00    +0.000 C 
ATOM      9  C   UNL     1       1.918   2.165  19.910  0.00  0.00    +0.000 C 
ENDROOT
BRANCH   1  12
ATOM     10  O   UNL     1       6.758   4.075  16.604  0.00  0.00    +0.000 OA
ATOM     11  C   UNL     1       5.935   4.043  15.697  0.00  0.00    +0.000 C 
ATOM     12  N   UNL     1       4.561   3.973  15.851  0.00  0.00    +0.000 N 
ATOM     13  H   UNL     1       3.946   3.960  15.049  0.00  0.00    +0.000 HD
BRANCH  11  14
ATOM     14  C   UNL     1       6.402   4.156  14.288  0.00  0.00    +0.000 A 
ATOM     15  C   UNL     1       7.394   5.085  13.965  0.00  0.00    +0.000 A 
ATOM     16  C   UNL     1       7.842   5.189  12.648  0.00  0.00    +0.000 A 
ATOM     17  C   UNL     1       7.289   4.391  11.647  0.00  0.00    +0.000 A 
ATOM     18  C   UNL     1       6.278   3.483  11.958  0.00  0.00    +0.000 A 
ATOM     19  C   UNL     1       5.843   3.369  13.276  0.00  0.00    +0.000 A 
ENDBRANCH  11  14
ENDBRANCH   1  12
BRANCH   5  20
ATOM     20  C   UNL     1       4.150   6.315  17.850  0.00  0.00    +0.000 C 
ATOM     21  O   UNL     1       3.377   7.259  17.881  0.00  0.00    +0.000 OA
ATOM     22  N   UNL     1       5.514   6.465  17.667  0.00  0.00    +0.000 N 
ATOM     23  H   UNL     1       6.091   5.650  17.826  0.00  0.00    +0.000 HD
BRANCH  22  24
ATOM     24  C   UNL     1       6.158   7.751  17.467  0.00  0.00    +0.000 C 
BRANCH  24  25
ATOM     25  C   UNL     1       7.682   7.651  17.501  0.00  0.00    +0.000 C 
BRANCH  25  26
ATOM     26  C   UNL     1       8.194   6.982  18.771  0.00  0.00    +0.000 C 
BRANCH  26  27
ATOM     27  O   UNL     1       7.962   5.580  18.694  0.00  0.00    +0.000 OA
ATOM     28  H   UNL     1       8.392   5.172  19.465  0.00  0.00    +0.000 HD
ENDBRANCH  26  27
ENDBRANCH  25  26
ENDBRANCH  24  25
ENDBRANCH  22  24
ENDBRANCH   5  20
TORSDOF 7
ENDMDL
MODEL 5
REMARK VINA RESULT:      -7.4      2.300      7.329
REMARK  Name = 
REMARK  7 active torsions:
REMARK  status: ('A' for Active; 'I' for Inactive)
REMARK    1  A    between atoms: C_2  and  C_20
REMARK    2  A    between atoms: N_3  and  C_4
REMARK    3  A    between atoms: C_8  and  C_9
REMARK    4  A    between atoms: N_11  and  C_12
REMARK    5  A    between atoms: C_12  and  C_13
REMARK    6  A    between atoms: C_13  and  C_14
REMARK    7  A    between atoms: C_14  and  O_15
REMARK                            x       y       z     vdW  Elec       q    Type
REMARK                         _______ _______ _______ _____ _____    ______ ____
ROOT
ATOM      1  C   UNL     1       3.648   6.373  18.153  0.00  0.00    +0.000 A 
ATOM      2  S   UNL     1       4.980   7.232  17.547  0.00  0.00    +0.000 S 
ATOM      3  C   UNL     1       5.420   5.937  16.545  0.00  0.00    +0.000 A 
ATOM      4  C   UNL     1       4.557   4.858  16.646  0.00  0.00    +0.000 A 
ATOM      5  C   UNL     1       3.486   5.119  17.594  0.00  0.00    +0.000 A 
ATOM      6  C   UNL     1       4.792   3.610  15.834  0.00  0.00    +0.000 C 
ATOM      7  C   UNL     1       6.237   3.530  15.300  0.00  0.00    +0.000 C 
ATOM      8  C   UNL     1       6.692   4.859  14.684  0.00  0.00    +0.000 C 
ATOM      9  C   UNL     1       6.663   5.997  15.711  0.00  0.00    +0.000 C 
ENDROOT
BRANCH   1  12
ATOM     10  O   UNL     1       2.192   8.677  17.398  0.00  0.00    +0.000 OA
ATOM     11  C   UNL     1       2.125   8.205  18.527  0.00  0.00    +0.000 C 
ATOM     12  N   UNL     1       2.809   7.090  18.980  0.00  0.00    +0.000 N 
ATOM     13  H   UNL     1       2.708   6.767  19.933  0.00  0.00    +0.000 HD
BRANCH  11  14
ATOM     14  C   UNL     1       1.303   8.896  19.557  0.00  0.00    +0.000 A 
ATOM     15  C   UNL     1       0.624  10.070  19.221  0.00  0.00    +0.000 A 
ATOM     16  C   UNL     1      -0.156  10.718  20.179  0.00  0.00    +0.000 A 
ATOM     17  C   UNL     1      -0.243  10.216  21.477  0.00  0.00    +0.000 A 
ATOM     18  C   UNL     1       0.456   9.061  21.827  0.00  0.00    +0.000 A 
ATOM     19  C   UNL     1       1.221   8.407  20.864  0.00  0.00    +0.000 A 
ENDBRANCH  11  14
ENDBRANCH   1  12
BRANCH   5  20
ATOM     20  C   UNL     1       2.394   4.193  17.940  0.00  0.00    +0.000 C 
ATOM     21  O   UNL     1       1.337   4.175  17.330  0.00  0.00    +0.000 OA
ATOM     22  N   UNL     1       2.661   3.353  19.008  0.00  0.00    +0.000 N 
ATOM     23  H   UNL     1       3.615   3.320  19.339  0.00  0.00    +0.000 HD
BRANCH  22  24
ATOM     24  C   UNL     1       1.705   2.391  19.528  0.00  0.00    +0.000 C 
BRANCH  24  25
ATOM     25  C   UNL     1       1.171   2.785  20.904  0.00  0.00    +0.000 C 
BRANCH  25  26
ATOM     26  C   UNL     1       2.210   3.517  21.744  0.00  0.00    +0.000 C 
BRANCH  26  27
ATOM     27  O   UNL     1       2.279   4.878  21.332  0.00  0.00    +0.000 OA
ATOM     28  H   UNL     1       3.171   5.201  21.544  0.00  0.00    +0.000 HD
ENDBRANCH  26  27
ENDBRANCH  25  26
ENDBRANCH  24  25
ENDBRANCH  22  24
ENDBRANCH   5  20
TORSDOF 7
ENDMDL
MODEL 6
REMARK VINA RESULT:      -7.1      2.125      3.029
REMARK  Name = 
REMARK  7 active torsions:
REMARK  status: ('A' for Active; 'I' for Inactive)
REMARK    1  A    between atoms: C_2  and  C_20
REMARK    2  A    between atoms: N_3  and  C_4
REMARK    3  A    between atoms: C_8  and  C_9
REMARK    4  A    between atoms: N_11  and  C_12
REMARK    5  A    between atoms: C_12  and  C_13
REMARK    6  A    between atoms: C_13  and  C_14
REMARK    7  A    between atoms: C_14  and  O_15
REMARK                            x       y       z     vdW  Elec       q    Type
REMARK                         _______ _______ _______ _____ _____    ______ ____
ROOT
ATOM      1  C   UNL     1       3.935   3.826  17.060  0.00  0.00    +0.000 A 
ATOM      2  S   UNL     1       2.768   2.599  17.172  0.00  0.00    +0.000 S 
ATOM      3  C   UNL     1       2.349   3.074  18.745  0.00  0.00    +0.000 A 
ATOM      4  C   UNL     1       3.070   4.170  19.188  0.00  0.00    +0.000 A 
ATOM      5  C   UNL     1       4.009   4.635  18.179  0.00  0.00    +0.000 A 
ATOM      6  C   UNL     1       2.840   4.733  20.568  0.00  0.00    +0.000 C 
ATOM      7  C   UNL     1       2.116   3.730  21.488  0.00  0.00    +0.000 C 
ATOM      8  C   UNL     1       0.914   3.080  20.790  0.00  0.00    +0.000 C 
ATOM      9  C   UNL     1       1.340   2.303  19.538  0.00  0.00    +0.000 C 
ENDROOT
BRANCH   1  12
ATOM     10  O   UNL     1       6.720   3.818  16.572  0.00  0.00    +0.000 OA
ATOM     11  C   UNL     1       5.901   3.944  15.670  0.00  0.00    +0.000 C 
ATOM     12  N   UNL     1       4.526   3.969  15.822  0.00  0.00    +0.000 N 
ATOM     13  H   UNL     1       3.914   4.087  15.025  0.00  0.00    +0.000 HD
BRANCH  11  14
ATOM     14  C   UNL     1       6.380   4.163  14.278  0.00  0.00    +0.000 A 
ATOM     15  C   UNL     1       5.812   3.431  13.232  0.00  0.00    +0.000 A 
ATOM     16  C   UNL     1       6.251   3.637  11.924  0.00  0.00    +0.000 A 
ATOM     17  C   UNL     1       7.270   4.551  11.655  0.00  0.00    +0.000 A 
ATOM     18  C   UNL     1       7.861   5.263  12.698  0.00  0.00    +0.000 A 
ATOM     19  C   UNL     1       7.411   5.067  14.001  0.00  0.00    +0.000 A 
ENDBRANCH  11  14
ENDBRANCH   1  12
BRANCH   5  20
ATOM     20  C   UNL     1       4.927   5.778  18.314  0.00  0.00    +0.000 C 
ATOM     21  O   UNL     1       4.612   6.910  17.984  0.00  0.00    +0.000 OA
ATOM     22  N   UNL     1       6.170   5.467  18.839  0.00  0.00    +0.000 N 
ATOM     23  H   UNL     1       6.282   4.546  19.240  0.00  0.00    +0.000 HD
BRANCH  22  24
ATOM     24  C   UNL     1       7.229   6.444  19.022  0.00  0.00    +0.000 C 
BRANCH  24  25
ATOM     25  C   UNL     1       7.786   6.955  17.695  0.00  0.00    +0.000 C 
BRANCH  25  26
ATOM     26  C   UNL     1       7.647   8.466  17.549  0.00  0.00    +0.000 C 
BRANCH  26  27
ATOM     27  O   UNL     1       8.563   9.113  18.425  0.00  0.00    +0.000 OA
ATOM     28  H   UNL     1       8.043   9.524  19.137  0.00  0.00    +0.000 HD
ENDBRANCH  26  27
ENDBRANCH  25  26
ENDBRANCH  24  25
ENDBRANCH  22  24
ENDBRANCH   5  20
TORSDOF 7
ENDMDL
MODEL 7
REMARK VINA RESULT:      -6.9      2.483      3.194
REMARK  Name = 
REMARK  7 active torsions:
REMARK  status: ('A' for Active; 'I' for Inactive)
REMARK    1  A    between atoms: C_2  and  C_20
REMARK    2  A    between atoms: N_3  and  C_4
REMARK    3  A    between atoms: C_8  and  C_9
REMARK    4  A    between atoms: N_11  and  C_12
REMARK    5  A    between atoms: C_12  and  C_13
REMARK    6  A    between atoms: C_13  and  C_14
REMARK    7  A    between atoms: C_14  and  O_15
REMARK                            x       y       z     vdW  Elec       q    Type
REMARK                         _______ _______ _______ _____ _____    ______ ____
ROOT
ATOM      1  C   UNL     1       4.330   3.326  17.633  0.00  0.00    +0.000 A 
ATOM      2  S   UNL     1       3.117   2.139  17.600  0.00  0.00    +0.000 S 
ATOM      3  C   UNL     1       2.496   2.663  19.088  0.00  0.00    +0.000 A 
ATOM      4  C   UNL     1       3.186   3.745  19.609  0.00  0.00    +0.000 A 
ATOM      5  C   UNL     1       4.274   4.157  18.736  0.00  0.00    +0.000 A 
ATOM      6  C   UNL     1       2.782   4.346  20.932  0.00  0.00    +0.000 C 
ATOM      7  C   UNL     1       1.900   3.387  21.758  0.00  0.00    +0.000 C 
ATOM      8  C   UNL     1       0.788   2.760  20.908  0.00  0.00    +0.000 C 
ATOM      9  C   UNL     1       1.359   1.943  19.744  0.00  0.00    +0.000 C 
ENDROOT
BRANCH   1  12
ATOM     10  O   UNL     1       4.451   5.585  15.935  0.00  0.00    +0.000 OA
ATOM     11  C   UNL     1       5.103   4.570  15.718  0.00  0.00    +0.000 C 
ATOM     12  N   UNL     1       5.095   3.421  16.489  0.00  0.00    +0.000 N 
ATOM     13  H   UNL     1       5.655   2.618  16.236  0.00  0.00    +0.000 HD
BRANCH  11  14
ATOM     14  C   UNL     1       5.939   4.493  14.489  0.00  0.00    +0.000 A 
ATOM     15  C   UNL     1       5.537   3.672  13.433  0.00  0.00    +0.000 A 
ATOM     16  C   UNL     1       6.312   3.602  12.275  0.00  0.00    +0.000 A 
ATOM     17  C   UNL     1       7.499   4.327  12.174  0.00  0.00    +0.000 A 
ATOM     18  C   UNL     1       7.922   5.125  13.237  0.00  0.00    +0.000 A 
ATOM     19  C   UNL     1       7.139   5.205  14.385  0.00  0.00    +0.000 A 
ENDBRANCH  11  14
ENDBRANCH   1  12
BRANCH   5  20
ATOM     20  C   UNL     1       5.202   5.273  18.980  0.00  0.00    +0.000 C 
ATOM     21  O   UNL     1       4.833   6.437  18.993  0.00  0.00    +0.000 OA
ATOM     22  N   UNL     1       6.519   4.899  19.188  0.00  0.00    +0.000 N 
ATOM     23  H   UNL     1       6.700   3.914  19.328  0.00  0.00    +0.000 HD
BRANCH  22  24
ATOM     24  C   UNL     1       7.595   5.848  19.412  0.00  0.00    +0.000 C 
BRANCH  24  25
ATOM     25  C   UNL     1       8.202   6.360  18.108  0.00  0.00    +0.000 C 
BRANCH  25  26
ATOM     26  C   UNL     1       7.644   7.719  17.700  0.00  0.00    +0.000 C 
BRANCH  26  27
ATOM     27  O   UNL     1       6.488   7.532  16.891  0.00  0.00    +0.000 OA
ATOM     28  H   UNL     1       6.030   8.389  16.837  0.00  0.00    +0.000 HD
ENDBRANCH  26  27
ENDBRANCH  25  26
ENDBRANCH  24  25
ENDBRANCH  22  24
ENDBRANCH   5  20
TORSDOF 7
ENDMDL
MODEL 8
REMARK VINA RESULT:      -6.9      2.417      3.082
REMARK  Name = 
REMARK  7 active torsions:
REMARK  status: ('A' for Active; 'I' for Inactive)
REMARK    1  A    between atoms: C_2  and  C_20
REMARK    2  A    between atoms: N_3  and  C_4
REMARK    3  A    between atoms: C_8  and  C_9
REMARK    4  A    between atoms: N_11  and  C_12
REMARK    5  A    between atoms: C_12  and  C_13
REMARK    6  A    between atoms: C_13  and  C_14
REMARK    7  A    between atoms: C_14  and  O_15
REMARK                            x       y       z     vdW  Elec       q    Type
REMARK                         _______ _______ _______ _____ _____    ______ ____
ROOT
ATOM      1  C   UNL     1       4.415   3.348  17.527  0.00  0.00    +0.000 A 
ATOM      2  S   UNL     1       3.237   2.128  17.604  0.00  0.00    +0.000 S 
ATOM      3  C   UNL     1       2.647   2.725  19.078  0.00  0.00    +0.000 A 
ATOM      4  C   UNL     1       3.320   3.855  19.511  0.00  0.00    +0.000 A 
ATOM      5  C   UNL     1       4.368   4.242  18.580  0.00  0.00    +0.000 A 
ATOM      6  C   UNL     1       2.939   4.524  20.808  0.00  0.00    +0.000 C 
ATOM      7  C   UNL     1       2.111   3.594  21.717  0.00  0.00    +0.000 C 
ATOM      8  C   UNL     1       0.992   2.886  20.942  0.00  0.00    +0.000 C 
ATOM      9  C   UNL     1       1.551   2.015  19.811  0.00  0.00    +0.000 C 
ENDROOT
BRANCH   1  12
ATOM     10  O   UNL     1       4.608   5.591  15.815  0.00  0.00    +0.000 OA
ATOM     11  C   UNL     1       5.190   4.539  15.579  0.00  0.00    +0.000 C 
ATOM     12  N   UNL     1       5.142   3.394  16.356  0.00  0.00    +0.000 N 
ATOM     13  H   UNL     1       5.644   2.558  16.087  0.00  0.00    +0.000 HD
BRANCH  11  14
ATOM     14  C   UNL     1       5.975   4.409  14.321  0.00  0.00    +0.000 A 
ATOM     15  C   UNL     1       7.128   5.178  14.148  0.00  0.00    +0.000 A 
ATOM     16  C   UNL     1       7.873   5.055  12.975  0.00  0.00    +0.000 A 
ATOM     17  C   UNL     1       7.462   4.187  11.964  0.00  0.00    +0.000 A 
ATOM     18  C   UNL     1       6.296   3.439  12.118  0.00  0.00    +0.000 A 
ATOM     19  C   UNL     1       5.562   3.552  13.296  0.00  0.00    +0.000 A 
ENDBRANCH  11  14
ENDBRANCH   1  12
BRANCH   5  20
ATOM     20  C   UNL     1       5.271   5.397  18.727  0.00  0.00    +0.000 C 
ATOM     21  O   UNL     1       4.856   6.542  18.811  0.00  0.00    +0.000 OA
ATOM     22  N   UNL     1       6.619   5.080  18.757  0.00  0.00    +0.000 N 
ATOM     23  H   UNL     1       6.859   4.103  18.853  0.00  0.00    +0.000 HD
BRANCH  22  24
ATOM     24  C   UNL     1       7.672   6.074  18.862  0.00  0.00    +0.000 C 
BRANCH  24  25
ATOM     25  C   UNL     1       7.783   6.940  17.608  0.00  0.00    +0.000 C 
BRANCH  25  26
ATOM     26  C   UNL     1       8.021   8.410  17.935  0.00  0.00    +0.000 C 
BRANCH  26  27
ATOM     27  O   UNL     1       8.855   8.511  19.083  0.00  0.00    +0.000 OA
ATOM     28  H   UNL     1       9.580   9.120  18.862  0.00  0.00    +0.000 HD
ENDBRANCH  26  27
ENDBRANCH  25  26
ENDBRANCH  24  25
ENDBRANCH  22  24
ENDBRANCH   5  20
TORSDOF 7
ENDMDL
MODEL 9
REMARK VINA RESULT:      -6.9      2.518      7.501
REMARK  Name = 
REMARK  7 active torsions:
REMARK  status: ('A' for Active; 'I' for Inactive)
REMARK    1  A    between atoms: C_2  and  C_20
REMARK    2  A    between atoms: N_3  and  C_4
REMARK    3  A    between atoms: C_8  and  C_9
REMARK    4  A    between atoms: N_11  and  C_12
REMARK    5  A    between atoms: C_12  and  C_13
REMARK    6  A    between atoms: C_13  and  C_14
REMARK    7  A    between atoms: C_14  and  O_15
REMARK                            x       y       z     vdW  Elec       q    Type
REMARK                         _______ _______ _______ _____ _____    ______ ____
ROOT
ATOM      1  C   UNL     1       3.265   6.795  18.242  0.00  0.00    +0.000 A 
ATOM      2  S   UNL     1       4.644   7.556  17.612  0.00  0.00    +0.000 S 
ATOM      3  C   UNL     1       5.099   6.150  16.780  0.00  0.00    +0.000 A 
ATOM      4  C   UNL     1       4.207   5.106  16.957  0.00  0.00    +0.000 A 
ATOM      5  C   UNL     1       3.099   5.490  17.817  0.00  0.00    +0.000 A 
ATOM      6  C   UNL     1       4.449   3.771  16.299  0.00  0.00    +0.000 C 
ATOM      7  C   UNL     1       5.915   3.605  15.849  0.00  0.00    +0.000 C 
ATOM      8  C   UNL     1       6.430   4.850  15.113  0.00  0.00    +0.000 C 
ATOM      9  C   UNL     1       6.380   6.095  16.006  0.00  0.00    +0.000 C 
ENDROOT
BRANCH   1  12
ATOM     10  O   UNL     1       1.993   9.097  17.202  0.00  0.00    +0.000 OA
ATOM     11  C   UNL     1       1.818   8.721  18.355  0.00  0.00    +0.000 C 
ATOM     12  N   UNL     1       2.406   7.615  18.944  0.00  0.00    +0.000 N 
ATOM     13  H   UNL     1       2.218   7.375  19.908  0.00  0.00    +0.000 HD
BRANCH  11  14
ATOM     14  C   UNL     1       0.959   9.530  19.261  0.00  0.00    +0.000 A 
ATOM     15  C   UNL     1       0.834   9.160  20.602  0.00  0.00    +0.000 A 
ATOM     16  C   UNL     1       0.037   9.919  21.460  0.00  0.00    +0.000 A 
ATOM     17  C   UNL     1      -0.656  11.031  20.981  0.00  0.00    +0.000 A 
ATOM     18  C   UNL     1      -0.560  11.388  19.637  0.00  0.00    +0.000 A 
ATOM     19  C   UNL     1       0.249  10.638  18.787  0.00  0.00    +0.000 A 
ENDBRANCH  11  14
ENDBRANCH   1  12
BRANCH   5  20
ATOM     20  C   UNL     1       1.970   4.629  18.209  0.00  0.00    +0.000 C 
ATOM     21  O   UNL     1       1.237   4.101  17.388  0.00  0.00    +0.000 OA
ATOM     22  N   UNL     1       1.807   4.471  19.575  0.00  0.00    +0.000 N 
ATOM     23  H   UNL     1       2.556   4.801  20.169  0.00  0.00    +0.000 HD
BRANCH  22  24
ATOM     24  C   UNL     1       0.736   3.689  20.168  0.00  0.00    +0.000 C 
BRANCH  24  25
ATOM     25  C   UNL     1       1.260   2.538  21.024  0.00  0.00    +0.000 C 
BRANCH  25  26
ATOM     26  C   UNL     1       2.643   2.821  21.598  0.00  0.00    +0.000 C 
BRANCH  26  27
ATOM     27  O   UNL     1       3.637   2.363  20.687  0.00  0.00    +0.000 OA
ATOM     28  H   UNL     1       3.771   1.415  20.856  0.00  0.00    +0.000 HD
ENDBRANCH  26  27
ENDBRANCH  25  26
ENDBRANCH  24  25
ENDBRANCH  22  24
ENDBRANCH   5  20
TORSDOF 7
ENDMDL
