MODEL 1
REMARK VINA RESULT:      -8.2      0.000      0.000
REMARK  Name = 
REMARK  6 active torsions:
REMARK  status: ('A' for Active; 'I' for Inactive)
REMARK    1  A    between atoms: C_2  and  C_3
REMARK    2  A    between atoms: C_6  and  C_7
REMARK    3  A    between atoms: N_9  and  C_10
REMARK    4  A    between atoms: C_13  and  C_14
REMARK    5  A    between atoms: C_14  and  C_15
REMARK    6  A    between atoms: C_24  and  C_25
REMARK                            x       y       z     vdW  Elec       q    Type
REMARK                         _______ _______ _______ _____ _____    ______ ____
ROOT
ATOM      1  C   UNL     1       2.831   7.081  18.261  0.00  0.00    +0.000 A 
ATOM      2  C   UNL     1       2.816   8.432  17.907  0.00  0.00    +0.000 A 
ATOM      3  C   UNL     1       2.174   9.382  18.710  0.00  0.00    +0.000 A 
ATOM      4  C   UNL     1       1.416   9.012  19.836  0.00  0.00    +0.000 A 
ATOM      5  C   UNL     1       1.511   7.659  20.220  0.00  0.00    +0.000 A 
ATOM      6  C   UNL     1       2.261   6.704  19.485  0.00  0.00    +0.000 A 
ENDROOT
BRANCH   4   7
ATOM      7  C   UNL     1       0.567  10.048  20.635  0.00  0.00    +0.000 C 
ATOM      8  C   UNL     1      -0.831  10.212  19.973  0.00  0.00    +0.000 C 
ATOM      9  C   UNL     1      -1.631  11.401  20.497  0.00  0.00    +0.000 C 
ATOM     10  O   UNL     1      -0.870  12.599  20.394  0.00  0.00    +0.000 OA
ATOM     11  C   UNL     1       0.316  12.543  21.175  0.00  0.00    +0.000 C 
ATOM     12  C   UNL     1       1.244  11.447  20.661  0.00  0.00    +0.000 C 
BRANCH   7  13
ATOM     13  C   UNL     1       0.338   9.596  22.116  0.00  0.00    +0.000 C 
ATOM     14  N   UNL     1      -0.747   8.825  22.418  0.00  0.00    +0.000 N 
ATOM     15  O   UNL     1       1.135   9.814  23.025  0.00  0.00    +0.000 OA
ATOM     16  H   UNL     1      -1.489   8.592  21.776  0.00  0.00    +0.000 HD
ATOM     17  H   UNL     1      -0.843   8.544  23.388  0.00  0.00    +0.000 HD
ENDBRANCH   7  13
ENDBRANCH   4   7
BRANCH   6  18
ATOM     18  C   UNL     1       2.428   5.370  20.096  0.00  0.00    +0.000 C 
ATOM     19  C   UNL     1       1.329   4.763  20.582  0.00  0.00    +0.000 C 
ATOM     20  C   UNL     1       1.318   3.349  21.090  0.00  0.00    +0.000 C 
ATOM     21  C   UNL     1       2.719   2.771  21.290  0.00  0.00    +0.000 C 
ATOM     22  C   UNL     1       3.639   3.148  20.132  0.00  0.00    +0.000 C 
ATOM     23  C   UNL     1       3.761   4.674  20.000  0.00  0.00    +0.000 C 
ENDBRANCH   6  18
BRANCH   1  26
ATOM     24  C   UNL     1       4.834   6.285  17.085  0.00  0.00    +0.000 C 
ATOM     25  O   UNL     1       5.582   7.167  17.503  0.00  0.00    +0.000 OA
ATOM     26  N   UNL     1       3.485   6.176  17.399  0.00  0.00    +0.000 N 
ATOM     27  H   UNL     1       2.936   5.503  16.872  0.00  0.00    +0.000 HD
BRANCH  24  31
ATOM     28  C   UNL     1       6.047   4.231  14.417  0.00  0.00    +0.000 A 
ATOM     29  C   UNL     1       5.906   3.266  15.388  0.00  0.00    +0.000 A 
ATOM     30  N   UNL     1       5.450   3.945  16.492  0.00  0.00    +0.000 N 
ATOM     31  C   UNL     1       5.321   5.268  16.160  0.00  0.00    +0.000 A 
ATOM     32  N   UNL     1       5.682   5.471  14.898  0.00  0.00    +0.000 NA
ATOM     33  H   UNL     1       5.233   3.558  17.404  0.00  0.00    +0.000 HD
BRANCH  28  35
ATOM     34  N   UNL     1       6.912   3.855  11.981  0.00  0.00    +0.000 NA
ATOM     35  C   UNL     1       6.507   4.035  13.070  0.00  0.00    +0.000 C 
ENDBRANCH  28  35
ENDBRANCH  24  31
ENDBRANCH   1  26
TORSDOF 6
ENDMDL
MODEL 2
REMARK VINA RESULT:      -8.0      1.367      1.831
REMARK  Name = 
REMARK  6 active torsions:
REMARK  status: ('A' for Active; 'I' for Inactive)
REMARK    1  A    between atoms: C_2  and  C_3
REMARK    2  A    between atoms: C_6  and  C_7
REMARK    3  A    between atoms: N_9  and  C_10
REMARK    4  A    between atoms: C_13  and  C_14
REMARK    5  A    between atoms: C_14  and  C_15
REMARK    6  A    between atoms: C_24  and  C_25
REMARK                            x       y       z     vdW  Elec       q    Type
REMARK                         _______ _______ _______ _____ _____    ______ ____
ROOT
ATOM      1  C   UNL     1       2.952   7.433  17.919  0.00  0.00    +0.000 A 
ATOM      2  C   UNL     1       2.916   8.766  17.503  0.00  0.00    +0.000 A 
ATOM      3  C   UNL     1       2.167   9.720  18.201  0.00  0.00    +0.000 A 
ATOM      4  C   UNL     1       1.326   9.365  19.272  0.00  0.00    +0.000 A 
ATOM      5  C   UNL     1       1.439   8.036  19.725  0.00  0.00    +0.000 A 
ATOM      6  C   UNL     1       2.289   7.084  19.104  0.00  0.00    +0.000 A 
ENDROOT
BRANCH   4   7
ATOM      7  C   UNL     1       0.368  10.397  19.945  0.00  0.00    +0.000 C 
ATOM      8  C   UNL     1       1.149  11.697  20.293  0.00  0.00    +0.000 C 
ATOM      9  C   UNL     1       0.386  12.653  21.206  0.00  0.00    +0.000 C 
ATOM     10  O   UNL     1      -0.046  11.981  22.383  0.00  0.00    +0.000 OA
ATOM     11  C   UNL     1      -0.940  10.915  22.089  0.00  0.00    +0.000 C 
ATOM     12  C   UNL     1      -0.239   9.842  21.264  0.00  0.00    +0.000 C 
BRANCH   7  13
ATOM     13  C   UNL     1      -0.815  10.795  19.000  0.00  0.00    +0.000 C 
ATOM     14  N   UNL     1      -0.667  11.858  18.158  0.00  0.00    +0.000 N 
ATOM     15  O   UNL     1      -1.852  10.145  18.898  0.00  0.00    +0.000 OA
ATOM     16  H   UNL     1       0.119  12.490  18.154  0.00  0.00    +0.000 HD
ATOM     17  H   UNL     1      -1.455  12.067  17.554  0.00  0.00    +0.000 HD
ENDBRANCH   7  13
ENDBRANCH   4   7
BRANCH   6  18
ATOM     18  C   UNL     1       2.454   5.785  19.788  0.00  0.00    +0.000 C 
ATOM     19  C   UNL     1       1.348   5.192  20.277  0.00  0.00    +0.000 C 
ATOM     20  C   UNL     1       1.338   3.807  20.858  0.00  0.00    +0.000 C 
ATOM     21  C   UNL     1       2.739   3.256  21.124  0.00  0.00    +0.000 C 
ATOM     22  C   UNL     1       3.685   3.582  19.971  0.00  0.00    +0.000 C 
ATOM     23  C   UNL     1       3.795   5.100  19.762  0.00  0.00    +0.000 C 
ENDBRANCH   6  18
BRANCH   1  26
ATOM     24  C   UNL     1       5.098   6.612  17.053  0.00  0.00    +0.000 C 
ATOM     25  O   UNL     1       5.786   7.482  17.583  0.00  0.00    +0.000 OA
ATOM     26  N   UNL     1       3.716   6.521  17.159  0.00  0.00    +0.000 N 
ATOM     27  H   UNL     1       3.243   5.858  16.552  0.00  0.00    +0.000 HD
BRANCH  24  31
ATOM     28  C   UNL     1       6.195   4.284  14.565  0.00  0.00    +0.000 A 
ATOM     29  C   UNL     1       7.014   3.898  15.602  0.00  0.00    +0.000 A 
ATOM     30  N   UNL     1       6.694   4.745  16.635  0.00  0.00    +0.000 N 
ATOM     31  C   UNL     1       5.705   5.591  16.207  0.00  0.00    +0.000 A 
ATOM     32  N   UNL     1       5.383   5.333  14.944  0.00  0.00    +0.000 NA
ATOM     33  H   UNL     1       7.098   4.759  17.565  0.00  0.00    +0.000 HD
BRANCH  28  35
ATOM     34  N   UNL     1       6.076   3.226  12.181  0.00  0.00    +0.000 NA
ATOM     35  C   UNL     1       6.147   3.712  13.248  0.00  0.00    +0.000 C 
ENDBRANCH  28  35
ENDBRANCH  24  31
ENDBRANCH   1  26
TORSDOF 6
ENDMDL
MODEL 3
REMARK VINA RESULT:      -7.9      1.047      1.127
REMARK  Name = 
REMARK  6 active torsions:
REMARK  status: ('A' for Active; 'I' for Inactive)
REMARK    1  A    between atoms: C_2  and  C_3
REMARK    2  A    between atoms: C_6  and  C_7
REMARK    3  A    between atoms: N_9  and  C_10
REMARK    4  A    between atoms: C_13  and  C_14
REMARK    5  A    between atoms: C_14  and  C_15
REMARK    6  A    between atoms: C_24  and  C_25
REMARK                            x       y       z     vdW  Elec       q    Type
REMARK                         _______ _______ _______ _____ _____    ______ ____
ROOT
ATOM      1  C   UNL     1       3.146   7.277  17.749  0.00  0.00    +0.000 A 
ATOM      2  C   UNL     1       3.006   8.648  17.524  0.00  0.00    +0.000 A 
ATOM      3  C   UNL     1       2.254   9.448  18.392  0.00  0.00    +0.000 A 
ATOM      4  C   UNL     1       1.509   8.899  19.451  0.00  0.00    +0.000 A 
ATOM      5  C   UNL     1       1.728   7.530  19.708  0.00  0.00    +0.000 A 
ATOM      6  C   UNL     1       2.586   6.728  18.911  0.00  0.00    +0.000 A 
ENDROOT
BRANCH   4   7
ATOM      7  C   UNL     1       0.542   9.765  20.316  0.00  0.00    +0.000 C 
ATOM      8  C   UNL     1      -0.744  10.095  19.506  0.00  0.00    +0.000 C 
ATOM      9  C   UNL     1      -1.622  11.167  20.144  0.00  0.00    +0.000 C 
ATOM     10  O   UNL     1      -0.865  12.342  20.406  0.00  0.00    +0.000 OA
ATOM     11  C   UNL     1       0.194  12.099  21.323  0.00  0.00    +0.000 C 
ATOM     12  C   UNL     1       1.196  11.113  20.733  0.00  0.00    +0.000 C 
BRANCH   7  13
ATOM     13  C   UNL     1       0.101   9.020  21.621  0.00  0.00    +0.000 C 
ATOM     14  N   UNL     1       0.766   9.266  22.786  0.00  0.00    +0.000 N 
ATOM     15  O   UNL     1      -0.882   8.287  21.685  0.00  0.00    +0.000 OA
ATOM     16  H   UNL     1       1.601   9.825  22.870  0.00  0.00    +0.000 HD
ATOM     17  H   UNL     1       0.433   8.772  23.607  0.00  0.00    +0.000 HD
ENDBRANCH   7  13
ENDBRANCH   4   7
BRANCH   6  18
ATOM     18  C   UNL     1       2.870   5.363  19.397  0.00  0.00    +0.000 C 
ATOM     19  C   UNL     1       1.847   4.488  19.436  0.00  0.00    +0.000 C 
ATOM     20  C   UNL     1       2.013   3.031  19.760  0.00  0.00    +0.000 C 
ATOM     21  C   UNL     1       3.388   2.696  20.338  0.00  0.00    +0.000 C 
ATOM     22  C   UNL     1       4.494   3.431  19.585  0.00  0.00    +0.000 C 
ATOM     23  C   UNL     1       4.295   4.953  19.662  0.00  0.00    +0.000 C 
ENDBRANCH   6  18
BRANCH   1  26
ATOM     24  C   UNL     1       5.293   6.585  16.780  0.00  0.00    +0.000 C 
ATOM     25  O   UNL     1       5.990   7.288  17.511  0.00  0.00    +0.000 OA
ATOM     26  N   UNL     1       3.906   6.527  16.826  0.00  0.00    +0.000 N 
ATOM     27  H   UNL     1       3.435   6.034  16.073  0.00  0.00    +0.000 HD
BRANCH  24  31
ATOM     28  C   UNL     1       6.215   4.424  14.080  0.00  0.00    +0.000 A 
ATOM     29  C   UNL     1       7.469   4.714  14.565  0.00  0.00    +0.000 A 
ATOM     30  N   UNL     1       7.249   5.567  15.619  0.00  0.00    +0.000 N 
ATOM     31  C   UNL     1       5.897   5.755  15.745  0.00  0.00    +0.000 A 
ATOM     32  N   UNL     1       5.241   5.070  14.814  0.00  0.00    +0.000 NA
ATOM     33  H   UNL     1       7.945   5.993  16.220  0.00  0.00    +0.000 HD
BRANCH  28  35
ATOM     34  N   UNL     1       5.603   2.889  12.058  0.00  0.00    +0.000 NA
ATOM     35  C   UNL     1       5.898   3.574  12.966  0.00  0.00    +0.000 C 
ENDBRANCH  28  35
ENDBRANCH  24  31
ENDBRANCH   1  26
TORSDOF 6
ENDMDL
MODEL 4
REMARK VINA RESULT:      -7.8      3.634      8.498
REMARK  Name = 
REMARK  6 active torsions:
REMARK  status: ('A' for Active; 'I' for Inactive)
REMARK    1  A    between atoms: C_2  and  C_3
REMARK    2  A    between atoms: C_6  and  C_7
REMARK    3  A    between atoms: N_9  and  C_10
REMARK    4  A    between atoms: C_13  and  C_14
REMARK    5  A    between atoms: C_14  and  C_15
REMARK    6  A    between atoms: C_24  and  C_25
REMARK                            x       y       z     vdW  Elec       q    Type
REMARK                         _______ _______ _______ _____ _____    ______ ____
ROOT
ATOM      1  C   UNL     1       1.392  10.068  18.754  0.00  0.00    +0.000 A 
ATOM      2  C   UNL     1       1.932   9.516  17.590  0.00  0.00    +0.000 A 
ATOM      3  C   UNL     1       2.324   8.173  17.542  0.00  0.00    +0.000 A 
ATOM      4  C   UNL     1       2.308   7.353  18.686  0.00  0.00    +0.000 A 
ATOM      5  C   UNL     1       1.687   7.904  19.825  0.00  0.00    +0.000 A 
ATOM      6  C   UNL     1       1.172   9.226  19.854  0.00  0.00    +0.000 A 
ENDROOT
BRANCH   4   7
ATOM      7  C   UNL     1       2.897   5.909  18.673  0.00  0.00    +0.000 C 
ATOM      8  C   UNL     1       2.043   4.996  17.748  0.00  0.00    +0.000 C 
ATOM      9  C   UNL     1       2.354   3.508  17.885  0.00  0.00    +0.000 C 
ATOM     10  O   UNL     1       2.254   3.100  19.244  0.00  0.00    +0.000 OA
ATOM     11  C   UNL     1       3.189   3.779  20.073  0.00  0.00    +0.000 C 
ATOM     12  C   UNL     1       2.897   5.276  20.093  0.00  0.00    +0.000 C 
BRANCH   7  13
ATOM     13  C   UNL     1       4.367   5.884  18.135  0.00  0.00    +0.000 C 
ATOM     14  N   UNL     1       4.585   5.925  16.789  0.00  0.00    +0.000 N 
ATOM     15  O   UNL     1       5.357   5.925  18.860  0.00  0.00    +0.000 OA
ATOM     16  H   UNL     1       3.866   5.871  16.083  0.00  0.00    +0.000 HD
ATOM     17  H   UNL     1       5.554   5.923  16.489  0.00  0.00    +0.000 HD
ENDBRANCH   7  13
ENDBRANCH   4   7
BRANCH   6  18
ATOM     18  C   UNL     1       0.384   9.613  21.042  0.00  0.00    +0.000 C 
ATOM     19  C   UNL     1       0.722   9.059  22.222  0.00  0.00    +0.000 C 
ATOM     20  C   UNL     1       0.116   9.469  23.534  0.00  0.00    +0.000 C 
ATOM     21  C   UNL     1      -1.127  10.344  23.375  0.00  0.00    +0.000 C 
ATOM     22  C   UNL     1      -0.927  11.388  22.280  0.00  0.00    +0.000 C 
ATOM     23  C   UNL     1      -0.632  10.719  20.929  0.00  0.00    +0.000 C 
ENDBRANCH   6  18
BRANCH   1  26
ATOM     24  C   UNL     1       1.939  12.439  18.432  0.00  0.00    +0.000 C 
ATOM     25  O   UNL     1       3.125  12.257  18.163  0.00  0.00    +0.000 OA
ATOM     26  N   UNL     1       1.032  11.432  18.737  0.00  0.00    +0.000 N 
ATOM     27  H   UNL     1       0.125  11.714  19.095  0.00  0.00    +0.000 HD
BRANCH  24  31
ATOM     28  C   UNL     1       1.143  15.925  18.579  0.00  0.00    +0.000 A 
ATOM     29  C   UNL     1      -0.132  15.409  18.621  0.00  0.00    +0.000 A 
ATOM     30  N   UNL     1       0.040  14.047  18.554  0.00  0.00    +0.000 N 
ATOM     31  C   UNL     1       1.383  13.787  18.488  0.00  0.00    +0.000 A 
ATOM     32  N   UNL     1       2.081  14.917  18.498  0.00  0.00    +0.000 NA
ATOM     33  H   UNL     1      -0.683  13.337  18.558  0.00  0.00    +0.000 HD
BRANCH  28  35
ATOM     34  N   UNL     1       1.792  18.454  18.671  0.00  0.00    +0.000 NA
ATOM     35  C   UNL     1       1.510  17.314  18.612  0.00  0.00    +0.000 C 
ENDBRANCH  28  35
ENDBRANCH  24  31
ENDBRANCH   1  26
TORSDOF 6
ENDMDL
MODEL 5
REMARK VINA RESULT:      -7.8      3.614      8.490
REMARK  Name = 
REMARK  6 active torsions:
REMARK  status: ('A' for Active; 'I' for Inactive)
REMARK    1  A    between atoms: C_2  and  C_3
REMARK    2  A    between atoms: C_6  and  C_7
REMARK    3  A    between atoms: N_9  and  C_10
REMARK    4  A    between atoms: C_13  and  C_14
REMARK    5  A    between atoms: C_14  and  C_15
REMARK    6  A    between atoms: C_24  and  C_25
REMARK                            x       y       z     vdW  Elec       q    Type
REMARK                         _______ _______ _______ _____ _____    ______ ____
ROOT
ATOM      1  C   UNL     1       1.476  10.003  18.726  0.00  0.00    +0.000 A 
ATOM      2  C   UNL     1       1.999   9.501  17.533  0.00  0.00    +0.000 A 
ATOM      3  C   UNL     1       2.400   8.164  17.426  0.00  0.00    +0.000 A 
ATOM      4  C   UNL     1       2.411   7.301  18.537  0.00  0.00    +0.000 A 
ATOM      5  C   UNL     1       1.806   7.802  19.707  0.00  0.00    +0.000 A 
ATOM      6  C   UNL     1       1.281   9.118  19.796  0.00  0.00    +0.000 A 
ENDROOT
BRANCH   4   7
ATOM      7  C   UNL     1       3.010   5.862  18.458  0.00  0.00    +0.000 C 
ATOM      8  C   UNL     1       3.889   5.584  19.711  0.00  0.00    +0.000 C 
ATOM      9  C   UNL     1       4.747   4.327  19.600  0.00  0.00    +0.000 C 
ATOM     10  O   UNL     1       5.536   4.364  18.417  0.00  0.00    +0.000 OA
ATOM     11  C   UNL     1       4.733   4.401  17.244  0.00  0.00    +0.000 C 
ATOM     12  C   UNL     1       3.907   5.682  17.201  0.00  0.00    +0.000 C 
BRANCH   7  13
ATOM     13  C   UNL     1       1.892   4.767  18.412  0.00  0.00    +0.000 C 
ATOM     14  N   UNL     1       1.418   4.249  19.582  0.00  0.00    +0.000 N 
ATOM     15  O   UNL     1       1.336   4.406  17.378  0.00  0.00    +0.000 OA
ATOM     16  H   UNL     1       1.798   4.439  20.496  0.00  0.00    +0.000 HD
ATOM     17  H   UNL     1       0.683   3.554  19.502  0.00  0.00    +0.000 HD
ENDBRANCH   7  13
ENDBRANCH   4   7
BRANCH   6  18
ATOM     18  C   UNL     1       0.512   9.452  21.012  0.00  0.00    +0.000 C 
ATOM     19  C   UNL     1       0.967   8.980  22.188  0.00  0.00    +0.000 C 
ATOM     20  C   UNL     1       0.381   9.362  23.517  0.00  0.00    +0.000 C 
ATOM     21  C   UNL     1      -0.961  10.084  23.398  0.00  0.00    +0.000 C 
ATOM     22  C   UNL     1      -0.935  11.107  22.265  0.00  0.00    +0.000 C 
ATOM     23  C   UNL     1      -0.630  10.430  20.920  0.00  0.00    +0.000 C 
ENDBRANCH   6  18
BRANCH   1  26
ATOM     24  C   UNL     1       1.978  12.386  18.414  0.00  0.00    +0.000 C 
ATOM     25  O   UNL     1       3.140  12.220  18.047  0.00  0.00    +0.000 OA
ATOM     26  N   UNL     1       1.106  11.364  18.769  0.00  0.00    +0.000 N 
ATOM     27  H   UNL     1       0.228  11.630  19.204  0.00  0.00    +0.000 HD
BRANCH  24  31
ATOM     28  C   UNL     1       1.172  15.857  18.745  0.00  0.00    +0.000 A 
ATOM     29  C   UNL     1      -0.100  15.334  18.778  0.00  0.00    +0.000 A 
ATOM     30  N   UNL     1       0.075  13.978  18.642  0.00  0.00    +0.000 N 
ATOM     31  C   UNL     1       1.418  13.726  18.544  0.00  0.00    +0.000 A 
ATOM     32  N   UNL     1       2.112  14.858  18.601  0.00  0.00    +0.000 NA
ATOM     33  H   UNL     1      -0.645  13.265  18.621  0.00  0.00    +0.000 HD
BRANCH  28  35
ATOM     34  N   UNL     1       1.797  18.386  18.931  0.00  0.00    +0.000 NA
ATOM     35  C   UNL     1       1.535  17.244  18.840  0.00  0.00    +0.000 C 
ENDBRANCH  28  35
ENDBRANCH  24  31
ENDBRANCH   1  26
TORSDOF 6
ENDMDL
MODEL 6
REMARK VINA RESULT:      -7.7      3.648      8.502
REMARK  Name = 
REMARK  6 active torsions:
REMARK  status: ('A' for Active; 'I' for Inactive)
REMARK    1  A    between atoms: C_2  and  C_3
REMARK    2  A    between atoms: C_6  and  C_7
REMARK    3  A    between atoms: N_9  and  C_10
REMARK    4  A    between atoms: C_13  and  C_14
REMARK    5  A    between atoms: C_14  and  C_15
REMARK    6  A    between atoms: C_24  and  C_25
REMARK                            x       y       z     vdW  Elec       q    Type
REMARK                         _______ _______ _______ _____ _____    ______ ____
ROOT
ATOM      1  C   UNL     1       1.441  10.118  18.670  0.00  0.00    +0.000 A 
ATOM      2  C   UNL     1       1.969   9.622  17.477  0.00  0.00    +0.000 A 
ATOM      3  C   UNL     1       2.372   8.286  17.365  0.00  0.00    +0.000 A 
ATOM      4  C   UNL     1       2.380   7.418  18.473  0.00  0.00    +0.000 A 
ATOM      5  C   UNL     1       1.770   7.913  19.643  0.00  0.00    +0.000 A 
ATOM      6  C   UNL     1       1.243   9.227  19.735  0.00  0.00    +0.000 A 
ENDROOT
BRANCH   4   7
ATOM      7  C   UNL     1       2.981   5.981  18.389  0.00  0.00    +0.000 C 
ATOM      8  C   UNL     1       4.093   5.933  17.302  0.00  0.00    +0.000 C 
ATOM      9  C   UNL     1       4.545   4.522  16.939  0.00  0.00    +0.000 C 
ATOM     10  O   UNL     1       3.430   3.720  16.569  0.00  0.00    +0.000 OA
ATOM     11  C   UNL     1       2.502   3.576  17.637  0.00  0.00    +0.000 C 
ATOM     12  C   UNL     1       1.902   4.928  18.009  0.00  0.00    +0.000 C 
BRANCH   7  13
ATOM     13  C   UNL     1       3.628   5.540  19.745  0.00  0.00    +0.000 C 
ATOM     14  N   UNL     1       2.822   5.116  20.761  0.00  0.00    +0.000 N 
ATOM     15  O   UNL     1       4.840   5.460  19.926  0.00  0.00    +0.000 OA
ATOM     16  H   UNL     1       1.814   5.152  20.755  0.00  0.00    +0.000 HD
ATOM     17  H   UNL     1       3.288   4.826  21.614  0.00  0.00    +0.000 HD
ENDBRANCH   7  13
ENDBRANCH   4   7
BRANCH   6  18
ATOM     18  C   UNL     1       0.469   9.555  20.950  0.00  0.00    +0.000 C 
ATOM     19  C   UNL     1       0.889   9.031  22.118  0.00  0.00    +0.000 C 
ATOM     20  C   UNL     1       0.298   9.396  23.450  0.00  0.00    +0.000 C 
ATOM     21  C   UNL     1      -1.013  10.173  23.334  0.00  0.00    +0.000 C 
ATOM     22  C   UNL     1      -0.931  11.227  22.233  0.00  0.00    +0.000 C 
ATOM     23  C   UNL     1      -0.632  10.579  20.872  0.00  0.00    +0.000 C 
ENDBRANCH   6  18
BRANCH   1  26
ATOM     24  C   UNL     1       1.950  12.504  18.405  0.00  0.00    +0.000 C 
ATOM     25  O   UNL     1       3.125  12.344  18.075  0.00  0.00    +0.000 OA
ATOM     26  N   UNL     1       1.068  11.478  18.718  0.00  0.00    +0.000 N 
ATOM     27  H   UNL     1       0.176  11.738  19.127  0.00  0.00    +0.000 HD
BRANCH  24  31
ATOM     28  C   UNL     1       1.132  15.973  18.730  0.00  0.00    +0.000 A 
ATOM     29  C   UNL     1      -0.138  15.445  18.768  0.00  0.00    +0.000 A 
ATOM     30  N   UNL     1       0.042  14.090  18.634  0.00  0.00    +0.000 N 
ATOM     31  C   UNL     1       1.386  13.843  18.533  0.00  0.00    +0.000 A 
ATOM     32  N   UNL     1       2.076  14.978  18.586  0.00  0.00    +0.000 NA
ATOM     33  H   UNL     1      -0.675  13.374  18.617  0.00  0.00    +0.000 HD
BRANCH  28  35
ATOM     34  N   UNL     1       1.761  18.505  18.866  0.00  0.00    +0.000 NA
ATOM     35  C   UNL     1       1.489  17.362  18.821  0.00  0.00    +0.000 C 
ENDBRANCH  28  35
ENDBRANCH  24  31
ENDBRANCH   1  26
TORSDOF 6
ENDMDL
MODEL 7
REMARK VINA RESULT:      -7.7      2.123      8.397
REMARK  Name = 
REMARK  6 active torsions:
REMARK  status: ('A' for Active; 'I' for Inactive)
REMARK    1  A    between atoms: C_2  and  C_3
REMARK    2  A    between atoms: C_6  and  C_7
REMARK    3  A    between atoms: N_9  and  C_10
REMARK    4  A    between atoms: C_13  and  C_14
REMARK    5  A    between atoms: C_14  and  C_15
REMARK    6  A    between atoms: C_24  and  C_25
REMARK                            x       y       z     vdW  Elec       q    Type
REMARK                         _______ _______ _______ _____ _____    ______ ____
ROOT
ATOM      1  C   UNL     1       2.815   7.010  18.971  0.00  0.00    +0.000 A 
ATOM      2  C   UNL     1       3.387   7.790  17.964  0.00  0.00    +0.000 A 
ATOM      3  C   UNL     1       4.218   7.219  16.993  0.00  0.00    +0.000 A 
ATOM      4  C   UNL     1       4.614   5.870  17.054  0.00  0.00    +0.000 A 
ATOM      5  C   UNL     1       3.964   5.085  18.028  0.00  0.00    +0.000 A 
ATOM      6  C   UNL     1       3.023   5.624  18.944  0.00  0.00    +0.000 A 
ENDROOT
BRANCH   4   7
ATOM      7  C   UNL     1       5.668   5.275  16.071  0.00  0.00    +0.000 C 
ATOM      8  C   UNL     1       5.560   5.979  14.688  0.00  0.00    +0.000 C 
ATOM      9  C   UNL     1       6.341   5.285  13.575  0.00  0.00    +0.000 C 
ATOM     10  O   UNL     1       5.968   3.915  13.485  0.00  0.00    +0.000 OA
ATOM     11  C   UNL     1       6.264   3.203  14.680  0.00  0.00    +0.000 C 
ATOM     12  C   UNL     1       5.447   3.752  15.844  0.00  0.00    +0.000 C 
BRANCH   7  13
ATOM     13  C   UNL     1       7.131   5.477  16.591  0.00  0.00    +0.000 C 
ATOM     14  N   UNL     1       7.785   4.426  17.165  0.00  0.00    +0.000 N 
ATOM     15  O   UNL     1       7.773   6.511  16.430  0.00  0.00    +0.000 OA
ATOM     16  H   UNL     1       7.371   3.532  17.379  0.00  0.00    +0.000 HD
ATOM     17  H   UNL     1       8.736   4.602  17.472  0.00  0.00    +0.000 HD
ENDBRANCH   7  13
ENDBRANCH   4   7
BRANCH   6  18
ATOM     18  C   UNL     1       2.281   4.663  19.785  0.00  0.00    +0.000 C 
ATOM     19  C   UNL     1       1.413   3.835  19.171  0.00  0.00    +0.000 C 
ATOM     20  C   UNL     1       0.706   2.709  19.870  0.00  0.00    +0.000 C 
ATOM     21  C   UNL     1       0.822   2.779  21.393  0.00  0.00    +0.000 C 
ATOM     22  C   UNL     1       2.238   3.158  21.819  0.00  0.00    +0.000 C 
ATOM     23  C   UNL     1       2.639   4.524  21.242  0.00  0.00    +0.000 C 
ENDBRANCH   6  18
BRANCH   1  26
ATOM     24  C   UNL     1       1.325   8.838  19.655  0.00  0.00    +0.000 C 
ATOM     25  O   UNL     1       1.376   9.445  18.587  0.00  0.00    +0.000 OA
ATOM     26  N   UNL     1       1.999   7.653  19.926  0.00  0.00    +0.000 N 
ATOM     27  H   UNL     1       2.006   7.330  20.889  0.00  0.00    +0.000 HD
BRANCH  24  31
ATOM     28  C   UNL     1      -0.483  10.649  22.157  0.00  0.00    +0.000 A 
ATOM     29  C   UNL     1      -0.589   9.383  22.685  0.00  0.00    +0.000 A 
ATOM     30  N   UNL     1       0.067   8.574  21.790  0.00  0.00    +0.000 N 
ATOM     31  C   UNL     1       0.549   9.359  20.775  0.00  0.00    +0.000 A 
ATOM     32  N   UNL     1       0.224  10.632  20.973  0.00  0.00    +0.000 NA
ATOM     33  H   UNL     1       0.194   7.570  21.849  0.00  0.00    +0.000 HD
BRANCH  28  35
ATOM     34  N   UNL     1      -1.431  12.848  23.201  0.00  0.00    +0.000 NA
ATOM     35  C   UNL     1      -1.016  11.862  22.714  0.00  0.00    +0.000 C 
ENDBRANCH  28  35
ENDBRANCH  24  31
ENDBRANCH   1  26
TORSDOF 6
ENDMDL
MODEL 8
REMARK VINA RESULT:      -7.7      1.040      1.242
REMARK  Name = 
REMARK  6 active torsions:
REMARK  status: ('A' for Active; 'I' for Inactive)
REMARK    1  A    between atoms: C_2  and  C_3
REMARK    2  A    between atoms: C_6  and  C_7
REMARK    3  A    between atoms: N_9  and  C_10
REMARK    4  A    between atoms: C_13  and  C_14
REMARK    5  A    between atoms: C_14  and  C_15
REMARK    6  A    between atoms: C_24  and  C_25
REMARK                            x       y       z     vdW  Elec       q    Type
REMARK                         _______ _______ _______ _____ _____    ______ ____
ROOT
ATOM      1  C   UNL     1       3.136   7.543  17.593  0.00  0.00    +0.000 A 
ATOM      2  C   UNL     1       3.225   8.935  17.545  0.00  0.00    +0.000 A 
ATOM      3  C   UNL     1       2.478   9.737  18.417  0.00  0.00    +0.000 A 
ATOM      4  C   UNL     1       1.519   9.190  19.290  0.00  0.00    +0.000 A 
ATOM      5  C   UNL     1       1.504   7.784  19.379  0.00  0.00    +0.000 A 
ATOM      6  C   UNL     1       2.345   6.956  18.590  0.00  0.00    +0.000 A 
ENDROOT
BRANCH   4   7
ATOM      7  C   UNL     1       0.572  10.090  20.142  0.00  0.00    +0.000 C 
ATOM      8  C   UNL     1      -0.811  10.218  19.441  0.00  0.00    +0.000 C 
ATOM      9  C   UNL     1      -1.710  11.298  20.034  0.00  0.00    +0.000 C 
ATOM     10  O   UNL     1      -1.033  12.549  20.067  0.00  0.00    +0.000 OA
ATOM     11  C   UNL     1       0.127  12.504  20.888  0.00  0.00    +0.000 C 
ATOM     12  C   UNL     1       1.147  11.524  20.318  0.00  0.00    +0.000 C 
BRANCH   7  13
ATOM     13  C   UNL     1       0.325   9.492  21.567  0.00  0.00    +0.000 C 
ATOM     14  N   UNL     1      -0.653   8.556  21.737  0.00  0.00    +0.000 N 
ATOM     15  O   UNL     1       1.029   9.743  22.542  0.00  0.00    +0.000 OA
ATOM     16  H   UNL     1      -1.316   8.276  21.031  0.00  0.00    +0.000 HD
ATOM     17  H   UNL     1      -0.764   8.186  22.675  0.00  0.00    +0.000 HD
ENDBRANCH   7  13
ENDBRANCH   4   7
BRANCH   6  18
ATOM     18  C   UNL     1       2.361   5.515  18.913  0.00  0.00    +0.000 C 
ATOM     19  C   UNL     1       2.727   5.159  20.159  0.00  0.00    +0.000 C 
ATOM     20  C   UNL     1       2.644   3.751  20.677  0.00  0.00    +0.000 C 
ATOM     21  C   UNL     1       2.401   2.718  19.577  0.00  0.00    +0.000 C 
ATOM     22  C   UNL     1       1.359   3.215  18.578  0.00  0.00    +0.000 C 
ATOM     23  C   UNL     1       1.812   4.527  17.918  0.00  0.00    +0.000 C 
ENDBRANCH   6  18
BRANCH   1  26
ATOM     24  C   UNL     1       5.203   6.382  16.953  0.00  0.00    +0.000 C 
ATOM     25  O   UNL     1       5.809   6.625  17.995  0.00  0.00    +0.000 OA
ATOM     26  N   UNL     1       3.907   6.797  16.675  0.00  0.00    +0.000 N 
ATOM     27  H   UNL     1       3.570   6.672  15.725  0.00  0.00    +0.000 HD
BRANCH  24  31
ATOM     28  C   UNL     1       6.220   4.401  14.151  0.00  0.00    +0.000 A 
ATOM     29  C   UNL     1       7.460   4.773  14.617  0.00  0.00    +0.000 A 
ATOM     30  N   UNL     1       7.201   5.567  15.707  0.00  0.00    +0.000 N 
ATOM     31  C   UNL     1       5.843   5.641  15.872  0.00  0.00    +0.000 A 
ATOM     32  N   UNL     1       5.218   4.940  14.932  0.00  0.00    +0.000 NA
ATOM     33  H   UNL     1       7.877   6.025  16.308  0.00  0.00    +0.000 HD
BRANCH  28  35
ATOM     34  N   UNL     1       5.706   2.921  12.061  0.00  0.00    +0.000 NA
ATOM     35  C   UNL     1       5.941   3.570  13.012  0.00  0.00    +0.000 C 
ENDBRANCH  28  35
ENDBRANCH  24  31
ENDBRANCH   1  26
TORSDOF 6
ENDMDL
MODEL 9
REMARK VINA RESULT:      -7.6      3.610      8.402
REMARK  Name = 
REMARK  6 active torsions:
REMARK  status: ('A' for Active; 'I' for Inactive)
REMARK    1  A    between atoms: C_2  and  C_3
REMARK    2  A    between atoms: C_6  and  C_7
REMARK    3  A    between atoms: N_9  and  C_10
REMARK    4  A    between atoms: C_13  and  C_14
REMARK    5  A    between atoms: C_14  and  C_15
REMARK    6  A    between atoms: C_24  and  C_25
REMARK                            x       y       z     vdW  Elec       q    Type
REMARK                         _______ _______ _______ _____ _____    ______ ____
ROOT
ATOM      1  C   UNL     1       1.669   9.843  19.031  0.00  0.00    +0.000 A 
ATOM      2  C   UNL     1       2.228   9.233  17.906  0.00  0.00    +0.000 A 
ATOM      3  C   UNL     1       2.404   7.845  17.851  0.00  0.00    +0.000 A 
ATOM      4  C   UNL     1       2.145   7.018  18.959  0.00  0.00    +0.000 A 
ATOM      5  C   UNL     1       1.509   7.641  20.052  0.00  0.00    +0.000 A 
ATOM      6  C   UNL     1       1.209   9.028  20.076  0.00  0.00    +0.000 A 
ENDROOT
BRANCH   4   7
ATOM      7  C   UNL     1       2.496   5.498  18.954  0.00  0.00    +0.000 C 
ATOM      8  C   UNL     1       4.039   5.309  18.997  0.00  0.00    +0.000 C 
ATOM      9  C   UNL     1       4.498   3.883  18.708  0.00  0.00    +0.000 C 
ATOM     10  O   UNL     1       3.959   3.426  17.473  0.00  0.00    +0.000 OA
ATOM     11  C   UNL     1       2.538   3.388  17.496  0.00  0.00    +0.000 C 
ATOM     12  C   UNL     1       1.968   4.792  17.673  0.00  0.00    +0.000 C 
BRANCH   7  13
ATOM     13  C   UNL     1       1.894   4.757  20.195  0.00  0.00    +0.000 C 
ATOM     14  N   UNL     1       2.576   4.775  21.377  0.00  0.00    +0.000 N 
ATOM     15  O   UNL     1       0.784   4.232  20.201  0.00  0.00    +0.000 OA
ATOM     16  H   UNL     1       3.504   5.149  21.506  0.00  0.00    +0.000 HD
ATOM     17  H   UNL     1       2.139   4.295  22.156  0.00  0.00    +0.000 HD
ENDBRANCH   7  13
ENDBRANCH   4   7
BRANCH   6  18
ATOM     18  C   UNL     1       0.378   9.515  21.196  0.00  0.00    +0.000 C 
ATOM     19  C   UNL     1       0.701   9.104  22.437  0.00  0.00    +0.000 C 
ATOM     20  C   UNL     1       0.047   9.634  23.682  0.00  0.00    +0.000 C 
ATOM     21  C   UNL     1      -1.217  10.445  23.399  0.00  0.00    +0.000 C 
ATOM     22  C   UNL     1      -1.019  11.370  22.201  0.00  0.00    +0.000 C 
ATOM     23  C   UNL     1      -0.668  10.568  20.938  0.00  0.00    +0.000 C 
ENDBRANCH   6  18
BRANCH   1  26
ATOM     24  C   UNL     1       0.432  11.889  18.474  0.00  0.00    +0.000 C 
ATOM     25  O   UNL     1      -0.513  11.318  17.932  0.00  0.00    +0.000 OA
ATOM     26  N   UNL     1       1.533  11.248  19.026  0.00  0.00    +0.000 N 
ATOM     27  H   UNL     1       2.320  11.827  19.303  0.00  0.00    +0.000 HD
BRANCH  24  31
ATOM     28  C   UNL     1       1.150  15.390  18.657  0.00  0.00    +0.000 A 
ATOM     29  C   UNL     1      -0.224  15.447  18.707  0.00  0.00    +0.000 A 
ATOM     30  N   UNL     1      -0.631  14.137  18.628  0.00  0.00    +0.000 N 
ATOM     31  C   UNL     1       0.484  13.344  18.546  0.00  0.00    +0.000 A 
ATOM     32  N   UNL     1       1.587  14.085  18.559  0.00  0.00    +0.000 NA
ATOM     33  H   UNL     1      -1.583  13.789  18.634  0.00  0.00    +0.000 HD
BRANCH  28  35
ATOM     34  N   UNL     1       2.825  17.394  18.705  0.00  0.00    +0.000 NA
ATOM     35  C   UNL     1       2.059  16.502  18.697  0.00  0.00    +0.000 C 
ENDBRANCH  28  35
ENDBRANCH  24  31
ENDBRANCH   1  26
TORSDOF 6
ENDMDL
