MODEL 1
REMARK VINA RESULT:      -8.2      0.000      0.000
REMARK  Name = 
REMARK  5 active torsions:
REMARK  status: ('A' for Active; 'I' for Inactive)
REMARK    1  A    between atoms: C_1  and  C_2
REMARK    2  A    between atoms: C_2  and  C_3
REMARK    3  A    between atoms: N_8  and  C_9
REMARK    4  A    between atoms: C_11  and  O_12
REMARK    5  A    between atoms: O_12  and  C_13
REMARK                            x       y       z     vdW  Elec       q    Type
REMARK                         _______ _______ _______ _____ _____    ______ ____
ROOT
ATOM      1  C   UNL     1       3.194   6.285  18.071  0.00  0.00    +0.000 A 
ATOM      2  C   UNL     1       4.392   6.696  17.456  0.00  0.00    +0.000 A 
ATOM      3  C   UNL     1       5.142   5.831  16.647  0.00  0.00    +0.000 A 
ATOM      4  C   UNL     1       4.666   4.535  16.418  0.00  0.00    +0.000 A 
ATOM      5 CL   UNL     1       5.519   3.421  15.409  0.00  0.00    +0.000 Cl
ATOM      6  C   UNL     1       3.479   4.104  17.008  0.00  0.00    +0.000 A 
ATOM      7  C   UNL     1       2.759   4.975  17.820  0.00  0.00    +0.000 A 
ATOM      8  F   UNL     1       1.572   4.544  18.269  0.00  0.00    +0.000 F 
ENDROOT
BRANCH   1  16
ATOM      9  C   UNL     1       0.072  10.497  21.151  0.00  0.00    +0.000 C 
ATOM     10  C   UNL     1       0.785  10.134  19.875  0.00  0.00    +0.000 C 
ATOM     11  C   UNL     1       0.878  11.209  18.826  0.00  0.00    +0.000 C 
ATOM     12  C   UNL     1       1.320   8.910  19.715  0.00  0.00    +0.000 C 
ATOM     13  O   UNL     1       1.281   7.951  20.710  0.00  0.00    +0.000 OA
ATOM     14  C   UNL     1       2.000   6.908  20.165  0.00  0.00    +0.000 C 
ATOM     15  O   UNL     1       2.192   5.889  20.820  0.00  0.00    +0.000 OA
ATOM     16  N   UNL     1       2.451   7.178  18.897  0.00  0.00    +0.000 N 
ATOM     17  C   UNL     1       1.990   8.398  18.504  0.00  0.00    +0.000 C 
ATOM     18  O   UNL     1       1.956   8.921  17.406  0.00  0.00    +0.000 OA
ENDBRANCH   1  16
BRANCH   3  19
ATOM     19  O   UNL     1       6.310   6.191  16.028  0.00  0.00    +0.000 OA
BRANCH  19  20
ATOM     20  C   UNL     1       7.496   6.304  16.815  0.00  0.00    +0.000 C 
ATOM     21  C   UNL     1       7.565   7.632  17.568  0.00  0.00    +0.000 C 
ATOM     22  C   UNL     1       8.374   7.311  18.810  0.00  0.00    +0.000 C 
ATOM     23  C   UNL     1       7.905   5.921  19.209  0.00  0.00    +0.000 C 
ATOM     24  C   UNL     1       7.469   5.235  17.915  0.00  0.00    +0.000 C 
ENDBRANCH  19  20
ENDBRANCH   3  19
TORSDOF 3
ENDMDL
MODEL 2
REMARK VINA RESULT:      -8.2      2.022      3.088
REMARK  Name = 
REMARK  5 active torsions:
REMARK  status: ('A' for Active; 'I' for Inactive)
REMARK    1  A    between atoms: C_1  and  C_2
REMARK    2  A    between atoms: C_2  and  C_3
REMARK    3  A    between atoms: N_8  and  C_9
REMARK    4  A    between atoms: C_11  and  O_12
REMARK    5  A    between atoms: O_12  and  C_13
REMARK                            x       y       z     vdW  Elec       q    Type
REMARK                         _______ _______ _______ _____ _____    ______ ____
ROOT
ATOM      1  C   UNL     1       2.497   6.499  19.639  0.00  0.00    +0.000 A 
ATOM      2  C   UNL     1       3.752   6.249  19.052  0.00  0.00    +0.000 A 
ATOM      3  C   UNL     1       4.353   4.983  19.101  0.00  0.00    +0.000 A 
ATOM      4  C   UNL     1       3.667   3.932  19.721  0.00  0.00    +0.000 A 
ATOM      5 CL   UNL     1       4.329   2.337  19.795  0.00  0.00    +0.000 Cl
ATOM      6  C   UNL     1       2.420   4.149  20.303  0.00  0.00    +0.000 A 
ATOM      7  C   UNL     1       1.850   5.418  20.256  0.00  0.00    +0.000 A 
ATOM      8  F   UNL     1       0.603   5.541  20.733  0.00  0.00    +0.000 F 
ENDROOT
BRANCH   1  16
ATOM      9  C   UNL     1      -0.166  11.953  19.984  0.00  0.00    +0.000 C 
ATOM     10  C   UNL     1       0.216  10.687  20.703  0.00  0.00    +0.000 C 
ATOM     11  C   UNL     1      -0.229  10.563  22.135  0.00  0.00    +0.000 C 
ATOM     12  C   UNL     1       0.906   9.721  20.067  0.00  0.00    +0.000 C 
ATOM     13  O   UNL     1       1.256   9.822  18.733  0.00  0.00    +0.000 OA
ATOM     14  C   UNL     1       1.861   8.607  18.480  0.00  0.00    +0.000 C 
ATOM     15  O   UNL     1       2.264   8.350  17.351  0.00  0.00    +0.000 OA
ATOM     16  N   UNL     1       1.909   7.795  19.585  0.00  0.00    +0.000 N 
ATOM     17  C   UNL     1       1.399   8.462  20.658  0.00  0.00    +0.000 C 
ATOM     18  O   UNL     1       1.452   8.217  21.848  0.00  0.00    +0.000 OA
ENDBRANCH   1  16
BRANCH   3  19
ATOM     19  O   UNL     1       5.570   4.697  18.541  0.00  0.00    +0.000 OA
BRANCH  19  20
ATOM     20  C   UNL     1       5.835   5.146  17.211  0.00  0.00    +0.000 C 
ATOM     21  C   UNL     1       7.266   4.840  16.773  0.00  0.00    +0.000 C 
ATOM     22  C   UNL     1       7.166   4.677  15.269  0.00  0.00    +0.000 C 
ATOM     23  C   UNL     1       5.846   3.952  15.062  0.00  0.00    +0.000 C 
ATOM     24  C   UNL     1       4.954   4.357  16.233  0.00  0.00    +0.000 C 
ENDBRANCH  19  20
ENDBRANCH   3  19
TORSDOF 3
ENDMDL
MODEL 3
REMARK VINA RESULT:      -8.0      3.469      5.138
REMARK  Name = 
REMARK  5 active torsions:
REMARK  status: ('A' for Active; 'I' for Inactive)
REMARK    1  A    between atoms: C_1  and  C_2
REMARK    2  A    between atoms: C_2  and  C_3
REMARK    3  A    between atoms: N_8  and  C_9
REMARK    4  A    between atoms: C_11  and  O_12
REMARK    5  A    between atoms: O_12  and  C_13
REMARK                            x       y       z     vdW  Elec       q    Type
REMARK                         _______ _______ _______ _____ _____    ______ ____
ROOT
ATOM      1  C   UNL     1       1.232   9.156  19.337  0.00  0.00    +0.000 A 
ATOM      2  C   UNL     1       1.480   7.986  20.079  0.00  0.00    +0.000 A 
ATOM      3  C   UNL     1       2.356   6.991  19.621  0.00  0.00    +0.000 A 
ATOM      4  C   UNL     1       3.026   7.185  18.408  0.00  0.00    +0.000 A 
ATOM      5 CL   UNL     1       4.142   6.018  17.792  0.00  0.00    +0.000 Cl
ATOM      6  C   UNL     1       2.806   8.338  17.656  0.00  0.00    +0.000 A 
ATOM      7  C   UNL     1       1.920   9.305  18.123  0.00  0.00    +0.000 A 
ATOM      8  F   UNL     1       1.833  10.440  17.415  0.00  0.00    +0.000 F 
ENDROOT
BRANCH   1  16
ATOM      9  C   UNL     1      -2.948  13.281  20.907  0.00  0.00    +0.000 C 
ATOM     10  C   UNL     1      -2.529  12.218  19.928  0.00  0.00    +0.000 C 
ATOM     11  C   UNL     1      -3.429  12.002  18.741  0.00  0.00    +0.000 C 
ATOM     12  C   UNL     1      -1.393  11.523  20.118  0.00  0.00    +0.000 C 
ATOM     13  O   UNL     1      -0.544  11.772  21.181  0.00  0.00    +0.000 OA
ATOM     14  C   UNL     1       0.509  10.912  20.945  0.00  0.00    +0.000 C 
ATOM     15  O   UNL     1       1.475  10.907  21.701  0.00  0.00    +0.000 OA
ATOM     16  N   UNL     1       0.333  10.150  19.817  0.00  0.00    +0.000 N 
ATOM     17  C   UNL     1      -0.891  10.417  19.279  0.00  0.00    +0.000 C 
ATOM     18  O   UNL     1      -1.536   9.826  18.434  0.00  0.00    +0.000 OA
ENDBRANCH   1  16
BRANCH   3  19
ATOM     19  O   UNL     1       2.627   5.840  20.313  0.00  0.00    +0.000 OA
BRANCH  19  20
ATOM     20  C   UNL     1       1.590   4.869  20.461  0.00  0.00    +0.000 C 
ATOM     21  C   UNL     1       1.351   4.077  19.177  0.00  0.00    +0.000 C 
ATOM     22  C   UNL     1       0.849   2.730  19.660  0.00  0.00    +0.000 C 
ATOM     23  C   UNL     1       1.675   2.452  20.905  0.00  0.00    +0.000 C 
ATOM     24  C   UNL     1       2.035   3.818  21.487  0.00  0.00    +0.000 C 
ENDBRANCH  19  20
ENDBRANCH   3  19
TORSDOF 3
ENDMDL
MODEL 4
REMARK VINA RESULT:      -8.0      3.333      4.822
REMARK  Name = 
REMARK  5 active torsions:
REMARK  status: ('A' for Active; 'I' for Inactive)
REMARK    1  A    between atoms: C_1  and  C_2
REMARK    2  A    between atoms: C_2  and  C_3
REMARK    3  A    between atoms: N_8  and  C_9
REMARK    4  A    between atoms: C_11  and  O_12
REMARK    5  A    between atoms: O_12  and  C_13
REMARK                            x       y       z     vdW  Elec       q    Type
REMARK                         _______ _______ _______ _____ _____    ______ ____
ROOT
ATOM      1  C   UNL     1       1.513   8.782  19.709  0.00  0.00    +0.000 A 
ATOM      2  C   UNL     1       1.826   7.497  20.191  0.00  0.00    +0.000 A 
ATOM      3  C   UNL     1       2.580   6.588  19.436  0.00  0.00    +0.000 A 
ATOM      4  C   UNL     1       3.062   6.983  18.183  0.00  0.00    +0.000 A 
ATOM      5 CL   UNL     1       4.022   5.929  17.207  0.00  0.00    +0.000 Cl
ATOM      6  C   UNL     1       2.774   8.252  17.685  0.00  0.00    +0.000 A 
ATOM      7  C   UNL     1       2.010   9.134  18.445  0.00  0.00    +0.000 A 
ATOM      8  F   UNL     1       1.859  10.376  17.965  0.00  0.00    +0.000 F 
ENDROOT
BRANCH   1  16
ATOM      9  C   UNL     1      -2.103  12.766  22.541  0.00  0.00    +0.000 C 
ATOM     10  C   UNL     1      -1.768  12.056  21.256  0.00  0.00    +0.000 C 
ATOM     11  C   UNL     1      -2.580  12.431  20.046  0.00  0.00    +0.000 C 
ATOM     12  C   UNL     1      -0.774  11.150  21.215  0.00  0.00    +0.000 C 
ATOM     13  O   UNL     1       0.005  10.858  22.320  0.00  0.00    +0.000 OA
ATOM     14  C   UNL     1       0.929   9.963  21.821  0.00  0.00    +0.000 C 
ATOM     15  O   UNL     1       1.811   9.525  22.551  0.00  0.00    +0.000 OA
ATOM     16  N   UNL     1       0.739   9.688  20.490  0.00  0.00    +0.000 N 
ATOM     17  C   UNL     1      -0.376  10.337  20.050  0.00  0.00    +0.000 C 
ATOM     18  O   UNL     1      -1.026  10.202  19.031  0.00  0.00    +0.000 OA
ENDBRANCH   1  16
BRANCH   3  19
ATOM     19  O   UNL     1       2.910   5.330  19.868  0.00  0.00    +0.000 OA
BRANCH  19  20
ATOM     20  C   UNL     1       1.881   4.343  19.955  0.00  0.00    +0.000 C 
ATOM     21  C   UNL     1       1.326   3.966  18.583  0.00  0.00    +0.000 C 
ATOM     22  C   UNL     1       0.871   2.528  18.751  0.00  0.00    +0.000 C 
ATOM     23  C   UNL     1       1.932   1.905  19.642  0.00  0.00    +0.000 C 
ATOM     24  C   UNL     1       2.482   3.042  20.502  0.00  0.00    +0.000 C 
ENDBRANCH  19  20
ENDBRANCH   3  19
TORSDOF 3
ENDMDL
MODEL 5
REMARK VINA RESULT:      -7.9      2.368      4.244
REMARK  Name = 
REMARK  5 active torsions:
REMARK  status: ('A' for Active; 'I' for Inactive)
REMARK    1  A    between atoms: C_1  and  C_2
REMARK    2  A    between atoms: C_2  and  C_3
REMARK    3  A    between atoms: N_8  and  C_9
REMARK    4  A    between atoms: C_11  and  O_12
REMARK    5  A    between atoms: O_12  and  C_13
REMARK                            x       y       z     vdW  Elec       q    Type
REMARK                         _______ _______ _______ _____ _____    ______ ____
ROOT
ATOM      1  C   UNL     1       2.631   6.907  18.346  0.00  0.00    +0.000 A 
ATOM      2  C   UNL     1       2.056   5.622  18.341  0.00  0.00    +0.000 A 
ATOM      3  C   UNL     1       2.707   4.523  17.762  0.00  0.00    +0.000 A 
ATOM      4  C   UNL     1       3.977   4.705  17.205  0.00  0.00    +0.000 A 
ATOM      5 CL   UNL     1       4.853   3.393  16.499  0.00  0.00    +0.000 Cl
ATOM      6  C   UNL     1       4.573   5.964  17.202  0.00  0.00    +0.000 A 
ATOM      7  C   UNL     1       3.902   7.044  17.769  0.00  0.00    +0.000 A 
ATOM      8  F   UNL     1       4.569   8.205  17.837  0.00  0.00    +0.000 F 
ENDROOT
BRANCH   1  16
ATOM      9  C   UNL     1      -0.354  11.278  21.336  0.00  0.00    +0.000 C 
ATOM     10  C   UNL     1       0.205   9.881  21.369  0.00  0.00    +0.000 C 
ATOM     11  C   UNL     1      -0.050   9.082  22.619  0.00  0.00    +0.000 C 
ATOM     12  C   UNL     1       0.877   9.388  20.313  0.00  0.00    +0.000 C 
ATOM     13  O   UNL     1       1.052  10.111  19.147  0.00  0.00    +0.000 OA
ATOM     14  C   UNL     1       1.705   9.217  18.324  0.00  0.00    +0.000 C 
ATOM     15  O   UNL     1       1.983   9.537  17.173  0.00  0.00    +0.000 OA
ATOM     16  N   UNL     1       1.949   8.011  18.932  0.00  0.00    +0.000 N 
ATOM     17  C   UNL     1       1.529   8.067  20.227  0.00  0.00    +0.000 C 
ATOM     18  O   UNL     1       1.748   7.328  21.169  0.00  0.00    +0.000 OA
ENDBRANCH   1  16
BRANCH   3  19
ATOM     19  O   UNL     1       2.184   3.256  17.739  0.00  0.00    +0.000 OA
BRANCH  19  20
ATOM     20  C   UNL     1       2.129   2.515  18.959  0.00  0.00    +0.000 C 
ATOM     21  C   UNL     1       3.266   2.884  19.910  0.00  0.00    +0.000 C 
ATOM     22  C   UNL     1       2.688   2.632  21.290  0.00  0.00    +0.000 C 
ATOM     23  C   UNL     1       1.245   3.095  21.178  0.00  0.00    +0.000 C 
ATOM     24  C   UNL     1       0.850   2.895  19.716  0.00  0.00    +0.000 C 
ENDBRANCH  19  20
ENDBRANCH   3  19
TORSDOF 3
ENDMDL
MODEL 6
REMARK VINA RESULT:      -7.9      3.440      5.250
REMARK  Name = 
REMARK  5 active torsions:
REMARK  status: ('A' for Active; 'I' for Inactive)
REMARK    1  A    between atoms: C_1  and  C_2
REMARK    2  A    between atoms: C_2  and  C_3
REMARK    3  A    between atoms: N_8  and  C_9
REMARK    4  A    between atoms: C_11  and  O_12
REMARK    5  A    between atoms: O_12  and  C_13
REMARK                            x       y       z     vdW  Elec       q    Type
REMARK                         _______ _______ _______ _____ _____    ______ ____
ROOT
ATOM      1  C   UNL     1       1.139   9.091  19.218  0.00  0.00    +0.000 A 
ATOM      2  C   UNL     1       1.357   7.946  20.007  0.00  0.00    +0.000 A 
ATOM      3  C   UNL     1       2.328   6.991  19.673  0.00  0.00    +0.000 A 
ATOM      4  C   UNL     1       3.123   7.202  18.541  0.00  0.00    +0.000 A 
ATOM      5 CL   UNL     1       4.359   6.085  18.081  0.00  0.00    +0.000 Cl
ATOM      6  C   UNL     1       2.934   8.330  17.746  0.00  0.00    +0.000 A 
ATOM      7  C   UNL     1       1.954   9.258  18.088  0.00  0.00    +0.000 A 
ATOM      8  F   UNL     1       1.893  10.375  17.351  0.00  0.00    +0.000 F 
ENDROOT
BRANCH   1  16
ATOM      9  C   UNL     1      -2.822  13.235  21.245  0.00  0.00    +0.000 C 
ATOM     10  C   UNL     1      -1.555  12.464  21.507  0.00  0.00    +0.000 C 
ATOM     11  C   UNL     1      -0.892  12.689  22.839  0.00  0.00    +0.000 C 
ATOM     12  C   UNL     1      -1.073  11.608  20.587  0.00  0.00    +0.000 C 
ATOM     13  O   UNL     1      -1.725  11.365  19.392  0.00  0.00    +0.000 OA
ATOM     14  C   UNL     1      -0.946  10.387  18.807  0.00  0.00    +0.000 C 
ATOM     15  O   UNL     1      -1.274   9.910  17.727  0.00  0.00    +0.000 OA
ATOM     16  N   UNL     1       0.142  10.045  19.571  0.00  0.00    +0.000 N 
ATOM     17  C   UNL     1       0.181  10.835  20.680  0.00  0.00    +0.000 C 
ATOM     18  O   UNL     1       1.067  11.028  21.491  0.00  0.00    +0.000 OA
ENDBRANCH   1  16
BRANCH   3  19
ATOM     19  O   UNL     1       2.574   5.866  20.415  0.00  0.00    +0.000 OA
BRANCH  19  20
ATOM     20  C   UNL     1       1.560   4.863  20.496  0.00  0.00    +0.000 C 
ATOM     21  C   UNL     1       1.358   4.137  19.167  0.00  0.00    +0.000 C 
ATOM     22  C   UNL     1       0.883   2.754  19.570  0.00  0.00    +0.000 C 
ATOM     23  C   UNL     1       1.700   2.428  20.810  0.00  0.00    +0.000 C 
ATOM     24  C   UNL     1       2.018   3.769  21.470  0.00  0.00    +0.000 C 
ENDBRANCH  19  20
ENDBRANCH   3  19
TORSDOF 3
ENDMDL
MODEL 7
REMARK VINA RESULT:      -7.9      1.270      1.524
REMARK  Name = 
REMARK  5 active torsions:
REMARK  status: ('A' for Active; 'I' for Inactive)
REMARK    1  A    between atoms: C_1  and  C_2
REMARK    2  A    between atoms: C_2  and  C_3
REMARK    3  A    between atoms: N_8  and  C_9
REMARK    4  A    between atoms: C_11  and  O_12
REMARK    5  A    between atoms: O_12  and  C_13
REMARK                            x       y       z     vdW  Elec       q    Type
REMARK                         _______ _______ _______ _____ _____    ______ ____
ROOT
ATOM      1  C   UNL     1       3.193   5.476  18.833  0.00  0.00    +0.000 A 
ATOM      2  C   UNL     1       4.579   5.344  19.043  0.00  0.00    +0.000 A 
ATOM      3  C   UNL     1       5.388   4.585  18.185  0.00  0.00    +0.000 A 
ATOM      4  C   UNL     1       4.805   3.971  17.071  0.00  0.00    +0.000 A 
ATOM      5 CL   UNL     1       5.742   3.044  15.953  0.00  0.00    +0.000 Cl
ATOM      6  C   UNL     1       3.437   4.091  16.834  0.00  0.00    +0.000 A 
ATOM      7  C   UNL     1       2.650   4.837  17.708  0.00  0.00    +0.000 A 
ATOM      8  F   UNL     1       1.365   5.009  17.370  0.00  0.00    +0.000 F 
ENDROOT
BRANCH   1  16
ATOM      9  C   UNL     1      -0.107   9.236  22.287  0.00  0.00    +0.000 C 
ATOM     10  C   UNL     1       0.767   9.078  21.072  0.00  0.00    +0.000 C 
ATOM     11  C   UNL     1       1.078  10.330  20.297  0.00  0.00    +0.000 C 
ATOM     12  C   UNL     1       1.249   7.869  20.728  0.00  0.00    +0.000 C 
ATOM     13  O   UNL     1       1.005   6.736  21.483  0.00  0.00    +0.000 OA
ATOM     14  C   UNL     1       1.737   5.766  20.830  0.00  0.00    +0.000 C 
ATOM     15  O   UNL     1       1.769   4.623  21.274  0.00  0.00    +0.000 OA
ATOM     16  N   UNL     1       2.388   6.245  19.721  0.00  0.00    +0.000 N 
ATOM     17  C   UNL     1       2.062   7.555  19.538  0.00  0.00    +0.000 C 
ATOM     18  O   UNL     1       2.223   8.290  18.582  0.00  0.00    +0.000 OA
ENDBRANCH   1  16
BRANCH   3  19
ATOM     19  O   UNL     1       6.740   4.434  18.352  0.00  0.00    +0.000 OA
BRANCH  19  20
ATOM     20  C   UNL     1       7.611   5.445  17.842  0.00  0.00    +0.000 C 
ATOM     21  C   UNL     1       6.859   6.501  17.034  0.00  0.00    +0.000 C 
ATOM     22  C   UNL     1       7.685   7.761  17.213  0.00  0.00    +0.000 C 
ATOM     23  C   UNL     1       8.141   7.701  18.661  0.00  0.00    +0.000 C 
ATOM     24  C   UNL     1       8.220   6.219  19.019  0.00  0.00    +0.000 C 
ENDBRANCH  19  20
ENDBRANCH   3  19
TORSDOF 3
ENDMDL
MODEL 8
REMARK VINA RESULT:      -7.7      1.375      2.311
REMARK  Name = 
REMARK  5 active torsions:
REMARK  status: ('A' for Active; 'I' for Inactive)
REMARK    1  A    between atoms: C_1  and  C_2
REMARK    2  A    between atoms: C_2  and  C_3
REMARK    3  A    between atoms: N_8  and  C_9
REMARK    4  A    between atoms: C_11  and  O_12
REMARK    5  A    between atoms: O_12  and  C_13
REMARK                            x       y       z     vdW  Elec       q    Type
REMARK                         _______ _______ _______ _____ _____    ______ ____
ROOT
ATOM      1  C   UNL     1       2.756   6.045  18.624  0.00  0.00    +0.000 A 
ATOM      2  C   UNL     1       4.088   5.743  18.962  0.00  0.00    +0.000 A 
ATOM      3  C   UNL     1       4.676   4.515  18.628  0.00  0.00    +0.000 A 
ATOM      4  C   UNL     1       3.924   3.579  17.908  0.00  0.00    +0.000 A 
ATOM      5 CL   UNL     1       4.588   2.055  17.434  0.00  0.00    +0.000 Cl
ATOM      6  C   UNL     1       2.605   3.855  17.554  0.00  0.00    +0.000 A 
ATOM      7  C   UNL     1       2.038   5.075  17.910  0.00  0.00    +0.000 A 
ATOM      8  F   UNL     1       0.806   5.329  17.447  0.00  0.00    +0.000 F 
ENDROOT
BRANCH   1  16
ATOM      9  C   UNL     1       0.086  11.119  20.649  0.00  0.00    +0.000 C 
ATOM     10  C   UNL     1       0.412   9.673  20.910  0.00  0.00    +0.000 C 
ATOM     11  C   UNL     1      -0.139   9.076  22.177  0.00  0.00    +0.000 C 
ATOM     12  C   UNL     1       1.144   8.967  20.029  0.00  0.00    +0.000 C 
ATOM     13  O   UNL     1       1.593   9.510  18.839  0.00  0.00    +0.000 OA
ATOM     14  C   UNL     1       2.212   8.441  18.224  0.00  0.00    +0.000 C 
ATOM     15  O   UNL     1       2.697   8.577  17.106  0.00  0.00    +0.000 OA
ATOM     16  N   UNL     1       2.176   7.297  18.981  0.00  0.00    +0.000 N 
ATOM     17  C   UNL     1       1.589   7.568  20.181  0.00  0.00    +0.000 C 
ATOM     18  O   UNL     1       1.554   6.927  21.214  0.00  0.00    +0.000 OA
ENDBRANCH   1  16
BRANCH   3  19
ATOM     19  O   UNL     1       5.969   4.182  18.934  0.00  0.00    +0.000 OA
BRANCH  19  20
ATOM     20  C   UNL     1       7.029   4.842  18.242  0.00  0.00    +0.000 C 
ATOM     21  C   UNL     1       6.512   5.780  17.153  0.00  0.00    +0.000 C 
ATOM     22  C   UNL     1       7.572   6.862  17.063  0.00  0.00    +0.000 C 
ATOM     23  C   UNL     1       7.995   7.088  18.505  0.00  0.00    +0.000 C 
ATOM     24  C   UNL     1       7.771   5.760  19.224  0.00  0.00    +0.000 C 
ENDBRANCH  19  20
ENDBRANCH   3  19
TORSDOF 3
ENDMDL
MODEL 9
REMARK VINA RESULT:      -7.7      2.747      6.786
REMARK  Name = 
REMARK  5 active torsions:
REMARK  status: ('A' for Active; 'I' for Inactive)
REMARK    1  A    between atoms: C_1  and  C_2
REMARK    2  A    between atoms: C_2  and  C_3
REMARK    3  A    between atoms: N_8  and  C_9
REMARK    4  A    between atoms: C_11  and  O_12
REMARK    5  A    between atoms: O_12  and  C_13
REMARK                            x       y       z     vdW  Elec       q    Type
REMARK                         _______ _______ _______ _____ _____    ______ ____
ROOT
ATOM      1  C   UNL     1       4.714   5.139  17.765  0.00  0.00    +0.000 A 
ATOM      2  C   UNL     1       3.680   6.079  17.929  0.00  0.00    +0.000 A 
ATOM      3  C   UNL     1       2.729   5.962  18.953  0.00  0.00    +0.000 A 
ATOM      4  C   UNL     1       2.834   4.898  19.856  0.00  0.00    +0.000 A 
ATOM      5 CL   UNL     1       1.717   4.704  21.160  0.00  0.00    +0.000 Cl
ATOM      6  C   UNL     1       3.853   3.957  19.723  0.00  0.00    +0.000 A 
ATOM      7  C   UNL     1       4.777   4.085  18.689  0.00  0.00    +0.000 A 
ATOM      8  F   UNL     1       5.797   3.216  18.677  0.00  0.00    +0.000 F 
ENDROOT
BRANCH   1  16
ATOM      9  C   UNL     1       8.437   5.322  12.962  0.00  0.00    +0.000 C 
ATOM     10  C   UNL     1       7.168   4.773  13.556  0.00  0.00    +0.000 C 
ATOM     11  C   UNL     1       6.400   3.789  12.714  0.00  0.00    +0.000 C 
ATOM     12  C   UNL     1       6.772   5.144  14.787  0.00  0.00    +0.000 C 
ATOM     13  O   UNL     1       7.518   6.001  15.575  0.00  0.00    +0.000 OA
ATOM     14  C   UNL     1       6.802   6.040  16.754  0.00  0.00    +0.000 C 
ATOM     15  O   UNL     1       7.221   6.697  17.701  0.00  0.00    +0.000 OA
ATOM     16  N   UNL     1       5.665   5.273  16.713  0.00  0.00    +0.000 N 
ATOM     17  C   UNL     1       5.528   4.736  15.468  0.00  0.00    +0.000 C 
ATOM     18  O   UNL     1       4.579   4.194  14.934  0.00  0.00    +0.000 OA
ENDBRANCH   1  16
BRANCH   3  19
ATOM     19  O   UNL     1       1.709   6.856  19.148  0.00  0.00    +0.000 OA
BRANCH  19  20
ATOM     20  C   UNL     1       2.023   8.246  19.235  0.00  0.00    +0.000 C 
ATOM     21  C   UNL     1       1.608   9.011  17.979  0.00  0.00    +0.000 C 
ATOM     22  C   UNL     1       1.316  10.413  18.480  0.00  0.00    +0.000 C 
ATOM     23  C   UNL     1       0.643  10.194  19.825  0.00  0.00    +0.000 C 
ATOM     24  C   UNL     1       1.196   8.875  20.363  0.00  0.00    +0.000 C 
ENDBRANCH  19  20
ENDBRANCH   3  19
TORSDOF 3
ENDMDL
