MODEL 1
REMARK VINA RESULT:      -7.7      0.000      0.000
REMARK  Name = 
REMARK  10 active torsions:
REMARK  status: ('A' for Active; 'I' for Inactive)
REMARK    1  A    between atoms: C_1  and  N_2
REMARK    2  A    between atoms: N_2  and  C_3
REMARK    3  A    between atoms: N_2  and  C_21
REMARK    4  A    between atoms: C_3  and  C_4
REMARK    5  A    between atoms: C_4  and  C_5
REMARK    6  A    between atoms: C_5  and  O_6
REMARK    7  A    between atoms: C_5  and  C_15
REMARK    8  A    between atoms: O_6  and  C_7
REMARK    9  A    between atoms: C_21  and  C_22
REMARK   10  A    between atoms: C_22  and  O_24
REMARK                            x       y       z     vdW  Elec       q    Type
REMARK                         _______ _______ _______ _____ _____    ______ ____
ROOT
ATOM      1  C   UNL     1       3.778   5.631  17.702  0.00  0.00    +0.000 C 
ENDROOT
BRANCH   1   2
ATOM      2  C   UNL     1       5.243   5.953  17.981  0.00  0.00    +0.000 A 
ATOM      3  C   UNL     1       5.909   5.329  19.046  0.00  0.00    +0.000 A 
ATOM      4  C   UNL     1       7.245   5.623  19.314  0.00  0.00    +0.000 A 
ATOM      5  C   UNL     1       7.928   6.552  18.530  0.00  0.00    +0.000 A 
ATOM      6  C   UNL     1       7.277   7.185  17.473  0.00  0.00    +0.000 A 
ATOM      7  C   UNL     1       5.941   6.892  17.201  0.00  0.00    +0.000 A 
ENDBRANCH   1   2
BRANCH   1   8
ATOM      8  C   UNL     1       3.723   4.180  17.186  0.00  0.00    +0.000 C 
BRANCH   8   9
ATOM      9  C   UNL     1       2.504   3.361  17.630  0.00  0.00    +0.000 C 
BRANCH   9  11
ATOM     10  C   UNL     1       3.623   1.376  18.476  0.00  0.00    +0.000 C 
ATOM     11  N   UNL     1       2.793   2.529  18.825  0.00  0.00    +0.000 NA
BRANCH  11  12
ATOM     12  C   UNL     1       1.590   2.126  19.586  0.00  0.00    +0.000 C 
BRANCH  12  13
ATOM     13  C   UNL     1       1.309   2.991  20.812  0.00  0.00    +0.000 C 
ATOM     14  O   UNL     1       1.632   2.708  21.962  0.00  0.00    +0.000 OA
BRANCH  13  15
ATOM     15  O   UNL     1       0.678   4.155  20.517  0.00  0.00    +0.000 OA
ATOM     16  H   UNL     1      -0.289   4.123  20.654  0.00  0.00    +0.000 HD
ENDBRANCH  13  15
ENDBRANCH  12  13
ENDBRANCH  11  12
ENDBRANCH   9  11
ENDBRANCH   8   9
ENDBRANCH   1   8
BRANCH   1  17
ATOM     17  O   UNL     1       2.979   5.771  18.892  0.00  0.00    +0.000 OA
BRANCH  17  18
ATOM     18  C   UNL     1       2.349   6.976  19.074  0.00  0.00    +0.000 A 
ATOM     19  C   UNL     1       2.190   7.750  17.923  0.00  0.00    +0.000 A 
ATOM     20  C   UNL     1       1.657   9.040  18.008  0.00  0.00    +0.000 A 
ATOM     21  C   UNL     1       1.246   9.552  19.242  0.00  0.00    +0.000 A 
ATOM     22 CL   UNL     1       0.687  11.184  19.299  0.00  0.00    +0.000 Cl
ATOM     23  C   UNL     1       1.318   8.745  20.379  0.00  0.00    +0.000 A 
ATOM     24 CL   UNL     1       0.764   9.273  21.930  0.00  0.00    +0.000 Cl
ATOM     25  C   UNL     1       1.865   7.462  20.291  0.00  0.00    +0.000 A 
ENDBRANCH  17  18
ENDBRANCH   1  17
TORSDOF 9
ENDMDL
MODEL 2
REMARK VINA RESULT:      -7.3      2.360      5.055
REMARK  Name = 
REMARK  10 active torsions:
REMARK  status: ('A' for Active; 'I' for Inactive)
REMARK    1  A    between atoms: C_1  and  N_2
REMARK    2  A    between atoms: N_2  and  C_3
REMARK    3  A    between atoms: N_2  and  C_21
REMARK    4  A    between atoms: C_3  and  C_4
REMARK    5  A    between atoms: C_4  and  C_5
REMARK    6  A    between atoms: C_5  and  O_6
REMARK    7  A    between atoms: C_5  and  C_15
REMARK    8  A    between atoms: O_6  and  C_7
REMARK    9  A    between atoms: C_21  and  C_22
REMARK   10  A    between atoms: C_22  and  O_24
REMARK                            x       y       z     vdW  Elec       q    Type
REMARK                         _______ _______ _______ _____ _____    ______ ____
ROOT
ATOM      1  C   UNL     1       3.521   5.952  19.541  0.00  0.00    +0.000 C 
ENDROOT
BRANCH   1   2
ATOM      2  C   UNL     1       2.552   4.774  19.563  0.00  0.00    +0.000 A 
ATOM      3  C   UNL     1       2.108   4.207  18.358  0.00  0.00    +0.000 A 
ATOM      4  C   UNL     1       1.217   3.136  18.368  0.00  0.00    +0.000 A 
ATOM      5  C   UNL     1       0.749   2.625  19.578  0.00  0.00    +0.000 A 
ATOM      6  C   UNL     1       1.175   3.183  20.781  0.00  0.00    +0.000 A 
ATOM      7  C   UNL     1       2.069   4.254  20.776  0.00  0.00    +0.000 A 
ENDBRANCH   1   2
BRANCH   1   8
ATOM      8  C   UNL     1       4.916   5.386  19.217  0.00  0.00    +0.000 C 
BRANCH   8   9
ATOM      9  C   UNL     1       5.483   5.756  17.840  0.00  0.00    +0.000 C 
BRANCH   9  11
ATOM     10  C   UNL     1       7.520   7.013  17.422  0.00  0.00    +0.000 C 
ATOM     11  N   UNL     1       6.966   5.717  17.815  0.00  0.00    +0.000 NA
BRANCH  11  12
ATOM     12  C   UNL     1       7.529   4.613  17.007  0.00  0.00    +0.000 C 
BRANCH  12  13
ATOM     13  C   UNL     1       7.110   4.638  15.539  0.00  0.00    +0.000 C 
ATOM     14  O   UNL     1       7.627   5.334  14.672  0.00  0.00    +0.000 OA
BRANCH  13  15
ATOM     15  O   UNL     1       6.103   3.775  15.252  0.00  0.00    +0.000 OA
ATOM     16  H   UNL     1       5.408   3.742  15.938  0.00  0.00    +0.000 HD
ENDBRANCH  13  15
ENDBRANCH  12  13
ENDBRANCH  11  12
ENDBRANCH   9  11
ENDBRANCH   8   9
ENDBRANCH   1   8
BRANCH   1  17
ATOM     17  O   UNL     1       3.134   6.926  18.553  0.00  0.00    +0.000 OA
BRANCH  17  18
ATOM     18  C   UNL     1       2.223   7.874  18.946  0.00  0.00    +0.000 A 
ATOM     19  C   UNL     1       1.754   8.713  17.934  0.00  0.00    +0.000 A 
ATOM     20  C   UNL     1       0.905   9.781  18.239  0.00  0.00    +0.000 A 
ATOM     21  C   UNL     1       0.489   9.995  19.555  0.00  0.00    +0.000 A 
ATOM     22 CL   UNL     1      -0.480  11.386  19.885  0.00  0.00    +0.000 Cl
ATOM     23  C   UNL     1       0.881   9.103  20.555  0.00  0.00    +0.000 A 
ATOM     24 CL   UNL     1       0.354   9.253  22.195  0.00  0.00    +0.000 Cl
ATOM     25  C   UNL     1       1.742   8.046  20.246  0.00  0.00    +0.000 A 
ENDBRANCH  17  18
ENDBRANCH   1  17
TORSDOF 9
ENDMDL
MODEL 3
REMARK VINA RESULT:      -7.3      2.263      4.945
REMARK  Name = 
REMARK  10 active torsions:
REMARK  status: ('A' for Active; 'I' for Inactive)
REMARK    1  A    between atoms: C_1  and  N_2
REMARK    2  A    between atoms: N_2  and  C_3
REMARK    3  A    between atoms: N_2  and  C_21
REMARK    4  A    between atoms: C_3  and  C_4
REMARK    5  A    between atoms: C_4  and  C_5
REMARK    6  A    between atoms: C_5  and  O_6
REMARK    7  A    between atoms: C_5  and  C_15
REMARK    8  A    between atoms: O_6  and  C_7
REMARK    9  A    between atoms: C_21  and  C_22
REMARK   10  A    between atoms: C_22  and  O_24
REMARK                            x       y       z     vdW  Elec       q    Type
REMARK                         _______ _______ _______ _____ _____    ______ ____
ROOT
ATOM      1  C   UNL     1       3.594   5.766  19.361  0.00  0.00    +0.000 C 
ENDROOT
BRANCH   1   2
ATOM      2  C   UNL     1       2.583   4.636  19.533  0.00  0.00    +0.000 A 
ATOM      3  C   UNL     1       2.264   4.169  20.817  0.00  0.00    +0.000 A 
ATOM      4  C   UNL     1       1.349   3.132  20.983  0.00  0.00    +0.000 A 
ATOM      5  C   UNL     1       0.750   2.540  19.871  0.00  0.00    +0.000 A 
ATOM      6  C   UNL     1       1.063   2.990  18.591  0.00  0.00    +0.000 A 
ATOM      7  C   UNL     1       1.977   4.029  18.420  0.00  0.00    +0.000 A 
ENDBRANCH   1   2
BRANCH   1   8
ATOM      8  C   UNL     1       4.919   5.124  18.909  0.00  0.00    +0.000 C 
BRANCH   8   9
ATOM      9  C   UNL     1       5.122   5.013  17.392  0.00  0.00    +0.000 C 
BRANCH   9  11
ATOM     10  C   UNL     1       7.116   4.517  16.093  0.00  0.00    +0.000 C 
ATOM     11  N   UNL     1       6.463   5.490  16.969  0.00  0.00    +0.000 NA
BRANCH  11  12
ATOM     12  C   UNL     1       7.341   5.894  18.090  0.00  0.00    +0.000 C 
BRANCH  12  13
ATOM     13  C   UNL     1       7.841   7.333  18.002  0.00  0.00    +0.000 C 
ATOM     14  O   UNL     1       7.525   8.136  17.130  0.00  0.00    +0.000 OA
BRANCH  13  15
ATOM     15  O   UNL     1       8.671   7.677  19.018  0.00  0.00    +0.000 OA
ATOM     16  H   UNL     1       8.753   8.642  19.149  0.00  0.00    +0.000 HD
ENDBRANCH  13  15
ENDBRANCH  12  13
ENDBRANCH  11  12
ENDBRANCH   9  11
ENDBRANCH   8   9
ENDBRANCH   1   8
BRANCH   1  17
ATOM     17  O   UNL     1       3.142   6.724  18.384  0.00  0.00    +0.000 OA
BRANCH  17  18
ATOM     18  C   UNL     1       2.299   7.710  18.831  0.00  0.00    +0.000 A 
ATOM     19  C   UNL     1       1.859   8.610  17.860  0.00  0.00    +0.000 A 
ATOM     20  C   UNL     1       1.083   9.716  18.221  0.00  0.00    +0.000 A 
ATOM     21  C   UNL     1       0.711   9.908  19.555  0.00  0.00    +0.000 A 
ATOM     22 CL   UNL     1      -0.164  11.342  19.955  0.00  0.00    +0.000 Cl
ATOM     23  C   UNL     1       1.071   8.960  20.513  0.00  0.00    +0.000 A 
ATOM     24 CL   UNL     1       0.592   9.083  22.170  0.00  0.00    +0.000 Cl
ATOM     25  C   UNL     1       1.860   7.864  20.148  0.00  0.00    +0.000 A 
ENDBRANCH  17  18
ENDBRANCH   1  17
TORSDOF 9
ENDMDL
MODEL 4
REMARK VINA RESULT:      -7.3      0.636      1.416
REMARK  Name = 
REMARK  10 active torsions:
REMARK  status: ('A' for Active; 'I' for Inactive)
REMARK    1  A    between atoms: C_1  and  N_2
REMARK    2  A    between atoms: N_2  and  C_3
REMARK    3  A    between atoms: N_2  and  C_21
REMARK    4  A    between atoms: C_3  and  C_4
REMARK    5  A    between atoms: C_4  and  C_5
REMARK    6  A    between atoms: C_5  and  O_6
REMARK    7  A    between atoms: C_5  and  C_15
REMARK    8  A    between atoms: O_6  and  C_7
REMARK    9  A    between atoms: C_21  and  C_22
REMARK   10  A    between atoms: C_22  and  O_24
REMARK                            x       y       z     vdW  Elec       q    Type
REMARK                         _______ _______ _______ _____ _____    ______ ____
ROOT
ATOM      1  C   UNL     1       3.760   5.572  17.808  0.00  0.00    +0.000 C 
ENDROOT
BRANCH   1   2
ATOM      2  C   UNL     1       5.230   5.901  18.052  0.00  0.00    +0.000 A 
ATOM      3  C   UNL     1       5.915   5.305  19.123  0.00  0.00    +0.000 A 
ATOM      4  C   UNL     1       7.255   5.605  19.358  0.00  0.00    +0.000 A 
ATOM      5  C   UNL     1       7.924   6.512  18.537  0.00  0.00    +0.000 A 
ATOM      6  C   UNL     1       7.255   7.117  17.476  0.00  0.00    +0.000 A 
ATOM      7  C   UNL     1       5.914   6.817  17.236  0.00  0.00    +0.000 A 
ENDBRANCH   1   2
BRANCH   1   8
ATOM      8  C   UNL     1       3.708   4.161  17.192  0.00  0.00    +0.000 C 
BRANCH   8   9
ATOM      9  C   UNL     1       2.544   3.274  17.655  0.00  0.00    +0.000 C 
BRANCH   9  11
ATOM     10  C   UNL     1       3.761   1.318  18.428  0.00  0.00    +0.000 C 
ATOM     11  N   UNL     1       2.908   2.438  18.826  0.00  0.00    +0.000 NA
BRANCH  11  12
ATOM     12  C   UNL     1       1.750   1.986  19.630  0.00  0.00    +0.000 C 
BRANCH  12  13
ATOM     13  C   UNL     1       1.389   2.919  20.782  0.00  0.00    +0.000 C 
ATOM     14  O   UNL     1       1.894   2.885  21.900  0.00  0.00    +0.000 OA
BRANCH  13  15
ATOM     15  O   UNL     1       0.452   3.843  20.453  0.00  0.00    +0.000 OA
ATOM     16  H   UNL     1       0.819   4.638  20.020  0.00  0.00    +0.000 HD
ENDBRANCH  13  15
ENDBRANCH  12  13
ENDBRANCH  11  12
ENDBRANCH   9  11
ENDBRANCH   8   9
ENDBRANCH   1   8
BRANCH   1  17
ATOM     17  O   UNL     1       3.008   5.611  19.036  0.00  0.00    +0.000 OA
BRANCH  17  18
ATOM     18  C   UNL     1       2.426   6.811  19.364  0.00  0.00    +0.000 A 
ATOM     19  C   UNL     1       1.897   6.889  20.653  0.00  0.00    +0.000 A 
ATOM     20  C   UNL     1       1.190   8.024  21.058  0.00  0.00    +0.000 A 
ATOM     21  C   UNL     1       1.037   9.106  20.187  0.00  0.00    +0.000 A 
ATOM     22 CL   UNL     1       0.071  10.439  20.709  0.00  0.00    +0.000 Cl
ATOM     23  C   UNL     1       1.644   9.069  18.931  0.00  0.00    +0.000 A 
ATOM     24 CL   UNL     1       1.567  10.392  17.820  0.00  0.00    +0.000 Cl
ATOM     25  C   UNL     1       2.339   7.924  18.526  0.00  0.00    +0.000 A 
ENDBRANCH  17  18
ENDBRANCH   1  17
TORSDOF 9
ENDMDL
MODEL 5
REMARK VINA RESULT:      -7.3      1.443      1.857
REMARK  Name = 
REMARK  10 active torsions:
REMARK  status: ('A' for Active; 'I' for Inactive)
REMARK    1  A    between atoms: C_1  and  N_2
REMARK    2  A    between atoms: N_2  and  C_3
REMARK    3  A    between atoms: N_2  and  C_21
REMARK    4  A    between atoms: C_3  and  C_4
REMARK    5  A    between atoms: C_4  and  C_5
REMARK    6  A    between atoms: C_5  and  O_6
REMARK    7  A    between atoms: C_5  and  C_15
REMARK    8  A    between atoms: O_6  and  C_7
REMARK    9  A    between atoms: C_21  and  C_22
REMARK   10  A    between atoms: C_22  and  O_24
REMARK                            x       y       z     vdW  Elec       q    Type
REMARK                         _______ _______ _______ _____ _____    ______ ____
ROOT
ATOM      1  C   UNL     1       3.627   6.050  17.971  0.00  0.00    +0.000 C 
ENDROOT
BRANCH   1   2
ATOM      2  C   UNL     1       5.142   6.165  18.114  0.00  0.00    +0.000 A 
ATOM      3  C   UNL     1       5.807   5.465  19.133  0.00  0.00    +0.000 A 
ATOM      4  C   UNL     1       7.189   5.571  19.276  0.00  0.00    +0.000 A 
ATOM      5  C   UNL     1       7.922   6.384  18.413  0.00  0.00    +0.000 A 
ATOM      6  C   UNL     1       7.274   7.090  17.402  0.00  0.00    +0.000 A 
ATOM      7  C   UNL     1       5.891   6.985  17.254  0.00  0.00    +0.000 A 
ENDBRANCH   1   2
BRANCH   1   8
ATOM      8  C   UNL     1       3.317   4.588  17.596  0.00  0.00    +0.000 C 
BRANCH   8   9
ATOM      9  C   UNL     1       1.902   4.099  17.933  0.00  0.00    +0.000 C 
BRANCH   9  11
ATOM     10  C   UNL     1       0.833   3.592  20.056  0.00  0.00    +0.000 C 
ATOM     11  N   UNL     1       1.886   3.204  19.117  0.00  0.00    +0.000 NA
BRANCH  11  12
ATOM     12  C   UNL     1       3.197   3.067  19.790  0.00  0.00    +0.000 C 
BRANCH  12  13
ATOM     13  C   UNL     1       4.007   1.855  19.336  0.00  0.00    +0.000 C 
ATOM     14  O   UNL     1       3.673   1.078  18.448  0.00  0.00    +0.000 OA
BRANCH  13  15
ATOM     15  O   UNL     1       5.183   1.717  19.997  0.00  0.00    +0.000 OA
ATOM     16  H   UNL     1       5.782   2.483  19.897  0.00  0.00    +0.000 HD
ENDBRANCH  13  15
ENDBRANCH  12  13
ENDBRANCH  11  12
ENDBRANCH   9  11
ENDBRANCH   8   9
ENDBRANCH   1   8
BRANCH   1  17
ATOM     17  O   UNL     1       2.961   6.404  19.198  0.00  0.00    +0.000 OA
BRANCH  17  18
ATOM     18  C   UNL     1       2.236   7.570  19.192  0.00  0.00    +0.000 A 
ATOM     19  C   UNL     1       2.160   8.223  17.961  0.00  0.00    +0.000 A 
ATOM     20  C   UNL     1       1.538   9.471  17.862  0.00  0.00    +0.000 A 
ATOM     21  C   UNL     1       0.954  10.058  18.987  0.00  0.00    +0.000 A 
ATOM     22 CL   UNL     1       0.288  11.642  18.824  0.00  0.00    +0.000 Cl
ATOM     23  C   UNL     1       0.947   9.365  20.199  0.00  0.00    +0.000 A 
ATOM     24 CL   UNL     1       0.185   9.985  21.622  0.00  0.00    +0.000 Cl
ATOM     25  C   UNL     1       1.584   8.123  20.296  0.00  0.00    +0.000 A 
ENDBRANCH  17  18
ENDBRANCH   1  17
TORSDOF 9
ENDMDL
MODEL 6
REMARK VINA RESULT:      -7.2      2.302      4.841
REMARK  Name = 
REMARK  10 active torsions:
REMARK  status: ('A' for Active; 'I' for Inactive)
REMARK    1  A    between atoms: C_1  and  N_2
REMARK    2  A    between atoms: N_2  and  C_3
REMARK    3  A    between atoms: N_2  and  C_21
REMARK    4  A    between atoms: C_3  and  C_4
REMARK    5  A    between atoms: C_4  and  C_5
REMARK    6  A    between atoms: C_5  and  O_6
REMARK    7  A    between atoms: C_5  and  C_15
REMARK    8  A    between atoms: O_6  and  C_7
REMARK    9  A    between atoms: C_21  and  C_22
REMARK   10  A    between atoms: C_22  and  O_24
REMARK                            x       y       z     vdW  Elec       q    Type
REMARK                         _______ _______ _______ _____ _____    ______ ____
ROOT
ATOM      1  C   UNL     1       3.048   6.512  18.934  0.00  0.00    +0.000 C 
ENDROOT
BRANCH   1   2
ATOM      2  C   UNL     1       2.272   5.222  19.178  0.00  0.00    +0.000 A 
ATOM      3  C   UNL     1       1.963   4.825  20.489  0.00  0.00    +0.000 A 
ATOM      4  C   UNL     1       1.262   3.643  20.722  0.00  0.00    +0.000 A 
ATOM      5  C   UNL     1       0.871   2.838  19.653  0.00  0.00    +0.000 A 
ATOM      6  C   UNL     1       1.177   3.216  18.347  0.00  0.00    +0.000 A 
ATOM      7  C   UNL     1       1.877   4.399  18.110  0.00  0.00    +0.000 A 
ENDBRANCH   1   2
BRANCH   1   8
ATOM      8  C   UNL     1       4.288   6.144  18.098  0.00  0.00    +0.000 C 
BRANCH   8   9
ATOM      9  C   UNL     1       5.421   5.443  18.861  0.00  0.00    +0.000 C 
BRANCH   9  11
ATOM     10  C   UNL     1       6.680   6.961  17.440  0.00  0.00    +0.000 C 
ATOM     11  N   UNL     1       6.760   5.804  18.332  0.00  0.00    +0.000 NA
BRANCH  11  12
ATOM     12  C   UNL     1       7.485   4.678  17.703  0.00  0.00    +0.000 C 
BRANCH  12  13
ATOM     13  C   UNL     1       7.058   4.384  16.267  0.00  0.00    +0.000 C 
ATOM     14  O   UNL     1       7.597   4.842  15.265  0.00  0.00    +0.000 OA
BRANCH  13  15
ATOM     15  O   UNL     1       6.014   3.522  16.183  0.00  0.00    +0.000 OA
ATOM     16  H   UNL     1       5.494   3.614  15.362  0.00  0.00    +0.000 HD
ENDBRANCH  13  15
ENDBRANCH  12  13
ENDBRANCH  11  12
ENDBRANCH   9  11
ENDBRANCH   8   9
ENDBRANCH   1   8
BRANCH   1  17
ATOM     17  O   UNL     1       2.242   7.479  18.234  0.00  0.00    +0.000 OA
BRANCH  17  18
ATOM     18  C   UNL     1       1.716   8.502  18.983  0.00  0.00    +0.000 A 
ATOM     19  C   UNL     1       1.502   9.699  18.299  0.00  0.00    +0.000 A 
ATOM     20  C   UNL     1       1.070  10.838  18.986  0.00  0.00    +0.000 A 
ATOM     21  C   UNL     1       0.814  10.776  20.358  0.00  0.00    +0.000 A 
ATOM     22 CL   UNL     1       0.377  12.236  21.169  0.00  0.00    +0.000 Cl
ATOM     23  C   UNL     1       0.938   9.557  21.027  0.00  0.00    +0.000 A 
ATOM     24 CL   UNL     1       0.572   9.377  22.708  0.00  0.00    +0.000 Cl
ATOM     25  C   UNL     1       1.384   8.426  20.338  0.00  0.00    +0.000 A 
ENDBRANCH  17  18
ENDBRANCH   1  17
TORSDOF 9
ENDMDL
MODEL 7
REMARK VINA RESULT:      -7.2      2.512      5.011
REMARK  Name = 
REMARK  10 active torsions:
REMARK  status: ('A' for Active; 'I' for Inactive)
REMARK    1  A    between atoms: C_1  and  N_2
REMARK    2  A    between atoms: N_2  and  C_3
REMARK    3  A    between atoms: N_2  and  C_21
REMARK    4  A    between atoms: C_3  and  C_4
REMARK    5  A    between atoms: C_4  and  C_5
REMARK    6  A    between atoms: C_5  and  O_6
REMARK    7  A    between atoms: C_5  and  C_15
REMARK    8  A    between atoms: O_6  and  C_7
REMARK    9  A    between atoms: C_21  and  C_22
REMARK   10  A    between atoms: C_22  and  O_24
REMARK                            x       y       z     vdW  Elec       q    Type
REMARK                         _______ _______ _______ _____ _____    ______ ____
ROOT
ATOM      1  C   UNL     1       2.993   6.690  18.693  0.00  0.00    +0.000 C 
ENDROOT
BRANCH   1   2
ATOM      2  C   UNL     1       2.270   5.396  19.052  0.00  0.00    +0.000 A 
ATOM      3  C   UNL     1       1.884   4.503  18.040  0.00  0.00    +0.000 A 
ATOM      4  C   UNL     1       1.215   3.323  18.358  0.00  0.00    +0.000 A 
ATOM      5  C   UNL     1       0.913   3.024  19.686  0.00  0.00    +0.000 A 
ATOM      6  C   UNL     1       1.284   3.904  20.699  0.00  0.00    +0.000 A 
ATOM      7  C   UNL     1       1.955   5.086  20.386  0.00  0.00    +0.000 A 
ENDBRANCH   1   2
BRANCH   1   8
ATOM      8  C   UNL     1       4.125   6.321  17.715  0.00  0.00    +0.000 C 
BRANCH   8   9
ATOM      9  C   UNL     1       5.253   5.458  18.297  0.00  0.00    +0.000 C 
BRANCH   9  11
ATOM     10  C   UNL     1       7.479   4.724  17.656  0.00  0.00    +0.000 C 
ATOM     11  N   UNL     1       6.082   4.831  17.238  0.00  0.00    +0.000 NA
BRANCH  11  12
ATOM     12  C   UNL     1       5.955   5.473  15.910  0.00  0.00    +0.000 C 
BRANCH  12  13
ATOM     13  C   UNL     1       6.811   4.831  14.822  0.00  0.00    +0.000 C 
ATOM     14  O   UNL     1       7.787   5.355  14.294  0.00  0.00    +0.000 OA
BRANCH  13  15
ATOM     15  O   UNL     1       6.412   3.578  14.493  0.00  0.00    +0.000 OA
ATOM     16  H   UNL     1       5.454   3.427  14.611  0.00  0.00    +0.000 HD
ENDBRANCH  13  15
ENDBRANCH  12  13
ENDBRANCH  11  12
ENDBRANCH   9  11
ENDBRANCH   8   9
ENDBRANCH   1   8
BRANCH   1  17
ATOM     17  O   UNL     1       2.094   7.637  18.084  0.00  0.00    +0.000 OA
BRANCH  17  18
ATOM     18  C   UNL     1       1.619   8.641  18.890  0.00  0.00    +0.000 A 
ATOM     19  C   UNL     1       1.409   9.869  18.259  0.00  0.00    +0.000 A 
ATOM     20  C   UNL     1       1.027  10.989  19.004  0.00  0.00    +0.000 A 
ATOM     21  C   UNL     1       0.817  10.880  20.381  0.00  0.00    +0.000 A 
ATOM     22 CL   UNL     1       0.442  12.317  21.262  0.00  0.00    +0.000 Cl
ATOM     23  C   UNL     1       0.935   9.633  20.998  0.00  0.00    +0.000 A 
ATOM     24 CL   UNL     1       0.622   9.396  22.683  0.00  0.00    +0.000 Cl
ATOM     25  C   UNL     1       1.331   8.520  20.251  0.00  0.00    +0.000 A 
ENDBRANCH  17  18
ENDBRANCH   1  17
TORSDOF 9
ENDMDL
MODEL 8
REMARK VINA RESULT:      -7.1      1.071      1.395
REMARK  Name = 
REMARK  10 active torsions:
REMARK  status: ('A' for Active; 'I' for Inactive)
REMARK    1  A    between atoms: C_1  and  N_2
REMARK    2  A    between atoms: N_2  and  C_3
REMARK    3  A    between atoms: N_2  and  C_21
REMARK    4  A    between atoms: C_3  and  C_4
REMARK    5  A    between atoms: C_4  and  C_5
REMARK    6  A    between atoms: C_5  and  O_6
REMARK    7  A    between atoms: C_5  and  C_15
REMARK    8  A    between atoms: O_6  and  C_7
REMARK    9  A    between atoms: C_21  and  C_22
REMARK   10  A    between atoms: C_22  and  O_24
REMARK                            x       y       z     vdW  Elec       q    Type
REMARK                         _______ _______ _______ _____ _____    ______ ____
ROOT
ATOM      1  C   UNL     1       3.368   5.778  17.791  0.00  0.00    +0.000 C 
ENDROOT
BRANCH   1   2
ATOM      2  C   UNL     1       4.825   5.448  17.481  0.00  0.00    +0.000 A 
ATOM      3  C   UNL     1       5.218   5.177  16.161  0.00  0.00    +0.000 A 
ATOM      4  C   UNL     1       6.545   4.867  15.870  0.00  0.00    +0.000 A 
ATOM      5  C   UNL     1       7.492   4.810  16.892  0.00  0.00    +0.000 A 
ATOM      6  C   UNL     1       7.114   5.069  18.207  0.00  0.00    +0.000 A 
ATOM      7  C   UNL     1       5.787   5.382  18.503  0.00  0.00    +0.000 A 
ENDBRANCH   1   2
BRANCH   1   8
ATOM      8  C   UNL     1       2.566   4.471  17.644  0.00  0.00    +0.000 C 
BRANCH   8   9
ATOM      9  C   UNL     1       3.321   3.182  17.998  0.00  0.00    +0.000 C 
BRANCH   9  11
ATOM     10  C   UNL     1       4.445   2.153  19.890  0.00  0.00    +0.000 C 
ATOM     11  N   UNL     1       3.250   2.871  19.447  0.00  0.00    +0.000 NA
BRANCH  11  12
ATOM     12  C   UNL     1       2.010   2.175  19.857  0.00  0.00    +0.000 C 
BRANCH  12  13
ATOM     13  C   UNL     1       1.248   2.868  20.983  0.00  0.00    +0.000 C 
ATOM     14  O   UNL     1       1.334   2.579  22.172  0.00  0.00    +0.000 OA
BRANCH  13  15
ATOM     15  O   UNL     1       0.463   3.888  20.553  0.00  0.00    +0.000 OA
ATOM     16  H   UNL     1      -0.322   4.042  21.114  0.00  0.00    +0.000 HD
ENDBRANCH  13  15
ENDBRANCH  12  13
ENDBRANCH  11  12
ENDBRANCH   9  11
ENDBRANCH   8   9
ENDBRANCH   1   8
BRANCH   1  17
ATOM     17  O   UNL     1       3.226   6.305  19.124  0.00  0.00    +0.000 OA
BRANCH  17  18
ATOM     18  C   UNL     1       2.409   7.398  19.271  0.00  0.00    +0.000 A 
ATOM     19  C   UNL     1       2.235   8.177  18.127  0.00  0.00    +0.000 A 
ATOM     20  C   UNL     1       1.510   9.370  18.188  0.00  0.00    +0.000 A 
ATOM     21  C   UNL     1       0.921   9.775  19.389  0.00  0.00    +0.000 A 
ATOM     22 CL   UNL     1       0.121  11.304  19.427  0.00  0.00    +0.000 Cl
ATOM     23  C   UNL     1       1.015   8.952  20.512  0.00  0.00    +0.000 A 
ATOM     24 CL   UNL     1       0.256   9.341  22.017  0.00  0.00    +0.000 Cl
ATOM     25  C   UNL     1       1.754   7.767  20.449  0.00  0.00    +0.000 A 
ENDBRANCH  17  18
ENDBRANCH   1  17
TORSDOF 9
ENDMDL
MODEL 9
REMARK VINA RESULT:      -7.1      2.453      5.032
REMARK  Name = 
REMARK  10 active torsions:
REMARK  status: ('A' for Active; 'I' for Inactive)
REMARK    1  A    between atoms: C_1  and  N_2
REMARK    2  A    between atoms: N_2  and  C_3
REMARK    3  A    between atoms: N_2  and  C_21
REMARK    4  A    between atoms: C_3  and  C_4
REMARK    5  A    between atoms: C_4  and  C_5
REMARK    6  A    between atoms: C_5  and  O_6
REMARK    7  A    between atoms: C_5  and  C_15
REMARK    8  A    between atoms: O_6  and  C_7
REMARK    9  A    between atoms: C_21  and  C_22
REMARK   10  A    between atoms: C_22  and  O_24
REMARK                            x       y       z     vdW  Elec       q    Type
REMARK                         _______ _______ _______ _____ _____    ______ ____
ROOT
ATOM      1  C   UNL     1       3.661   5.667  19.503  0.00  0.00    +0.000 C 
ENDROOT
BRANCH   1   2
ATOM      2  C   UNL     1       2.661   4.516  19.544  0.00  0.00    +0.000 A 
ATOM      3  C   UNL     1       2.006   4.112  18.370  0.00  0.00    +0.000 A 
ATOM      4  C   UNL     1       1.085   3.067  18.400  0.00  0.00    +0.000 A 
ATOM      5  C   UNL     1       0.797   2.420  19.601  0.00  0.00    +0.000 A 
ATOM      6  C   UNL     1       1.434   2.815  20.775  0.00  0.00    +0.000 A 
ATOM      7  C   UNL     1       2.358   3.860  20.749  0.00  0.00    +0.000 A 
ENDBRANCH   1   2
BRANCH   1   8
ATOM      8  C   UNL     1       5.048   5.053  19.240  0.00  0.00    +0.000 C 
BRANCH   8   9
ATOM      9  C   UNL     1       5.185   4.245  17.943  0.00  0.00    +0.000 C 
BRANCH   9  11
ATOM     10  C   UNL     1       7.265   5.502  17.925  0.00  0.00    +0.000 C 
ATOM     11  N   UNL     1       6.352   4.676  17.134  0.00  0.00    +0.000 NA
BRANCH  11  12
ATOM     12  C   UNL     1       5.993   5.329  15.855  0.00  0.00    +0.000 C 
BRANCH  12  13
ATOM     13  C   UNL     1       6.743   4.780  14.643  0.00  0.00    +0.000 C 
ATOM     14  O   UNL     1       6.395   3.806  13.983  0.00  0.00    +0.000 OA
BRANCH  13  15
ATOM     15  O   UNL     1       7.848   5.499  14.324  0.00  0.00    +0.000 OA
ATOM     16  H   UNL     1       8.681   4.997  14.410  0.00  0.00    +0.000 HD
ENDBRANCH  13  15
ENDBRANCH  12  13
ENDBRANCH  11  12
ENDBRANCH   9  11
ENDBRANCH   8   9
ENDBRANCH   1   8
BRANCH   1  17
ATOM     17  O   UNL     1       3.326   6.610  18.467  0.00  0.00    +0.000 OA
BRANCH  17  18
ATOM     18  C   UNL     1       2.461   7.620  18.809  0.00  0.00    +0.000 A 
ATOM     19  C   UNL     1       2.152   8.519  17.787  0.00  0.00    +0.000 A 
ATOM     20  C   UNL     1       1.366   9.644  18.049  0.00  0.00    +0.000 A 
ATOM     21  C   UNL     1       0.851   9.859  19.331  0.00  0.00    +0.000 A 
ATOM     22 CL   UNL     1      -0.030  11.316  19.618  0.00  0.00    +0.000 Cl
ATOM     23  C   UNL     1       1.081   8.914  20.332  0.00  0.00    +0.000 A 
ATOM     24 CL   UNL     1       0.421   9.065  21.923  0.00  0.00    +0.000 Cl
ATOM     25  C   UNL     1       1.880   7.798  20.067  0.00  0.00    +0.000 A 
ENDBRANCH  17  18
ENDBRANCH   1  17
TORSDOF 9
ENDMDL
