MODEL 1
REMARK VINA RESULT:      -7.7      0.000      0.000
REMARK  Name = 
REMARK  4 active torsions:
REMARK  status: ('A' for Active; 'I' for Inactive)
REMARK    1  A    between atoms: C_1  and  O_2
REMARK    2  A    between atoms: O_2  and  C_3
REMARK    3  A    between atoms: C_8  and  C_9
REMARK    4  A    between atoms: N_18  and  C_19
REMARK                            x       y       z     vdW  Elec       q    Type
REMARK                         _______ _______ _______ _____ _____    ______ ____
ROOT
ATOM      1  C   UNL     1       1.176  10.178  19.062  0.00  0.00    +0.000 A 
ATOM      2  C   UNL     1       2.100   9.527  18.234  0.00  0.00    +0.000 A 
ATOM      3  C   UNL     1       2.489   8.189  18.475  0.00  0.00    +0.000 A 
ATOM      4  C   UNL     1       1.979   7.495  19.581  0.00  0.00    +0.000 A 
ATOM      5  C   UNL     1       1.080   8.190  20.416  0.00  0.00    +0.000 A 
ATOM      6  C   UNL     1       0.654   9.505  20.165  0.00  0.00    +0.000 A 
ATOM      7  C   UNL     1      -0.346  10.135  21.095  0.00  0.00    +0.000 C 
ATOM      8  C   UNL     1       2.342   6.077  19.816  0.00  0.00    +0.000 A 
ATOM      9  C   UNL     1       1.764   5.335  20.872  0.00  0.00    +0.000 A 
ATOM     10  C   UNL     1       2.075   4.003  21.106  0.00  0.00    +0.000 A 
ATOM     11  C   UNL     1       2.966   3.357  20.273  0.00  0.00    +0.000 A 
ATOM     12  C   UNL     1       3.561   4.053  19.208  0.00  0.00    +0.000 A 
ATOM     13  C   UNL     1       3.269   5.416  18.978  0.00  0.00    +0.000 A 
ATOM     14  C   UNL     1       4.056   6.175  17.909  0.00  0.00    +0.000 C 
ATOM     15  C   UNL     1       3.360   7.488  17.453  0.00  0.00    +0.000 C 
ATOM     16  N   UNL     1       4.411   5.294  16.750  0.00  0.00    +0.000 NA
ATOM     17  C   UNL     1       5.208   5.986  15.730  0.00  0.00    +0.000 C 
ATOM     18  C   UNL     1       5.161   4.113  17.207  0.00  0.00    +0.000 C 
ATOM     19  C   UNL     1       4.461   3.280  18.280  0.00  0.00    +0.000 C 
ENDROOT
BRANCH   1  21
ATOM     20  C   UNL     1       1.759  12.428  18.632  0.00  0.00    +0.000 C 
ATOM     21  O   UNL     1       0.741  11.464  18.874  0.00  0.00    +0.000 OA
ENDBRANCH   1  21
TORSDOF 1
ENDMDL
MODEL 2
REMARK VINA RESULT:      -7.7      1.547      3.500
REMARK  Name = 
REMARK  4 active torsions:
REMARK  status: ('A' for Active; 'I' for Inactive)
REMARK    1  A    between atoms: C_1  and  O_2
REMARK    2  A    between atoms: O_2  and  C_3
REMARK    3  A    between atoms: C_8  and  C_9
REMARK    4  A    between atoms: N_18  and  C_19
REMARK                            x       y       z     vdW  Elec       q    Type
REMARK                         _______ _______ _______ _____ _____    ______ ____
ROOT
ATOM      1  C   UNL     1       0.441   9.311  20.916  0.00  0.00    +0.000 A 
ATOM      2  C   UNL     1       0.618   7.953  21.210  0.00  0.00    +0.000 A 
ATOM      3  C   UNL     1       1.446   7.129  20.412  0.00  0.00    +0.000 A 
ATOM      4  C   UNL     1       2.082   7.657  19.279  0.00  0.00    +0.000 A 
ATOM      5  C   UNL     1       1.854   9.018  18.990  0.00  0.00    +0.000 A 
ATOM      6  C   UNL     1       1.068   9.856  19.797  0.00  0.00    +0.000 A 
ATOM      7  C   UNL     1       0.930  11.306  19.421  0.00  0.00    +0.000 C 
ATOM      8  C   UNL     1       2.991   6.816  18.464  0.00  0.00    +0.000 A 
ATOM      9  C   UNL     1       3.714   7.356  17.374  0.00  0.00    +0.000 A 
ATOM     10  C   UNL     1       4.580   6.596  16.603  0.00  0.00    +0.000 A 
ATOM     11  C   UNL     1       4.773   5.264  16.911  0.00  0.00    +0.000 A 
ATOM     12  C   UNL     1       4.081   4.685  17.987  0.00  0.00    +0.000 A 
ATOM     13  C   UNL     1       3.177   5.447  18.762  0.00  0.00    +0.000 A 
ATOM     14  C   UNL     1       2.328   4.742  19.820  0.00  0.00    +0.000 C 
ATOM     15  C   UNL     1       1.730   5.715  20.873  0.00  0.00    +0.000 C 
ATOM     16  N   UNL     1       3.068   3.605  20.459  0.00  0.00    +0.000 NA
ATOM     17  C   UNL     1       2.259   2.881  21.447  0.00  0.00    +0.000 C 
ATOM     18  C   UNL     1       3.529   2.649  19.441  0.00  0.00    +0.000 C 
ATOM     19  C   UNL     1       4.388   3.252  18.331  0.00  0.00    +0.000 C 
ENDROOT
BRANCH   1  21
ATOM     20  C   UNL     1      -0.410   9.876  23.048  0.00  0.00    +0.000 C 
ATOM     21  O   UNL     1      -0.330  10.168  21.658  0.00  0.00    +0.000 OA
ENDBRANCH   1  21
TORSDOF 1
ENDMDL
MODEL 3
REMARK VINA RESULT:      -7.1      2.830      6.591
REMARK  Name = 
REMARK  4 active torsions:
REMARK  status: ('A' for Active; 'I' for Inactive)
REMARK    1  A    between atoms: C_1  and  O_2
REMARK    2  A    between atoms: O_2  and  C_3
REMARK    3  A    between atoms: C_8  and  C_9
REMARK    4  A    between atoms: N_18  and  C_19
REMARK                            x       y       z     vdW  Elec       q    Type
REMARK                         _______ _______ _______ _____ _____    ______ ____
ROOT
ATOM      1  C   UNL     1       2.850   7.259  18.141  0.00  0.00    +0.000 A 
ATOM      2  C   UNL     1       2.251   8.491  17.848  0.00  0.00    +0.000 A 
ATOM      3  C   UNL     1       1.470   9.177  18.808  0.00  0.00    +0.000 A 
ATOM      4  C   UNL     1       1.250   8.611  20.072  0.00  0.00    +0.000 A 
ATOM      5  C   UNL     1       1.836   7.353  20.322  0.00  0.00    +0.000 A 
ATOM      6  C   UNL     1       2.647   6.682  19.393  0.00  0.00    +0.000 A 
ATOM      7  C   UNL     1       3.262   5.365  19.783  0.00  0.00    +0.000 C 
ATOM      8  C   UNL     1       0.475   9.342  21.101  0.00  0.00    +0.000 A 
ATOM      9  C   UNL     1       0.322   8.829  22.411  0.00  0.00    +0.000 A 
ATOM     10  C   UNL     1      -0.386   9.499  23.397  0.00  0.00    +0.000 A 
ATOM     11  C   UNL     1      -0.953  10.725  23.113  0.00  0.00    +0.000 A 
ATOM     12  C   UNL     1      -0.824  11.277  21.828  0.00  0.00    +0.000 A 
ATOM     13  C   UNL     1      -0.125  10.589  20.810  0.00  0.00    +0.000 A 
ATOM     14  C   UNL     1      -0.144  11.149  19.387  0.00  0.00    +0.000 C 
ATOM     15  C   UNL     1       0.989  10.578  18.490  0.00  0.00    +0.000 C 
ATOM     16  N   UNL     1      -0.167  12.648  19.380  0.00  0.00    +0.000 NA
ATOM     17  C   UNL     1      -0.232  13.211  18.027  0.00  0.00    +0.000 C 
ATOM     18  C   UNL     1      -1.312  13.152  20.153  0.00  0.00    +0.000 C 
ATOM     19  C   UNL     1      -1.390  12.652  21.594  0.00  0.00    +0.000 C 
ENDROOT
BRANCH   1  21
ATOM     20  C   UNL     1       4.953   7.052  17.084  0.00  0.00    +0.000 C 
ATOM     21  O   UNL     1       3.634   6.553  17.266  0.00  0.00    +0.000 OA
ENDBRANCH   1  21
TORSDOF 1
ENDMDL
MODEL 4
REMARK VINA RESULT:      -6.7      2.631      6.357
REMARK  Name = 
REMARK  4 active torsions:
REMARK  status: ('A' for Active; 'I' for Inactive)
REMARK    1  A    between atoms: C_1  and  O_2
REMARK    2  A    between atoms: O_2  and  C_3
REMARK    3  A    between atoms: C_8  and  C_9
REMARK    4  A    between atoms: N_18  and  C_19
REMARK                            x       y       z     vdW  Elec       q    Type
REMARK                         _______ _______ _______ _____ _____    ______ ____
ROOT
ATOM      1  C   UNL     1       2.828   6.249  18.581  0.00  0.00    +0.000 A 
ATOM      2  C   UNL     1       2.718   7.587  18.182  0.00  0.00    +0.000 A 
ATOM      3  C   UNL     1       2.016   8.534  18.966  0.00  0.00    +0.000 A 
ATOM      4  C   UNL     1       1.382   8.135  20.151  0.00  0.00    +0.000 A 
ATOM      5  C   UNL     1       1.480   6.773  20.505  0.00  0.00    +0.000 A 
ATOM      6  C   UNL     1       2.207   5.833  19.758  0.00  0.00    +0.000 A 
ATOM      7  C   UNL     1       2.287   4.415  20.254  0.00  0.00    +0.000 C 
ATOM      8  C   UNL     1       0.686   9.127  21.005  0.00  0.00    +0.000 A 
ATOM      9  C   UNL     1       0.121   8.760  22.249  0.00  0.00    +0.000 A 
ATOM     10  C   UNL     1      -0.523   9.670  23.074  0.00  0.00    +0.000 A 
ATOM     11  C   UNL     1      -0.607  10.993  22.690  0.00  0.00    +0.000 A 
ATOM     12  C   UNL     1      -0.058  11.405  21.465  0.00  0.00    +0.000 A 
ATOM     13  C   UNL     1       0.579  10.479  20.607  0.00  0.00    +0.000 A 
ATOM     14  C   UNL     1       1.021  10.937  19.217  0.00  0.00    +0.000 C 
ATOM     15  C   UNL     1       2.073   9.994  18.569  0.00  0.00    +0.000 C 
ATOM     16  N   UNL     1       1.473  12.366  19.221  0.00  0.00    +0.000 NA
ATOM     17  C   UNL     1       1.860  12.845  17.888  0.00  0.00    +0.000 C 
ATOM     18  C   UNL     1       0.414  13.243  19.743  0.00  0.00    +0.000 C 
ATOM     19  C   UNL     1      -0.104  12.873  21.133  0.00  0.00    +0.000 C 
ENDROOT
BRANCH   1  21
ATOM     20  C   UNL     1       4.890   5.548  17.663  0.00  0.00    +0.000 C 
ATOM     21  O   UNL     1       3.508   5.287  17.881  0.00  0.00    +0.000 OA
ENDBRANCH   1  21
TORSDOF 1
ENDMDL
MODEL 5
REMARK VINA RESULT:      -6.5      8.941     10.366
REMARK  Name = 
REMARK  4 active torsions:
REMARK  status: ('A' for Active; 'I' for Inactive)
REMARK    1  A    between atoms: C_1  and  O_2
REMARK    2  A    between atoms: O_2  and  C_3
REMARK    3  A    between atoms: C_8  and  C_9
REMARK    4  A    between atoms: N_18  and  C_19
REMARK                            x       y       z     vdW  Elec       q    Type
REMARK                         _______ _______ _______ _____ _____    ______ ____
ROOT
ATOM      1  C   UNL     1       8.210  13.740  24.117  0.00  0.00    +0.000 A 
ATOM      2  C   UNL     1       8.978  14.535  23.256  0.00  0.00    +0.000 A 
ATOM      3  C   UNL     1       9.455  14.035  22.021  0.00  0.00    +0.000 A 
ATOM      4  C   UNL     1       9.194  12.708  21.651  0.00  0.00    +0.000 A 
ATOM      5  C   UNL     1       8.450  11.923  22.556  0.00  0.00    +0.000 A 
ATOM      6  C   UNL     1       7.937  12.419  23.765  0.00  0.00    +0.000 A 
ATOM      7  C   UNL     1       7.114  11.507  24.633  0.00  0.00    +0.000 C 
ATOM      8  C   UNL     1       9.647  12.188  20.339  0.00  0.00    +0.000 A 
ATOM      9  C   UNL     1       9.312  10.882  19.909  0.00  0.00    +0.000 A 
ATOM     10  C   UNL     1       9.711  10.376  18.681  0.00  0.00    +0.000 A 
ATOM     11  C   UNL     1      10.445  11.170  17.824  0.00  0.00    +0.000 A 
ATOM     12  C   UNL     1      10.798  12.475  18.206  0.00  0.00    +0.000 A 
ATOM     13  C   UNL     1      10.416  12.991  19.466  0.00  0.00    +0.000 A 
ATOM     14  C   UNL     1      10.954  14.353  19.905  0.00  0.00    +0.000 C 
ATOM     15  C   UNL     1      10.135  14.989  21.062  0.00  0.00    +0.000 C 
ATOM     16  N   UNL     1      11.109  15.289  18.744  0.00  0.00    +0.000 NA
ATOM     17  C   UNL     1      11.667  16.590  19.131  0.00  0.00    +0.000 C 
ATOM     18  C   UNL     1      11.975  14.697  17.713  0.00  0.00    +0.000 C 
ATOM     19  C   UNL     1      11.527  13.328  17.202  0.00  0.00    +0.000 C 
ENDROOT
BRANCH   1  21
ATOM     20  C   UNL     1       6.889  15.333  25.256  0.00  0.00    +0.000 C 
ATOM     21  O   UNL     1       7.701  14.167  25.315  0.00  0.00    +0.000 OA
ENDBRANCH   1  21
TORSDOF 1
ENDMDL
MODEL 6
REMARK VINA RESULT:      -6.3      2.885      6.956
REMARK  Name = 
REMARK  4 active torsions:
REMARK  status: ('A' for Active; 'I' for Inactive)
REMARK    1  A    between atoms: C_1  and  O_2
REMARK    2  A    between atoms: O_2  and  C_3
REMARK    3  A    between atoms: C_8  and  C_9
REMARK    4  A    between atoms: N_18  and  C_19
REMARK                            x       y       z     vdW  Elec       q    Type
REMARK                         _______ _______ _______ _____ _____    ______ ____
ROOT
ATOM      1  C   UNL     1       2.395   4.746  19.799  0.00  0.00    +0.000 A 
ATOM      2  C   UNL     1       1.760   5.555  20.750  0.00  0.00    +0.000 A 
ATOM      3  C   UNL     1       1.570   6.939  20.531  0.00  0.00    +0.000 A 
ATOM      4  C   UNL     1       2.052   7.539  19.358  0.00  0.00    +0.000 A 
ATOM      5  C   UNL     1       2.718   6.705  18.437  0.00  0.00    +0.000 A 
ATOM      6  C   UNL     1       2.877   5.322  18.625  0.00  0.00    +0.000 A 
ATOM      7  C   UNL     1       3.563   4.518  17.554  0.00  0.00    +0.000 C 
ATOM      8  C   UNL     1       1.815   8.978  19.095  0.00  0.00    +0.000 A 
ATOM      9  C   UNL     1       2.211   9.579  17.877  0.00  0.00    +0.000 A 
ATOM     10  C   UNL     1       1.990  10.920  17.599  0.00  0.00    +0.000 A 
ATOM     11  C   UNL     1       1.342  11.708  18.528  0.00  0.00    +0.000 A 
ATOM     12  C   UNL     1       0.926  11.155  19.750  0.00  0.00    +0.000 A 
ATOM     13  C   UNL     1       1.169   9.795  20.051  0.00  0.00    +0.000 A 
ATOM     14  C   UNL     1       0.844   9.275  21.451  0.00  0.00    +0.000 C 
ATOM     15  C   UNL     1       0.733   7.726  21.517  0.00  0.00    +0.000 C 
ATOM     16  N   UNL     1      -0.363   9.951  22.029  0.00  0.00    +0.000 NA
ATOM     17  C   UNL     1      -0.671   9.502  23.392  0.00  0.00    +0.000 C 
ATOM     18  C   UNL     1      -0.180  11.410  22.047  0.00  0.00    +0.000 C 
ATOM     19  C   UNL     1       0.151  12.036  20.693  0.00  0.00    +0.000 C 
ENDROOT
BRANCH   1  21
ATOM     20  C   UNL     1       2.308   2.865  21.227  0.00  0.00    +0.000 C 
ATOM     21  O   UNL     1       2.593   3.397  19.939  0.00  0.00    +0.000 OA
ENDBRANCH   1  21
TORSDOF 1
ENDMDL
MODEL 7
REMARK VINA RESULT:      -5.9      8.775     10.415
REMARK  Name = 
REMARK  4 active torsions:
REMARK  status: ('A' for Active; 'I' for Inactive)
REMARK    1  A    between atoms: C_1  and  O_2
REMARK    2  A    between atoms: O_2  and  C_3
REMARK    3  A    between atoms: C_8  and  C_9
REMARK    4  A    between atoms: N_18  and  C_19
REMARK                            x       y       z     vdW  Elec       q    Type
REMARK                         _______ _______ _______ _____ _____    ______ ____
ROOT
ATOM      1  C   UNL     1       7.735  12.575  24.847  0.00  0.00    +0.000 A 
ATOM      2  C   UNL     1       7.873  11.818  23.677  0.00  0.00    +0.000 A 
ATOM      3  C   UNL     1       8.589  12.312  22.560  0.00  0.00    +0.000 A 
ATOM      4  C   UNL     1       9.147  13.598  22.594  0.00  0.00    +0.000 A 
ATOM      5  C   UNL     1       8.958  14.349  23.773  0.00  0.00    +0.000 A 
ATOM      6  C   UNL     1       8.286  13.854  24.902  0.00  0.00    +0.000 A 
ATOM      7  C   UNL     1       8.185  14.724  26.126  0.00  0.00    +0.000 C 
ATOM      8  C   UNL     1       9.940  14.106  21.450  0.00  0.00    +0.000 A 
ATOM      9  C   UNL     1      10.588  15.362  21.504  0.00  0.00    +0.000 A 
ATOM     10  C   UNL     1      11.348  15.856  20.454  0.00  0.00    +0.000 A 
ATOM     11  C   UNL     1      11.503  15.097  19.312  0.00  0.00    +0.000 A 
ATOM     12  C   UNL     1      10.882  13.841  19.214  0.00  0.00    +0.000 A 
ATOM     13  C   UNL     1      10.086  13.341  20.270  0.00  0.00    +0.000 A 
ATOM     14  C   UNL     1       9.301  12.046  20.060  0.00  0.00    +0.000 C 
ATOM     15  C   UNL     1       8.845  11.385  21.390  0.00  0.00    +0.000 C 
ATOM     16  N   UNL     1      10.040  11.086  19.178  0.00  0.00    +0.000 NA
ATOM     17  C   UNL     1       9.288   9.852  18.922  0.00  0.00    +0.000 C 
ATOM     18  C   UNL     1      10.365  11.711  17.887  0.00  0.00    +0.000 C 
ATOM     19  C   UNL     1      11.151  13.018  17.983  0.00  0.00    +0.000 C 
ENDROOT
BRANCH   1  21
ATOM     20  C   UNL     1       6.003  11.241  25.744  0.00  0.00    +0.000 C 
ATOM     21  O   UNL     1       7.074  12.150  25.969  0.00  0.00    +0.000 OA
ENDBRANCH   1  21
TORSDOF 1
ENDMDL
MODEL 8
REMARK VINA RESULT:      -5.9      6.881      9.798
REMARK  Name = 
REMARK  4 active torsions:
REMARK  status: ('A' for Active; 'I' for Inactive)
REMARK    1  A    between atoms: C_1  and  O_2
REMARK    2  A    between atoms: O_2  and  C_3
REMARK    3  A    between atoms: C_8  and  C_9
REMARK    4  A    between atoms: N_18  and  C_19
REMARK                            x       y       z     vdW  Elec       q    Type
REMARK                         _______ _______ _______ _____ _____    ______ ____
ROOT
ATOM      1  C   UNL     1       0.127  12.933  20.909  0.00  0.00    +0.000 A 
ATOM      2  C   UNL     1      -1.057  13.077  21.644  0.00  0.00    +0.000 A 
ATOM      3  C   UNL     1      -2.319  12.790  21.071  0.00  0.00    +0.000 A 
ATOM      4  C   UNL     1      -2.408  12.387  19.731  0.00  0.00    +0.000 A 
ATOM      5  C   UNL     1      -1.201  12.287  19.008  0.00  0.00    +0.000 A 
ATOM      6  C   UNL     1       0.059  12.529  19.577  0.00  0.00    +0.000 A 
ATOM      7  C   UNL     1       1.287  12.346  18.727  0.00  0.00    +0.000 C 
ATOM      8  C   UNL     1      -3.719  12.036  19.135  0.00  0.00    +0.000 A 
ATOM      9  C   UNL     1      -3.818  11.539  17.815  0.00  0.00    +0.000 A 
ATOM     10  C   UNL     1      -5.030  11.190  17.237  0.00  0.00    +0.000 A 
ATOM     11  C   UNL     1      -6.192  11.309  17.972  0.00  0.00    +0.000 A 
ATOM     12  C   UNL     1      -6.143  11.794  19.289  0.00  0.00    +0.000 A 
ATOM     13  C   UNL     1      -4.915  12.175  19.877  0.00  0.00    +0.000 A 
ATOM     14  C   UNL     1      -4.925  12.845  21.251  0.00  0.00    +0.000 C 
ATOM     15  C   UNL     1      -3.544  12.804  21.961  0.00  0.00    +0.000 C 
ATOM     16  N   UNL     1      -6.022  12.311  22.121  0.00  0.00    +0.000 NA
ATOM     17  C   UNL     1      -6.084  12.971  23.431  0.00  0.00    +0.000 C 
ATOM     18  C   UNL     1      -7.328  12.462  21.460  0.00  0.00    +0.000 C 
ATOM     19  C   UNL     1      -7.427  11.826  20.074  0.00  0.00    +0.000 C 
ENDROOT
BRANCH   1  21
ATOM     20  C   UNL     1       1.686  14.538  21.669  0.00  0.00    +0.000 C 
ATOM     21  O   UNL     1       1.381  13.173  21.408  0.00  0.00    +0.000 OA
ENDBRANCH   1  21
TORSDOF 1
ENDMDL
MODEL 9
REMARK VINA RESULT:      -5.8      5.613      8.498
REMARK  Name = 
REMARK  4 active torsions:
REMARK  status: ('A' for Active; 'I' for Inactive)
REMARK    1  A    between atoms: C_1  and  O_2
REMARK    2  A    between atoms: O_2  and  C_3
REMARK    3  A    between atoms: C_8  and  C_9
REMARK    4  A    between atoms: N_18  and  C_19
REMARK                            x       y       z     vdW  Elec       q    Type
REMARK                         _______ _______ _______ _____ _____    ______ ____
ROOT
ATOM      1  C   UNL     1      -5.769  14.071  21.153  0.00  0.00    +0.000 A 
ATOM      2  C   UNL     1      -4.437  13.725  21.411  0.00  0.00    +0.000 A 
ATOM      3  C   UNL     1      -3.713  12.879  20.538  0.00  0.00    +0.000 A 
ATOM      4  C   UNL     1      -4.337  12.336  19.406  0.00  0.00    +0.000 A 
ATOM      5  C   UNL     1      -5.690  12.674  19.194  0.00  0.00    +0.000 A 
ATOM      6  C   UNL     1      -6.407  13.545  20.031  0.00  0.00    +0.000 A 
ATOM      7  C   UNL     1      -7.833  13.876  19.684  0.00  0.00    +0.000 C 
ATOM      8  C   UNL     1      -3.576  11.489  18.458  0.00  0.00    +0.000 A 
ATOM      9  C   UNL     1      -4.163  11.010  17.263  0.00  0.00    +0.000 A 
ATOM     10  C   UNL     1      -3.470  10.227  16.352  0.00  0.00    +0.000 A 
ATOM     11  C   UNL     1      -2.149   9.909  16.597  0.00  0.00    +0.000 A 
ATOM     12  C   UNL     1      -1.522  10.365  17.768  0.00  0.00    +0.000 A 
ATOM     13  C   UNL     1      -2.229  11.144  18.713  0.00  0.00    +0.000 A 
ATOM     14  C   UNL     1      -1.559  11.484  20.044  0.00  0.00    +0.000 C 
ATOM     15  C   UNL     1      -2.232  12.676  20.780  0.00  0.00    +0.000 C 
ATOM     16  N   UNL     1      -0.081  11.680  19.889  0.00  0.00    +0.000 NA
ATOM     17  C   UNL     1       0.593  11.963  21.161  0.00  0.00    +0.000 C 
ATOM     18  C   UNL     1       0.539  10.491  19.285  0.00  0.00    +0.000 C 
ATOM     19  C   UNL     1      -0.058  10.061  17.946  0.00  0.00    +0.000 C 
ENDROOT
BRANCH   1  21
ATOM     20  C   UNL     1      -6.477  14.622  23.340  0.00  0.00    +0.000 C 
ATOM     21  O   UNL     1      -6.520  14.900  21.945  0.00  0.00    +0.000 OA
ENDBRANCH   1  21
TORSDOF 1
ENDMDL
