MODEL 1
REMARK VINA RESULT:      -9.3      0.000      0.000
REMARK  Name = 
REMARK  7 active torsions:
REMARK  status: ('A' for Active; 'I' for Inactive)
REMARK    1  A    between atoms: C_2  and  C_3
REMARK    2  A    between atoms: C_3  and  N_4
REMARK    3  A    between atoms: N_4  and  C_5
REMARK    4  A    between atoms: N_14  and  N_15
REMARK    5  A    between atoms: C_16  and  C_17
REMARK    6  A    between atoms: N_19  and  C_20
REMARK    7  A    between atoms: C_20  and  C_21
REMARK                            x       y       z     vdW  Elec       q    Type
REMARK                         _______ _______ _______ _____ _____    ______ ____
ROOT
ATOM      1  N   UNL     1       1.467   7.785  20.259  0.00  0.00    +0.000 NA
ATOM      2  C   UNL     1       1.788   6.619  20.740  0.00  0.00    +0.000 C 
ENDROOT
BRANCH   2   3
ATOM      3  C   UNL     1       2.570   5.561  20.111  0.00  0.00    +0.000 A 
ATOM      4  C   UNL     1       3.888   5.587  19.700  0.00  0.00    +0.000 A 
ATOM      5  N   UNL     1       4.251   4.340  19.261  0.00  0.00    +0.000 N 
ATOM      6  C   UNL     1       3.139   3.535  19.187  0.00  0.00    +0.000 A 
ATOM      7  C   UNL     1       2.978   2.227  18.706  0.00  0.00    +0.000 A 
ATOM      8  C   UNL     1       1.694   1.680  18.691  0.00  0.00    +0.000 A 
ATOM      9  C   UNL     1       0.606   2.402  19.167  0.00  0.00    +0.000 A 
ATOM     10  C   UNL     1       0.779   3.691  19.683  0.00  0.00    +0.000 A 
ATOM     11  C   UNL     1       2.064   4.280  19.693  0.00  0.00    +0.000 A 
BRANCH   5  12
ATOM     12  C   UNL     1       5.623   3.996  18.901  0.00  0.00    +0.000 C 
BRANCH  12  13
ATOM     13  C   UNL     1       5.903   4.378  17.470  0.00  0.00    +0.000 A 
ATOM     14  C   UNL     1       5.030   3.991  16.439  0.00  0.00    +0.000 A 
ATOM     15  C   UNL     1       5.363   4.239  15.105  0.00  0.00    +0.000 A 
ATOM     16  C   UNL     1       6.562   4.873  14.806  0.00  0.00    +0.000 A 
ATOM     17  F   UNL     1       6.901   5.074  13.526  0.00  0.00    +0.000 F 
ATOM     18  C   UNL     1       7.422   5.291  15.812  0.00  0.00    +0.000 A 
ATOM     19  C   UNL     1       7.091   5.050  17.143  0.00  0.00    +0.000 A 
ENDBRANCH  12  13
ENDBRANCH   5  12
ENDBRANCH   2   3
BRANCH   1  22
ATOM     20  O   UNL     1       2.087   9.590  17.311  0.00  0.00    +0.000 OA
ATOM     21  C   UNL     1       1.637   9.341  18.433  0.00  0.00    +0.000 C 
ATOM     22  N   UNL     1       2.012   8.198  19.090  0.00  0.00    +0.000 N 
ATOM     23  H   UNL     1       2.757   7.664  18.669  0.00  0.00    +0.000 HD
BRANCH  21  24
ATOM     24  C   UNL     1       0.720  10.299  19.176  0.00  0.00    +0.000 C 
BRANCH  24  25
ATOM     25  N   UNL     1       0.052  11.150  18.184  0.00  0.00    +0.000 N 
ATOM     26  H   UNL     1       0.552  11.145  17.297  0.00  0.00    +0.000 HD
BRANCH  25  27
ATOM     27  C   UNL     1      -1.326  11.039  18.029  0.00  0.00    +0.000 A 
ATOM     28  C   UNL     1      -1.923  10.053  17.210  0.00  0.00    +0.000 A 
ATOM     29  C   UNL     1      -3.309   9.925  17.109  0.00  0.00    +0.000 A 
ATOM     30  C   UNL     1      -4.085  10.774  17.862  0.00  0.00    +0.000 A 
ATOM     31  C   UNL     1      -3.523  11.699  18.705  0.00  0.00    +0.000 A 
ATOM     32  C   UNL     1      -2.158  11.837  18.829  0.00  0.00    +0.000 A 
ATOM     33  O   UNL     1      -4.459  12.423  19.375  0.00  0.00    +0.000 OA
ATOM     34  C   UNL     1      -5.671  11.879  18.816  0.00  0.00    +0.000 C 
ATOM     35  O   UNL     1      -5.443  10.797  17.890  0.00  0.00    +0.000 OA
ENDBRANCH  25  27
ENDBRANCH  24  25
ENDBRANCH  21  24
ENDBRANCH   1  22
TORSDOF 7
ENDMDL
MODEL 2
REMARK VINA RESULT:      -9.2      1.755      2.345
REMARK  Name = 
REMARK  7 active torsions:
REMARK  status: ('A' for Active; 'I' for Inactive)
REMARK    1  A    between atoms: C_2  and  C_3
REMARK    2  A    between atoms: C_3  and  N_4
REMARK    3  A    between atoms: N_4  and  C_5
REMARK    4  A    between atoms: N_14  and  N_15
REMARK    5  A    between atoms: C_16  and  C_17
REMARK    6  A    between atoms: N_19  and  C_20
REMARK    7  A    between atoms: C_20  and  C_21
REMARK                            x       y       z     vdW  Elec       q    Type
REMARK                         _______ _______ _______ _____ _____    ______ ____
ROOT
ATOM      1  N   UNL     1       1.434   7.909  20.332  0.00  0.00    +0.000 NA
ATOM      2  C   UNL     1       1.760   6.727  20.770  0.00  0.00    +0.000 C 
ENDROOT
BRANCH   2   3
ATOM      3  C   UNL     1       2.519   5.684  20.089  0.00  0.00    +0.000 A 
ATOM      4  C   UNL     1       3.791   5.750  19.554  0.00  0.00    +0.000 A 
ATOM      5  N   UNL     1       4.158   4.508  19.108  0.00  0.00    +0.000 N 
ATOM      6  C   UNL     1       3.077   3.660  19.155  0.00  0.00    +0.000 A 
ATOM      7  C   UNL     1       2.922   2.336  18.715  0.00  0.00    +0.000 A 
ATOM      8  C   UNL     1       1.665   1.743  18.833  0.00  0.00    +0.000 A 
ATOM      9  C   UNL     1       0.600   2.435  19.396  0.00  0.00    +0.000 A 
ATOM     10  C   UNL     1       0.770   3.740  19.869  0.00  0.00    +0.000 A 
ATOM     11  C   UNL     1       2.026   4.376  19.745  0.00  0.00    +0.000 A 
BRANCH   5  12
ATOM     12  C   UNL     1       5.503   4.207  18.625  0.00  0.00    +0.000 C 
BRANCH  12  13
ATOM     13  C   UNL     1       6.274   5.480  18.384  0.00  0.00    +0.000 A 
ATOM     14  C   UNL     1       5.918   6.348  17.337  0.00  0.00    +0.000 A 
ATOM     15  C   UNL     1       6.713   7.457  17.043  0.00  0.00    +0.000 A 
ATOM     16  C   UNL     1       7.857   7.697  17.793  0.00  0.00    +0.000 A 
ATOM     17  F   UNL     1       8.643   8.737  17.484  0.00  0.00    +0.000 F 
ATOM     18  C   UNL     1       8.208   6.868  18.850  0.00  0.00    +0.000 A 
ATOM     19  C   UNL     1       7.414   5.764  19.150  0.00  0.00    +0.000 A 
ENDBRANCH  12  13
ENDBRANCH   5  12
ENDBRANCH   2   3
BRANCH   1  22
ATOM     20  O   UNL     1       2.054   9.851  17.473  0.00  0.00    +0.000 OA
ATOM     21  C   UNL     1       1.640   9.564  18.599  0.00  0.00    +0.000 C 
ATOM     22  N   UNL     1       1.954   8.355  19.164  0.00  0.00    +0.000 N 
ATOM     23  H   UNL     1       2.633   7.795  18.672  0.00  0.00    +0.000 HD
BRANCH  21  24
ATOM     24  C   UNL     1       0.839  10.538  19.448  0.00  0.00    +0.000 C 
BRANCH  24  25
ATOM     25  N   UNL     1      -0.512   9.989  19.618  0.00  0.00    +0.000 N 
ATOM     26  H   UNL     1      -0.822  10.064  20.585  0.00  0.00    +0.000 HD
BRANCH  25  27
ATOM     27  C   UNL     1      -1.498  10.348  18.705  0.00  0.00    +0.000 A 
ATOM     28  C   UNL     1      -2.423  11.389  18.951  0.00  0.00    +0.000 A 
ATOM     29  C   UNL     1      -3.370  11.769  18.001  0.00  0.00    +0.000 A 
ATOM     30  C   UNL     1      -3.359  11.114  16.792  0.00  0.00    +0.000 A 
ATOM     31  C   UNL     1      -2.434  10.139  16.514  0.00  0.00    +0.000 A 
ATOM     32  C   UNL     1      -1.483   9.755  17.433  0.00  0.00    +0.000 A 
ATOM     33  O   UNL     1      -2.578   9.633  15.260  0.00  0.00    +0.000 OA
ATOM     34  C   UNL     1      -3.731  10.367  14.804  0.00  0.00    +0.000 C 
ATOM     35  O   UNL     1      -4.204  11.345  15.753  0.00  0.00    +0.000 OA
ENDBRANCH  25  27
ENDBRANCH  24  25
ENDBRANCH  21  24
ENDBRANCH   1  22
TORSDOF 7
ENDMDL
MODEL 3
REMARK VINA RESULT:      -9.1      2.476      3.116
REMARK  Name = 
REMARK  7 active torsions:
REMARK  status: ('A' for Active; 'I' for Inactive)
REMARK    1  A    between atoms: C_2  and  C_3
REMARK    2  A    between atoms: C_3  and  N_4
REMARK    3  A    between atoms: N_4  and  C_5
REMARK    4  A    between atoms: N_14  and  N_15
REMARK    5  A    between atoms: C_16  and  C_17
REMARK    6  A    between atoms: N_19  and  C_20
REMARK    7  A    between atoms: C_20  and  C_21
REMARK                            x       y       z     vdW  Elec       q    Type
REMARK                         _______ _______ _______ _____ _____    ______ ____
ROOT
ATOM      1  N   UNL     1       1.408   8.419  20.461  0.00  0.00    +0.000 NA
ATOM      2  C   UNL     1       1.564   7.140  20.650  0.00  0.00    +0.000 C 
ENDROOT
BRANCH   2   3
ATOM      3  C   UNL     1       2.157   6.156  19.752  0.00  0.00    +0.000 A 
ATOM      4  C   UNL     1       2.982   6.363  18.664  0.00  0.00    +0.000 A 
ATOM      5  N   UNL     1       3.396   5.153  18.172  0.00  0.00    +0.000 N 
ATOM      6  C   UNL     1       2.702   4.140  18.791  0.00  0.00    +0.000 A 
ATOM      7  C   UNL     1       2.693   2.756  18.565  0.00  0.00    +0.000 A 
ATOM      8  C   UNL     1       1.818   1.968  19.314  0.00  0.00    +0.000 A 
ATOM      9  C   UNL     1       0.997   2.536  20.280  0.00  0.00    +0.000 A 
ATOM     10  C   UNL     1       1.039   3.912  20.530  0.00  0.00    +0.000 A 
ATOM     11  C   UNL     1       1.900   4.739  19.772  0.00  0.00    +0.000 A 
BRANCH   5  12
ATOM     12  C   UNL     1       4.397   5.029  17.117  0.00  0.00    +0.000 C 
BRANCH  12  13
ATOM     13  C   UNL     1       5.688   5.684  17.536  0.00  0.00    +0.000 A 
ATOM     14  C   UNL     1       6.428   5.186  18.622  0.00  0.00    +0.000 A 
ATOM     15  C   UNL     1       7.553   5.873  19.081  0.00  0.00    +0.000 A 
ATOM     16  C   UNL     1       7.937   7.053  18.456  0.00  0.00    +0.000 A 
ATOM     17  F   UNL     1       8.991   7.734  18.922  0.00  0.00    +0.000 F 
ATOM     18  C   UNL     1       7.237   7.544  17.362  0.00  0.00    +0.000 A 
ATOM     19  C   UNL     1       6.118   6.858  16.898  0.00  0.00    +0.000 A 
ENDBRANCH  12  13
ENDBRANCH   5  12
ENDBRANCH   2   3
BRANCH   1  22
ATOM     20  O   UNL     1       1.829  10.184  17.455  0.00  0.00    +0.000 OA
ATOM     21  C   UNL     1       1.279   9.781  18.484  0.00  0.00    +0.000 C 
ATOM     22  N   UNL     1       1.971   9.008  19.380  0.00  0.00    +0.000 N 
ATOM     23  H   UNL     1       2.961   8.908  19.214  0.00  0.00    +0.000 HD
BRANCH  21  24
ATOM     24  C   UNL     1      -0.142  10.172  18.856  0.00  0.00    +0.000 C 
BRANCH  24  25
ATOM     25  N   UNL     1      -0.083  11.419  19.628  0.00  0.00    +0.000 N 
ATOM     26  H   UNL     1      -0.121  12.233  19.017  0.00  0.00    +0.000 HD
BRANCH  25  27
ATOM     27  C   UNL     1      -0.893  11.548  20.751  0.00  0.00    +0.000 A 
ATOM     28  C   UNL     1      -0.568  10.963  21.997  0.00  0.00    +0.000 A 
ATOM     29  C   UNL     1      -1.368  11.149  23.125  0.00  0.00    +0.000 A 
ATOM     30  C   UNL     1      -2.476  11.951  22.996  0.00  0.00    +0.000 A 
ATOM     31  C   UNL     1      -2.777  12.572  21.810  0.00  0.00    +0.000 A 
ATOM     32  C   UNL     1      -1.997  12.412  20.687  0.00  0.00    +0.000 A 
ATOM     33  O   UNL     1      -3.898  13.337  21.897  0.00  0.00    +0.000 OA
ATOM     34  C   UNL     1      -4.292  13.083  23.260  0.00  0.00    +0.000 C 
ATOM     35  O   UNL     1      -3.367  12.242  23.980  0.00  0.00    +0.000 OA
ENDBRANCH  25  27
ENDBRANCH  24  25
ENDBRANCH  21  24
ENDBRANCH   1  22
TORSDOF 7
ENDMDL
MODEL 4
REMARK VINA RESULT:      -9.1      2.487      4.461
REMARK  Name = 
REMARK  7 active torsions:
REMARK  status: ('A' for Active; 'I' for Inactive)
REMARK    1  A    between atoms: C_2  and  C_3
REMARK    2  A    between atoms: C_3  and  N_4
REMARK    3  A    between atoms: N_4  and  C_5
REMARK    4  A    between atoms: N_14  and  N_15
REMARK    5  A    between atoms: C_16  and  C_17
REMARK    6  A    between atoms: N_19  and  C_20
REMARK    7  A    between atoms: C_20  and  C_21
REMARK                            x       y       z     vdW  Elec       q    Type
REMARK                         _______ _______ _______ _____ _____    ______ ____
ROOT
ATOM      1  N   UNL     1       2.430   8.921  18.214  0.00  0.00    +0.000 NA
ATOM      2  C   UNL     1       3.201   8.270  17.391  0.00  0.00    +0.000 C 
ENDROOT
BRANCH   2   3
ATOM      3  C   UNL     1       3.701   6.905  17.503  0.00  0.00    +0.000 A 
ATOM      4  C   UNL     1       2.993   5.738  17.711  0.00  0.00    +0.000 A 
ATOM      5  N   UNL     1       3.848   4.670  17.639  0.00  0.00    +0.000 N 
ATOM      6  C   UNL     1       5.146   5.120  17.586  0.00  0.00    +0.000 A 
ATOM      7  C   UNL     1       6.365   4.424  17.607  0.00  0.00    +0.000 A 
ATOM      8  C   UNL     1       7.548   5.164  17.613  0.00  0.00    +0.000 A 
ATOM      9  C   UNL     1       7.522   6.552  17.570  0.00  0.00    +0.000 A 
ATOM     10  C   UNL     1       6.305   7.239  17.509  0.00  0.00    +0.000 A 
ATOM     11  C   UNL     1       5.088   6.519  17.523  0.00  0.00    +0.000 A 
BRANCH   5  12
ATOM     12  C   UNL     1       3.388   3.285  17.664  0.00  0.00    +0.000 C 
BRANCH  12  13
ATOM     13  C   UNL     1       2.670   2.992  18.957  0.00  0.00    +0.000 A 
ATOM     14  C   UNL     1       1.265   2.988  19.014  0.00  0.00    +0.000 A 
ATOM     15  C   UNL     1       0.612   2.842  20.240  0.00  0.00    +0.000 A 
ATOM     16  C   UNL     1       1.360   2.698  21.401  0.00  0.00    +0.000 A 
ATOM     17  F   UNL     1       0.735   2.600  22.581  0.00  0.00    +0.000 F 
ATOM     18  C   UNL     1       2.748   2.668  21.361  0.00  0.00    +0.000 A 
ATOM     19  C   UNL     1       3.402   2.809  20.140  0.00  0.00    +0.000 A 
ENDBRANCH  12  13
ENDBRANCH   5  12
ENDBRANCH   2   3
BRANCH   1  22
ATOM     20  O   UNL     1       0.660   8.238  21.169  0.00  0.00    +0.000 OA
ATOM     21  C   UNL     1       1.042   8.865  20.177  0.00  0.00    +0.000 C 
ATOM     22  N   UNL     1       1.863   8.268  19.256  0.00  0.00    +0.000 N 
ATOM     23  H   UNL     1       2.018   7.278  19.370  0.00  0.00    +0.000 HD
BRANCH  21  24
ATOM     24  C   UNL     1       0.573  10.279  19.874  0.00  0.00    +0.000 C 
BRANCH  24  25
ATOM     25  N   UNL     1       0.174  10.334  18.463  0.00  0.00    +0.000 N 
ATOM     26  H   UNL     1       0.589   9.569  17.932  0.00  0.00    +0.000 HD
BRANCH  25  27
ATOM     27  C   UNL     1      -1.167  10.539  18.156  0.00  0.00    +0.000 A 
ATOM     28  C   UNL     1      -1.839   9.810  17.147  0.00  0.00    +0.000 A 
ATOM     29  C   UNL     1      -3.197   9.994  16.891  0.00  0.00    +0.000 A 
ATOM     30  C   UNL     1      -3.879  10.893  17.677  0.00  0.00    +0.000 A 
ATOM     31  C   UNL     1      -3.257  11.568  18.697  0.00  0.00    +0.000 A 
ATOM     32  C   UNL     1      -1.919  11.395  18.975  0.00  0.00    +0.000 A 
ATOM     33  O   UNL     1      -4.108  12.390  19.367  0.00  0.00    +0.000 OA
ATOM     34  C   UNL     1      -5.322  12.189  18.617  0.00  0.00    +0.000 C 
ATOM     35  O   UNL     1      -5.197  11.203  17.572  0.00  0.00    +0.000 OA
ENDBRANCH  25  27
ENDBRANCH  24  25
ENDBRANCH  21  24
ENDBRANCH   1  22
TORSDOF 7
ENDMDL
MODEL 5
REMARK VINA RESULT:      -9.0      1.916      2.468
REMARK  Name = 
REMARK  7 active torsions:
REMARK  status: ('A' for Active; 'I' for Inactive)
REMARK    1  A    between atoms: C_2  and  C_3
REMARK    2  A    between atoms: C_3  and  N_4
REMARK    3  A    between atoms: N_4  and  C_5
REMARK    4  A    between atoms: N_14  and  N_15
REMARK    5  A    between atoms: C_16  and  C_17
REMARK    6  A    between atoms: N_19  and  C_20
REMARK    7  A    between atoms: C_20  and  C_21
REMARK                            x       y       z     vdW  Elec       q    Type
REMARK                         _______ _______ _______ _____ _____    ______ ____
ROOT
ATOM      1  N   UNL     1       1.484   7.883  20.209  0.00  0.00    +0.000 NA
ATOM      2  C   UNL     1       1.746   6.701  20.690  0.00  0.00    +0.000 C 
ENDROOT
BRANCH   2   3
ATOM      3  C   UNL     1       2.544   5.635  20.095  0.00  0.00    +0.000 A 
ATOM      4  C   UNL     1       3.860   5.669  19.680  0.00  0.00    +0.000 A 
ATOM      5  N   UNL     1       4.242   4.415  19.283  0.00  0.00    +0.000 N 
ATOM      6  C   UNL     1       3.144   3.589  19.239  0.00  0.00    +0.000 A 
ATOM      7  C   UNL     1       3.003   2.263  18.802  0.00  0.00    +0.000 A 
ATOM      8  C   UNL     1       1.728   1.696  18.808  0.00  0.00    +0.000 A 
ATOM      9  C   UNL     1       0.630   2.415  19.262  0.00  0.00    +0.000 A 
ATOM     10  C   UNL     1       0.782   3.723  19.734  0.00  0.00    +0.000 A 
ATOM     11  C   UNL     1       2.058   4.333  19.721  0.00  0.00    +0.000 A 
BRANCH   5  12
ATOM     12  C   UNL     1       5.619   4.081  18.932  0.00  0.00    +0.000 C 
BRANCH  12  13
ATOM     13  C   UNL     1       5.889   4.413  17.486  0.00  0.00    +0.000 A 
ATOM     14  C   UNL     1       4.923   4.156  16.498  0.00  0.00    +0.000 A 
ATOM     15  C   UNL     1       5.229   4.348  15.149  0.00  0.00    +0.000 A 
ATOM     16  C   UNL     1       6.495   4.796  14.791  0.00  0.00    +0.000 A 
ATOM     17  F   UNL     1       6.802   4.940  13.496  0.00  0.00    +0.000 F 
ATOM     18  C   UNL     1       7.452   5.084  15.755  0.00  0.00    +0.000 A 
ATOM     19  C   UNL     1       7.147   4.899  17.101  0.00  0.00    +0.000 A 
ENDBRANCH  12  13
ENDBRANCH   5  12
ENDBRANCH   2   3
BRANCH   1  22
ATOM     20  O   UNL     1       2.198   9.526  17.189  0.00  0.00    +0.000 OA
ATOM     21  C   UNL     1       1.633   9.281  18.259  0.00  0.00    +0.000 C 
ATOM     22  N   UNL     1       2.116   8.302  19.088  0.00  0.00    +0.000 N 
ATOM     23  H   UNL     1       3.008   7.904  18.837  0.00  0.00    +0.000 HD
BRANCH  21  24
ATOM     24  C   UNL     1       0.441  10.084  18.755  0.00  0.00    +0.000 C 
BRANCH  24  25
ATOM     25  N   UNL     1       0.832  10.755  20.001  0.00  0.00    +0.000 N 
ATOM     26  H   UNL     1       1.427  11.560  19.815  0.00  0.00    +0.000 HD
BRANCH  25  27
ATOM     27  C   UNL     1      -0.148  11.014  20.954  0.00  0.00    +0.000 A 
ATOM     28  C   UNL     1      -0.151  10.404  22.230  0.00  0.00    +0.000 A 
ATOM     29  C   UNL     1      -1.112  10.718  23.190  0.00  0.00    +0.000 A 
ATOM     30  C   UNL     1      -2.048  11.672  22.868  0.00  0.00    +0.000 A 
ATOM     31  C   UNL     1      -2.028  12.315  21.656  0.00  0.00    +0.000 A 
ATOM     32  C   UNL     1      -1.083  12.028  20.697  0.00  0.00    +0.000 A 
ATOM     33  O   UNL     1      -3.022  13.236  21.543  0.00  0.00    +0.000 OA
ATOM     34  C   UNL     1      -3.698  13.058  22.804  0.00  0.00    +0.000 C 
ATOM     35  O   UNL     1      -3.056  12.101  23.672  0.00  0.00    +0.000 OA
ENDBRANCH  25  27
ENDBRANCH  24  25
ENDBRANCH  21  24
ENDBRANCH   1  22
TORSDOF 7
ENDMDL
MODEL 6
REMARK VINA RESULT:      -9.0      2.966      3.672
REMARK  Name = 
REMARK  7 active torsions:
REMARK  status: ('A' for Active; 'I' for Inactive)
REMARK    1  A    between atoms: C_2  and  C_3
REMARK    2  A    between atoms: C_3  and  N_4
REMARK    3  A    between atoms: N_4  and  C_5
REMARK    4  A    between atoms: N_14  and  N_15
REMARK    5  A    between atoms: C_16  and  C_17
REMARK    6  A    between atoms: N_19  and  C_20
REMARK    7  A    between atoms: C_20  and  C_21
REMARK                            x       y       z     vdW  Elec       q    Type
REMARK                         _______ _______ _______ _____ _____    ______ ____
ROOT
ATOM      1  N   UNL     1       1.279   8.314  20.747  0.00  0.00    +0.000 NA
ATOM      2  C   UNL     1       1.618   7.066  20.895  0.00  0.00    +0.000 C 
ENDROOT
BRANCH   2   3
ATOM      3  C   UNL     1       2.169   6.150  19.902  0.00  0.00    +0.000 A 
ATOM      4  C   UNL     1       2.958   6.436  18.806  0.00  0.00    +0.000 A 
ATOM      5  N   UNL     1       3.341   5.265  18.206  0.00  0.00    +0.000 N 
ATOM      6  C   UNL     1       2.657   4.213  18.768  0.00  0.00    +0.000 A 
ATOM      7  C   UNL     1       2.624   2.850  18.434  0.00  0.00    +0.000 A 
ATOM      8  C   UNL     1       1.767   2.013  19.149  0.00  0.00    +0.000 A 
ATOM      9  C   UNL     1       0.986   2.511  20.185  0.00  0.00    +0.000 A 
ATOM     10  C   UNL     1       1.052   3.862  20.540  0.00  0.00    +0.000 A 
ATOM     11  C   UNL     1       1.896   4.739  19.820  0.00  0.00    +0.000 A 
BRANCH   5  12
ATOM     12  C   UNL     1       4.304   5.215  17.110  0.00  0.00    +0.000 C 
BRANCH  12  13
ATOM     13  C   UNL     1       5.623   5.806  17.540  0.00  0.00    +0.000 A 
ATOM     14  C   UNL     1       6.341   5.254  18.614  0.00  0.00    +0.000 A 
ATOM     15  C   UNL     1       7.495   5.883  19.086  0.00  0.00    +0.000 A 
ATOM     16  C   UNL     1       7.929   7.057  18.484  0.00  0.00    +0.000 A 
ATOM     17  F   UNL     1       9.012   7.683  18.962  0.00  0.00    +0.000 F 
ATOM     18  C   UNL     1       7.249   7.601  17.402  0.00  0.00    +0.000 A 
ATOM     19  C   UNL     1       6.101   6.973  16.926  0.00  0.00    +0.000 A 
ENDBRANCH  12  13
ENDBRANCH   5  12
ENDBRANCH   2   3
BRANCH   1  22
ATOM     20  O   UNL     1       1.086  10.418  17.942  0.00  0.00    +0.000 OA
ATOM     21  C   UNL     1       0.821   9.964  19.059  0.00  0.00    +0.000 C 
ATOM     22  N   UNL     1       1.579   8.955  19.593  0.00  0.00    +0.000 N 
ATOM     23  H   UNL     1       2.418   8.711  19.089  0.00  0.00    +0.000 HD
BRANCH  21  24
ATOM     24  C   UNL     1      -0.287  10.534  19.930  0.00  0.00    +0.000 C 
BRANCH  24  25
ATOM     25  N   UNL     1       0.335  11.170  21.097  0.00  0.00    +0.000 N 
ATOM     26  H   UNL     1       1.224  11.603  20.853  0.00  0.00    +0.000 HD
BRANCH  25  27
ATOM     27  C   UNL     1      -0.450  11.975  21.916  0.00  0.00    +0.000 A 
ATOM     28  C   UNL     1      -0.205  13.357  22.089  0.00  0.00    +0.000 A 
ATOM     29  C   UNL     1      -1.036  14.158  22.873  0.00  0.00    +0.000 A 
ATOM     30  C   UNL     1      -2.131  13.563  23.454  0.00  0.00    +0.000 A 
ATOM     31  C   UNL     1      -2.417  12.237  23.252  0.00  0.00    +0.000 A 
ATOM     32  C   UNL     1      -1.616  11.430  22.475  0.00  0.00    +0.000 A 
ATOM     33  O   UNL     1      -3.551  11.849  23.894  0.00  0.00    +0.000 OA
ATOM     34  C   UNL     1      -3.914  13.074  24.561  0.00  0.00    +0.000 C 
ATOM     35  O   UNL     1      -3.044  14.181  24.248  0.00  0.00    +0.000 OA
ENDBRANCH  25  27
ENDBRANCH  24  25
ENDBRANCH  21  24
ENDBRANCH   1  22
TORSDOF 7
ENDMDL
MODEL 7
REMARK VINA RESULT:      -9.0      1.683      2.350
REMARK  Name = 
REMARK  7 active torsions:
REMARK  status: ('A' for Active; 'I' for Inactive)
REMARK    1  A    between atoms: C_2  and  C_3
REMARK    2  A    between atoms: C_3  and  N_4
REMARK    3  A    between atoms: N_4  and  C_5
REMARK    4  A    between atoms: N_14  and  N_15
REMARK    5  A    between atoms: C_16  and  C_17
REMARK    6  A    between atoms: N_19  and  C_20
REMARK    7  A    between atoms: C_20  and  C_21
REMARK                            x       y       z     vdW  Elec       q    Type
REMARK                         _______ _______ _______ _____ _____    ______ ____
ROOT
ATOM      1  N   UNL     1       1.616   8.591  18.987  0.00  0.00    +0.000 NA
ATOM      2  C   UNL     1       1.955   7.598  18.214  0.00  0.00    +0.000 C 
ENDROOT
BRANCH   2   3
ATOM      3  C   UNL     1       2.824   6.467  18.519  0.00  0.00    +0.000 A 
ATOM      4  C   UNL     1       4.074   6.175  18.009  0.00  0.00    +0.000 A 
ATOM      5  N   UNL     1       4.579   5.076  18.652  0.00  0.00    +0.000 N 
ATOM      6  C   UNL     1       3.604   4.512  19.441  0.00  0.00    +0.000 A 
ATOM      7  C   UNL     1       3.600   3.333  20.202  0.00  0.00    +0.000 A 
ATOM      8  C   UNL     1       2.422   2.971  20.855  0.00  0.00    +0.000 A 
ATOM      9  C   UNL     1       1.289   3.772  20.779  0.00  0.00    +0.000 A 
ATOM     10  C   UNL     1       1.311   4.967  20.051  0.00  0.00    +0.000 A 
ATOM     11  C   UNL     1       2.484   5.350  19.360  0.00  0.00    +0.000 A 
BRANCH   5  12
ATOM     12  C   UNL     1       5.945   4.600  18.451  0.00  0.00    +0.000 C 
BRANCH  12  13
ATOM     13  C   UNL     1       6.242   4.457  16.980  0.00  0.00    +0.000 A 
ATOM     14  C   UNL     1       7.281   5.191  16.382  0.00  0.00    +0.000 A 
ATOM     15  C   UNL     1       7.466   5.148  14.999  0.00  0.00    +0.000 A 
ATOM     16  C   UNL     1       6.618   4.373  14.219  0.00  0.00    +0.000 A 
ATOM     17  F   UNL     1       6.769   4.364  12.888  0.00  0.00    +0.000 F 
ATOM     18  C   UNL     1       5.606   3.616  14.795  0.00  0.00    +0.000 A 
ATOM     19  C   UNL     1       5.423   3.653  16.174  0.00  0.00    +0.000 A 
ENDBRANCH  12  13
ENDBRANCH   5  12
ENDBRANCH   2   3
BRANCH   1  22
ATOM     20  O   UNL     1       1.584   9.095  22.462  0.00  0.00    +0.000 OA
ATOM     21  C   UNL     1       1.159   9.037  21.305  0.00  0.00    +0.000 C 
ATOM     22  N   UNL     1       1.958   8.564  20.296  0.00  0.00    +0.000 N 
ATOM     23  H   UNL     1       2.836   8.154  20.577  0.00  0.00    +0.000 HD
BRANCH  21  24
ATOM     24  C   UNL     1      -0.272   9.403  20.942  0.00  0.00    +0.000 C 
BRANCH  24  25
ATOM     25  N   UNL     1      -0.232  10.594  20.085  0.00  0.00    +0.000 N 
ATOM     26  H   UNL     1       0.675  10.694  19.633  0.00  0.00    +0.000 HD
BRANCH  25  27
ATOM     27  C   UNL     1      -1.295  10.829  19.219  0.00  0.00    +0.000 A 
ATOM     28  C   UNL     1      -2.329  11.749  19.511  0.00  0.00    +0.000 A 
ATOM     29  C   UNL     1      -3.357  12.008  18.606  0.00  0.00    +0.000 A 
ATOM     30  C   UNL     1      -3.320  11.359  17.394  0.00  0.00    +0.000 A 
ATOM     31  C   UNL     1      -2.296  10.506  17.070  0.00  0.00    +0.000 A 
ATOM     32  C   UNL     1      -1.265  10.242  17.944  0.00  0.00    +0.000 A 
ATOM     33  O   UNL     1      -2.432   9.985  15.822  0.00  0.00    +0.000 OA
ATOM     34  C   UNL     1      -3.687  10.571  15.421  0.00  0.00    +0.000 C 
ATOM     35  O   UNL     1      -4.233  11.484  16.396  0.00  0.00    +0.000 OA
ENDBRANCH  25  27
ENDBRANCH  24  25
ENDBRANCH  21  24
ENDBRANCH   1  22
TORSDOF 7
ENDMDL
MODEL 8
REMARK VINA RESULT:      -8.9      3.205      5.503
REMARK  Name = 
REMARK  7 active torsions:
REMARK  status: ('A' for Active; 'I' for Inactive)
REMARK    1  A    between atoms: C_2  and  C_3
REMARK    2  A    between atoms: C_3  and  N_4
REMARK    3  A    between atoms: N_4  and  C_5
REMARK    4  A    between atoms: N_14  and  N_15
REMARK    5  A    between atoms: C_16  and  C_17
REMARK    6  A    between atoms: N_19  and  C_20
REMARK    7  A    between atoms: C_20  and  C_21
REMARK                            x       y       z     vdW  Elec       q    Type
REMARK                         _______ _______ _______ _____ _____    ______ ____
ROOT
ATOM      1  N   UNL     1       3.735   2.576  19.540  0.00  0.00    +0.000 NA
ATOM      2  C   UNL     1       4.859   3.229  19.455  0.00  0.00    +0.000 C 
ENDROOT
BRANCH   2   3
ATOM      3  C   UNL     1       5.289   4.164  18.422  0.00  0.00    +0.000 A 
ATOM      4  C   UNL     1       4.897   4.233  17.100  0.00  0.00    +0.000 A 
ATOM      5  N   UNL     1       5.466   5.334  16.515  0.00  0.00    +0.000 N 
ATOM      6  C   UNL     1       6.390   5.886  17.372  0.00  0.00    +0.000 A 
ATOM      7  C   UNL     1       7.293   6.946  17.196  0.00  0.00    +0.000 A 
ATOM      8  C   UNL     1       8.174   7.244  18.236  0.00  0.00    +0.000 A 
ATOM      9  C   UNL     1       8.139   6.529  19.426  0.00  0.00    +0.000 A 
ATOM     10  C   UNL     1       7.210   5.500  19.612  0.00  0.00    +0.000 A 
ATOM     11  C   UNL     1       6.318   5.160  18.568  0.00  0.00    +0.000 A 
BRANCH   5  12
ATOM     12  C   UNL     1       5.131   5.775  15.165  0.00  0.00    +0.000 C 
BRANCH  12  13
ATOM     13  C   UNL     1       5.837   4.922  14.142  0.00  0.00    +0.000 A 
ATOM     14  C   UNL     1       7.173   5.178  13.791  0.00  0.00    +0.000 A 
ATOM     15  C   UNL     1       7.777   4.465  12.754  0.00  0.00    +0.000 A 
ATOM     16  C   UNL     1       7.047   3.500  12.071  0.00  0.00    +0.000 A 
ATOM     17  F   UNL     1       7.612   2.845  11.049  0.00  0.00    +0.000 F 
ATOM     18  C   UNL     1       5.735   3.211  12.423  0.00  0.00    +0.000 A 
ATOM     19  C   UNL     1       5.133   3.917  13.461  0.00  0.00    +0.000 A 
ENDBRANCH  12  13
ENDBRANCH   5  12
ENDBRANCH   2   3
BRANCH   1  22
ATOM     20  O   UNL     1       0.676   3.675  18.212  0.00  0.00    +0.000 OA
ATOM     21  C   UNL     1       1.605   3.561  19.016  0.00  0.00    +0.000 C 
ATOM     22  N   UNL     1       2.732   2.858  18.677  0.00  0.00    +0.000 N 
ATOM     23  H   UNL     1       2.803   2.567  17.713  0.00  0.00    +0.000 HD
BRANCH  21  24
ATOM     24  C   UNL     1       1.597   4.244  20.375  0.00  0.00    +0.000 C 
BRANCH  24  25
ATOM     25  N   UNL     1       2.654   5.264  20.377  0.00  0.00    +0.000 N 
ATOM     26  H   UNL     1       3.537   4.881  20.045  0.00  0.00    +0.000 HD
BRANCH  25  27
ATOM     27  C   UNL     1       2.373   6.516  19.841  0.00  0.00    +0.000 A 
ATOM     28  C   UNL     1       2.614   6.837  18.485  0.00  0.00    +0.000 A 
ATOM     29  C   UNL     1       2.276   8.082  17.954  0.00  0.00    +0.000 A 
ATOM     30  C   UNL     1       1.667   8.988  18.790  0.00  0.00    +0.000 A 
ATOM     31  C   UNL     1       1.374   8.675  20.094  0.00  0.00    +0.000 A 
ATOM     32  C   UNL     1       1.689   7.449  20.636  0.00  0.00    +0.000 A 
ATOM     33  O   UNL     1       0.754   9.696  20.744  0.00  0.00    +0.000 OA
ATOM     34  C   UNL     1       0.738  10.701  19.711  0.00  0.00    +0.000 C 
ATOM     35  O   UNL     1       1.272  10.243  18.452  0.00  0.00    +0.000 OA
ENDBRANCH  25  27
ENDBRANCH  24  25
ENDBRANCH  21  24
ENDBRANCH   1  22
TORSDOF 7
ENDMDL
MODEL 9
REMARK VINA RESULT:      -8.9      4.110     10.325
REMARK  Name = 
REMARK  7 active torsions:
REMARK  status: ('A' for Active; 'I' for Inactive)
REMARK    1  A    between atoms: C_2  and  C_3
REMARK    2  A    between atoms: C_3  and  N_4
REMARK    3  A    between atoms: N_4  and  C_5
REMARK    4  A    between atoms: N_14  and  N_15
REMARK    5  A    between atoms: C_16  and  C_17
REMARK    6  A    between atoms: N_19  and  C_20
REMARK    7  A    between atoms: C_20  and  C_21
REMARK                            x       y       z     vdW  Elec       q    Type
REMARK                         _______ _______ _______ _____ _____    ______ ____
ROOT
ATOM      1  N   UNL     1       2.291   8.006  18.375  0.00  0.00    +0.000 NA
ATOM      2  C   UNL     1       1.920   9.147  17.869  0.00  0.00    +0.000 C 
ENDROOT
BRANCH   2   3
ATOM      3  C   UNL     1       0.958  10.106  18.401  0.00  0.00    +0.000 A 
ATOM      4  C   UNL     1       1.109  10.992  19.448  0.00  0.00    +0.000 A 
ATOM      5  N   UNL     1      -0.007  11.783  19.537  0.00  0.00    +0.000 N 
ATOM      6  C   UNL     1      -0.981  11.305  18.693  0.00  0.00    +0.000 A 
ATOM      7  C   UNL     1      -2.313  11.702  18.503  0.00  0.00    +0.000 A 
ATOM      8  C   UNL     1      -3.100  10.972  17.611  0.00  0.00    +0.000 A 
ATOM      9  C   UNL     1      -2.571   9.898  16.907  0.00  0.00    +0.000 A 
ATOM     10  C   UNL     1      -1.230   9.532  17.070  0.00  0.00    +0.000 A 
ATOM     11  C   UNL     1      -0.413  10.238  17.982  0.00  0.00    +0.000 A 
BRANCH   5  12
ATOM     12  C   UNL     1      -0.099  12.922  20.445  0.00  0.00    +0.000 C 
BRANCH  12  13
ATOM     13  C   UNL     1      -1.171  12.687  21.478  0.00  0.00    +0.000 A 
ATOM     14  C   UNL     1      -2.216  13.611  21.653  0.00  0.00    +0.000 A 
ATOM     15  C   UNL     1      -3.131  13.449  22.695  0.00  0.00    +0.000 A 
ATOM     16  C   UNL     1      -3.002  12.367  23.557  0.00  0.00    +0.000 A 
ATOM     17  F   UNL     1      -3.854  12.234  24.581  0.00  0.00    +0.000 F 
ATOM     18  C   UNL     1      -1.996  11.427  23.381  0.00  0.00    +0.000 A 
ATOM     19  C   UNL     1      -1.085  11.583  22.339  0.00  0.00    +0.000 A 
ENDBRANCH  12  13
ENDBRANCH   5  12
ENDBRANCH   2   3
BRANCH   1  22
ATOM     20  O   UNL     1       1.460   6.131  21.225  0.00  0.00    +0.000 OA
ATOM     21  C   UNL     1       1.961   6.394  20.129  0.00  0.00    +0.000 C 
ATOM     22  N   UNL     1       1.886   7.665  19.621  0.00  0.00    +0.000 N 
ATOM     23  H   UNL     1       1.526   8.374  20.242  0.00  0.00    +0.000 HD
BRANCH  21  24
ATOM     24  C   UNL     1       2.746   5.371  19.323  0.00  0.00    +0.000 C 
BRANCH  24  25
ATOM     25  N   UNL     1       4.164   5.505  19.679  0.00  0.00    +0.000 N 
ATOM     26  H   UNL     1       4.391   4.956  20.506  0.00  0.00    +0.000 HD
BRANCH  25  27
ATOM     27  C   UNL     1       5.118   5.386  18.673  0.00  0.00    +0.000 A 
ATOM     28  C   UNL     1       6.507   5.359  18.939  0.00  0.00    +0.000 A 
ATOM     29  C   UNL     1       7.445   5.186  17.921  0.00  0.00    +0.000 A 
ATOM     30  C   UNL     1       6.973   5.009  16.642  0.00  0.00    +0.000 A 
ATOM     31  C   UNL     1       5.629   4.976  16.373  0.00  0.00    +0.000 A 
ATOM     32  C   UNL     1       4.684   5.135  17.363  0.00  0.00    +0.000 A 
ATOM     33  O   UNL     1       5.370   4.770  15.054  0.00  0.00    +0.000 OA
ATOM     34  C   UNL     1       6.709   4.728  14.521  0.00  0.00    +0.000 C 
ATOM     35  O   UNL     1       7.734   4.830  15.531  0.00  0.00    +0.000 OA
ENDBRANCH  25  27
ENDBRANCH  24  25
ENDBRANCH  21  24
ENDBRANCH   1  22
TORSDOF 7
ENDMDL
