MODEL 1
REMARK VINA RESULT:      -7.0      0.000      0.000
REMARK  Name = 
REMARK  12 active torsions:
REMARK  status: ('A' for Active; 'I' for Inactive)
REMARK    1  A    between atoms: C_2  and  C_10
REMARK    2  A    between atoms: N_3  and  CA_4
REMARK    3  A    between atoms: CA_4  and  CB_5
REMARK    4  A    between atoms: CA_4  and  C_7
REMARK    5  A    between atoms: CB_5  and  OG_6
REMARK    6  A    between atoms: C_7  and  OXT_9
REMARK    7  A    between atoms: C_15  and  C_16
REMARK    8  A    between atoms: N_18  and  CA_19
REMARK    9  A    between atoms: CA_19  and  CB_20
REMARK   10  A    between atoms: CA_19  and  C_22
REMARK   11  A    between atoms: CB_20  and  OG_21
REMARK   12  A    between atoms: C_22  and  OXT_24
REMARK                            x       y       z     vdW  Elec       q    Type
REMARK                         _______ _______ _______ _____ _____    ______ ____
ROOT
ATOM      1  C   UNK A   0       2.241   6.501  19.384  0.00  0.00    +0.000 A 
ATOM      2  C   UNK A   0       1.457   7.582  19.848  0.00  0.00    +0.000 A 
ATOM      3  C   UNK A   0       1.519   8.835  19.239  0.00  0.00    +0.000 A 
ATOM      4  C   UNK A   0       2.351   9.027  18.144  0.00  0.00    +0.000 A 
ATOM      5  C   UNK A   0       3.108   7.959  17.650  0.00  0.00    +0.000 A 
ATOM      6  C   UNK A   0       3.064   6.687  18.255  0.00  0.00    +0.000 A 
ENDROOT
BRANCH   1   8
ATOM      7  O   UNK A   0       1.127   4.915  20.778  0.00  0.00    +0.000 OA
ATOM      8  C   UNK A   0       2.108   5.193  20.098  0.00  0.00    +0.000 C 
ATOM      9  N   SER A   1       3.141   4.300  19.910  0.00  0.00    +0.000 N 
ATOM     10  H   SER A   1       3.918   4.517  19.291  0.00  0.00    +0.000 HD
BRANCH   9  11
ATOM     11  CA  SER A   1       3.157   2.967  20.517  0.00  0.00    +0.000 C 
BRANCH  11  12
ATOM     12  C   SER A   1       4.538   2.361  20.265  0.00  0.00    +0.000 C 
ATOM     13  O   SER A   1       5.111   1.661  21.094  0.00  0.00    +0.000 OA
BRANCH  12  14
ATOM     14  OXT SER A   1       5.092   2.673  19.079  0.00  0.00    +0.000 OA
ATOM     15  HXT SER A   1       5.785   2.063  18.756  0.00  0.00    +0.000 HD
ENDBRANCH  12  14
ENDBRANCH  11  12
BRANCH  11  16
ATOM     16  CB  SER A   1       2.086   2.026  19.952  0.00  0.00    +0.000 C 
BRANCH  16  17
ATOM     17  OG  SER A   1       2.394   1.523  18.654  0.00  0.00    +0.000 OA
ATOM     18  H   SER A   1       2.587   2.262  18.048  0.00  0.00    +0.000 HD
ENDBRANCH  16  17
ENDBRANCH  11  16
ENDBRANCH   9  11
ENDBRANCH   1   8
BRANCH   6  19
ATOM     19  C   UNK A   0       3.893   5.631  17.596  0.00  0.00    +0.000 C 
ATOM     20  O   UNK A   0       3.354   4.630  17.143  0.00  0.00    +0.000 OA
ATOM     21  N   SER A   1       5.246   5.864  17.475  0.00  0.00    +0.000 N 
ATOM     22  H   SER A   1       5.623   6.764  17.752  0.00  0.00    +0.000 HD
BRANCH  21  23
ATOM     23  CA  SER A   1       6.130   4.939  16.774  0.00  0.00    +0.000 C 
BRANCH  23  24
ATOM     24  C   SER A   1       7.525   5.008  17.398  0.00  0.00    +0.000 C 
ATOM     25  O   SER A   1       8.249   4.054  17.631  0.00  0.00    +0.000 OA
BRANCH  24  26
ATOM     26  OXT SER A   1       7.895   6.290  17.693  0.00  0.00    +0.000 OA
ATOM     27  HXT SER A   1       7.601   6.545  18.598  0.00  0.00    +0.000 HD
ENDBRANCH  24  26
ENDBRANCH  23  24
BRANCH  23  28
ATOM     28  CB  SER A   1       6.214   5.210  15.267  0.00  0.00    +0.000 C 
BRANCH  28  29
ATOM     29  OG  SER A   1       7.574   5.326  14.836  0.00  0.00    +0.000 OA
ATOM     30  H   SER A   1       8.050   5.814  15.536  0.00  0.00    +0.000 HD
ENDBRANCH  28  29
ENDBRANCH  23  28
ENDBRANCH  21  23
ENDBRANCH   6  19
TORSDOF 12
ENDMDL
MODEL 2
REMARK VINA RESULT:      -7.0      2.457      6.313
REMARK  Name = 
REMARK  12 active torsions:
REMARK  status: ('A' for Active; 'I' for Inactive)
REMARK    1  A    between atoms: C_2  and  C_10
REMARK    2  A    between atoms: N_3  and  CA_4
REMARK    3  A    between atoms: CA_4  and  CB_5
REMARK    4  A    between atoms: CA_4  and  C_7
REMARK    5  A    between atoms: CB_5  and  OG_6
REMARK    6  A    between atoms: C_7  and  OXT_9
REMARK    7  A    between atoms: C_15  and  C_16
REMARK    8  A    between atoms: N_18  and  CA_19
REMARK    9  A    between atoms: CA_19  and  CB_20
REMARK   10  A    between atoms: CA_19  and  C_22
REMARK   11  A    between atoms: CB_20  and  OG_21
REMARK   12  A    between atoms: C_22  and  OXT_24
REMARK                            x       y       z     vdW  Elec       q    Type
REMARK                         _______ _______ _______ _____ _____    ______ ____
ROOT
ATOM      1  C   UNK A   0       3.173   4.430  19.015  0.00  0.00    +0.000 A 
ATOM      2  C   UNK A   0       2.982   3.031  18.934  0.00  0.00    +0.000 A 
ATOM      3  C   UNK A   0       1.976   2.394  19.659  0.00  0.00    +0.000 A 
ATOM      4  C   UNK A   0       1.130   3.143  20.465  0.00  0.00    +0.000 A 
ATOM      5  C   UNK A   0       1.282   4.534  20.531  0.00  0.00    +0.000 A 
ATOM      6  C   UNK A   0       2.297   5.195  19.810  0.00  0.00    +0.000 A 
ENDROOT
BRANCH   1   8
ATOM      7  O   UNK A   0       4.102   5.424  17.054  0.00  0.00    +0.000 OA
ATOM      8  C   UNK A   0       4.277   5.026  18.200  0.00  0.00    +0.000 C 
ATOM      9  N   SER A   1       5.496   5.138  18.833  0.00  0.00    +0.000 N 
ATOM     10  H   SER A   1       5.611   4.864  19.805  0.00  0.00    +0.000 HD
BRANCH   9  11
ATOM     11  CA  SER A   1       6.674   5.720  18.186  0.00  0.00    +0.000 C 
BRANCH  11  12
ATOM     12  C   SER A   1       7.327   4.624  17.343  0.00  0.00    +0.000 C 
ATOM     13  O   SER A   1       8.334   4.024  17.708  0.00  0.00    +0.000 OA
BRANCH  12  14
ATOM     14  OXT SER A   1       6.734   4.383  16.159  0.00  0.00    +0.000 OA
ATOM     15  HXT SER A   1       6.748   5.119  15.515  0.00  0.00    +0.000 HD
ENDBRANCH  12  14
ENDBRANCH  11  12
BRANCH  11  16
ATOM     16  CB  SER A   1       7.706   6.270  19.179  0.00  0.00    +0.000 C 
BRANCH  16  17
ATOM     17  OG  SER A   1       7.872   5.459  20.340  0.00  0.00    +0.000 OA
ATOM     18  H   SER A   1       8.527   5.864  20.937  0.00  0.00    +0.000 HD
ENDBRANCH  16  17
ENDBRANCH  11  16
ENDBRANCH   9  11
ENDBRANCH   1   8
BRANCH   6  19
ATOM     19  C   UNK A   0       2.315   6.684  19.944  0.00  0.00    +0.000 C 
ATOM     20  O   UNK A   0       2.968   7.357  19.157  0.00  0.00    +0.000 OA
ATOM     21  N   SER A   1       1.535   7.246  20.931  0.00  0.00    +0.000 N 
ATOM     22  H   SER A   1       0.915   6.655  21.474  0.00  0.00    +0.000 HD
BRANCH  21  23
ATOM     23  CA  SER A   1       1.414   8.692  21.092  0.00  0.00    +0.000 C 
BRANCH  23  24
ATOM     24  C   SER A   1       0.497   8.990  22.280  0.00  0.00    +0.000 C 
ATOM     25  O   SER A   1       0.741   9.761  23.193  0.00  0.00    +0.000 OA
BRANCH  24  26
ATOM     26  OXT SER A   1      -0.665   8.272  22.225  0.00  0.00    +0.000 OA
ATOM     27  HXT SER A   1      -0.500   7.352  21.914  0.00  0.00    +0.000 HD
ENDBRANCH  24  26
ENDBRANCH  23  24
BRANCH  23  28
ATOM     28  CB  SER A   1       0.893   9.398  19.835  0.00  0.00    +0.000 C 
BRANCH  28  29
ATOM     29  OG  SER A   1      -0.281  10.164  20.120  0.00  0.00    +0.000 OA
ATOM     30  H   SER A   1      -0.612  10.501  19.265  0.00  0.00    +0.000 HD
ENDBRANCH  28  29
ENDBRANCH  23  28
ENDBRANCH  21  23
ENDBRANCH   6  19
TORSDOF 12
ENDMDL
MODEL 3
REMARK VINA RESULT:      -6.9      1.443      2.026
REMARK  Name = 
REMARK  12 active torsions:
REMARK  status: ('A' for Active; 'I' for Inactive)
REMARK    1  A    between atoms: C_2  and  C_10
REMARK    2  A    between atoms: N_3  and  CA_4
REMARK    3  A    between atoms: CA_4  and  CB_5
REMARK    4  A    between atoms: CA_4  and  C_7
REMARK    5  A    between atoms: CB_5  and  OG_6
REMARK    6  A    between atoms: C_7  and  OXT_9
REMARK    7  A    between atoms: C_15  and  C_16
REMARK    8  A    between atoms: N_18  and  CA_19
REMARK    9  A    between atoms: CA_19  and  CB_20
REMARK   10  A    between atoms: CA_19  and  C_22
REMARK   11  A    between atoms: CB_20  and  OG_21
REMARK   12  A    between atoms: C_22  and  OXT_24
REMARK                            x       y       z     vdW  Elec       q    Type
REMARK                         _______ _______ _______ _____ _____    ______ ____
ROOT
ATOM      1  C   UNK A   0       3.323   6.330  18.801  0.00  0.00    +0.000 A 
ATOM      2  C   UNK A   0       2.358   7.024  19.566  0.00  0.00    +0.000 A 
ATOM      3  C   UNK A   0       1.883   8.274  19.171  0.00  0.00    +0.000 A 
ATOM      4  C   UNK A   0       2.349   8.847  17.996  0.00  0.00    +0.000 A 
ATOM      5  C   UNK A   0       3.280   8.159  17.207  0.00  0.00    +0.000 A 
ATOM      6  C   UNK A   0       3.776   6.897  17.593  0.00  0.00    +0.000 A 
ENDROOT
BRANCH   1   8
ATOM      7  O   UNK A   0       4.919   4.788  19.681  0.00  0.00    +0.000 OA
ATOM      8  C   UNK A   0       3.772   4.994  19.301  0.00  0.00    +0.000 C 
ATOM      9  N   SER A   1       2.803   4.014  19.345  0.00  0.00    +0.000 N 
ATOM     10  H   SER A   1       1.840   4.216  19.088  0.00  0.00    +0.000 HD
BRANCH   9  11
ATOM     11  CA  SER A   1       3.069   2.658  19.830  0.00  0.00    +0.000 C 
BRANCH  11  12
ATOM     12  C   SER A   1       3.222   1.753  18.608  0.00  0.00    +0.000 C 
ATOM     13  O   SER A   1       2.511   1.861  17.614  0.00  0.00    +0.000 OA
BRANCH  12  14
ATOM     14  OXT SER A   1       4.176   0.808  18.711  0.00  0.00    +0.000 OA
ATOM     15  HXT SER A   1       3.965  -0.059  18.310  0.00  0.00    +0.000 HD
ENDBRANCH  12  14
ENDBRANCH  11  12
BRANCH  11  16
ATOM     16  CB  SER A   1       1.956   2.103  20.728  0.00  0.00    +0.000 C 
BRANCH  16  17
ATOM     17  OG  SER A   1       0.812   2.949  20.812  0.00  0.00    +0.000 OA
ATOM     18  H   SER A   1       0.990   3.794  20.360  0.00  0.00    +0.000 HD
ENDBRANCH  16  17
ENDBRANCH  11  16
ENDBRANCH   9  11
ENDBRANCH   1   8
BRANCH   6  19
ATOM     19  C   UNK A   0       4.732   6.262  16.635  0.00  0.00    +0.000 C 
ATOM     20  O   UNK A   0       5.425   6.964  15.911  0.00  0.00    +0.000 OA
ATOM     21  N   SER A   1       4.834   4.887  16.652  0.00  0.00    +0.000 N 
ATOM     22  H   SER A   1       4.333   4.359  17.358  0.00  0.00    +0.000 HD
BRANCH  21  23
ATOM     23  CA  SER A   1       5.797   4.174  15.819  0.00  0.00    +0.000 C 
BRANCH  23  24
ATOM     24  C   SER A   1       7.207   4.677  16.138  0.00  0.00    +0.000 C 
ATOM     25  O   SER A   1       7.816   4.480  17.176  0.00  0.00    +0.000 OA
BRANCH  24  26
ATOM     26  OXT SER A   1       7.736   5.410  15.113  0.00  0.00    +0.000 OA
ATOM     27  HXT SER A   1       7.617   4.949  14.249  0.00  0.00    +0.000 HD
ENDBRANCH  24  26
ENDBRANCH  23  24
BRANCH  23  28
ATOM     28  CB  SER A   1       5.517   4.310  14.318  0.00  0.00    +0.000 C 
BRANCH  28  29
ATOM     29  OG  SER A   1       6.286   3.372  13.560  0.00  0.00    +0.000 OA
ATOM     30  H   SER A   1       7.163   3.315  13.988  0.00  0.00    +0.000 HD
ENDBRANCH  28  29
ENDBRANCH  23  28
ENDBRANCH  21  23
ENDBRANCH   6  19
TORSDOF 12
ENDMDL
MODEL 4
REMARK VINA RESULT:      -6.9      0.931      4.977
REMARK  Name = 
REMARK  12 active torsions:
REMARK  status: ('A' for Active; 'I' for Inactive)
REMARK    1  A    between atoms: C_2  and  C_10
REMARK    2  A    between atoms: N_3  and  CA_4
REMARK    3  A    between atoms: CA_4  and  CB_5
REMARK    4  A    between atoms: CA_4  and  C_7
REMARK    5  A    between atoms: CB_5  and  OG_6
REMARK    6  A    between atoms: C_7  and  OXT_9
REMARK    7  A    between atoms: C_15  and  C_16
REMARK    8  A    between atoms: N_18  and  CA_19
REMARK    9  A    between atoms: CA_19  and  CB_20
REMARK   10  A    between atoms: CA_19  and  C_22
REMARK   11  A    between atoms: CB_20  and  OG_21
REMARK   12  A    between atoms: C_22  and  OXT_24
REMARK                            x       y       z     vdW  Elec       q    Type
REMARK                         _______ _______ _______ _____ _____    ______ ____
ROOT
ATOM      1  C   UNK A   0       3.031   6.873  18.125  0.00  0.00    +0.000 A 
ATOM      2  C   UNK A   0       3.128   8.142  17.509  0.00  0.00    +0.000 A 
ATOM      3  C   UNK A   0       2.407   9.235  17.985  0.00  0.00    +0.000 A 
ATOM      4  C   UNK A   0       1.588   9.088  19.096  0.00  0.00    +0.000 A 
ATOM      5  C   UNK A   0       1.506   7.847  19.740  0.00  0.00    +0.000 A 
ATOM      6  C   UNK A   0       2.223   6.728  19.270  0.00  0.00    +0.000 A 
ENDROOT
BRANCH   1   8
ATOM      7  O   UNK A   0       3.332   4.741  17.094  0.00  0.00    +0.000 OA
ATOM      8  C   UNK A   0       3.844   5.758  17.546  0.00  0.00    +0.000 C 
ATOM      9  N   SER A   1       5.206   5.964  17.517  0.00  0.00    +0.000 N 
ATOM     10  H   SER A   1       5.613   6.839  17.836  0.00  0.00    +0.000 HD
BRANCH   9  11
ATOM     11  CA  SER A   1       6.144   4.984  16.963  0.00  0.00    +0.000 C 
BRANCH  11  12
ATOM     12  C   SER A   1       7.470   5.143  17.706  0.00  0.00    +0.000 C 
ATOM     13  O   SER A   1       7.802   6.194  18.245  0.00  0.00    +0.000 OA
BRANCH  12  14
ATOM     14  OXT SER A   1       8.262   4.054  17.703  0.00  0.00    +0.000 OA
ATOM     15  HXT SER A   1       9.125   4.153  17.252  0.00  0.00    +0.000 HD
ENDBRANCH  12  14
ENDBRANCH  11  12
BRANCH  11  16
ATOM     16  CB  SER A   1       6.388   5.157  15.458  0.00  0.00    +0.000 C 
BRANCH  16  17
ATOM     17  OG  SER A   1       7.723   5.542  15.136  0.00  0.00    +0.000 OA
ATOM     18  H   SER A   1       7.742   6.479  14.869  0.00  0.00    +0.000 HD
ENDBRANCH  16  17
ENDBRANCH  11  16
ENDBRANCH   9  11
ENDBRANCH   1   8
BRANCH   6  19
ATOM     19  C   UNK A   0       2.071   5.480  20.079  0.00  0.00    +0.000 C 
ATOM     20  O   UNK A   0       2.204   5.524  21.295  0.00  0.00    +0.000 OA
ATOM     21  N   SER A   1       1.726   4.324  19.412  0.00  0.00    +0.000 N 
ATOM     22  H   SER A   1       1.503   4.367  18.424  0.00  0.00    +0.000 HD
BRANCH  21  23
ATOM     23  CA  SER A   1       1.470   3.072  20.117  0.00  0.00    +0.000 C 
BRANCH  23  24
ATOM     24  C   SER A   1       2.742   2.638  20.847  0.00  0.00    +0.000 C 
ATOM     25  O   SER A   1       3.799   2.334  20.319  0.00  0.00    +0.000 OA
BRANCH  24  26
ATOM     26  OXT SER A   1       2.573   2.610  22.203  0.00  0.00    +0.000 OA
ATOM     27  HXT SER A   1       3.360   2.222  22.652  0.00  0.00    +0.000 HD
ENDBRANCH  24  26
ENDBRANCH  23  24
BRANCH  23  28
ATOM     28  CB  SER A   1       0.983   1.948  19.194  0.00  0.00    +0.000 C 
BRANCH  28  29
ATOM     29  OG  SER A   1       1.949   1.655  18.181  0.00  0.00    +0.000 OA
ATOM     30  H   SER A   1       1.508   1.798  17.321  0.00  0.00    +0.000 HD
ENDBRANCH  28  29
ENDBRANCH  23  28
ENDBRANCH  21  23
ENDBRANCH   6  19
TORSDOF 12
ENDMDL
MODEL 5
REMARK VINA RESULT:      -6.9      2.147      6.024
REMARK  Name = 
REMARK  12 active torsions:
REMARK  status: ('A' for Active; 'I' for Inactive)
REMARK    1  A    between atoms: C_2  and  C_10
REMARK    2  A    between atoms: N_3  and  CA_4
REMARK    3  A    between atoms: CA_4  and  CB_5
REMARK    4  A    between atoms: CA_4  and  C_7
REMARK    5  A    between atoms: CB_5  and  OG_6
REMARK    6  A    between atoms: C_7  and  OXT_9
REMARK    7  A    between atoms: C_15  and  C_16
REMARK    8  A    between atoms: N_18  and  CA_19
REMARK    9  A    between atoms: CA_19  and  CB_20
REMARK   10  A    between atoms: CA_19  and  C_22
REMARK   11  A    between atoms: CB_20  and  OG_21
REMARK   12  A    between atoms: C_22  and  OXT_24
REMARK                            x       y       z     vdW  Elec       q    Type
REMARK                         _______ _______ _______ _____ _____    ______ ____
ROOT
ATOM      1  C   UNK A   0       3.582   3.688  18.905  0.00  0.00    +0.000 A 
ATOM      2  C   UNK A   0       3.244   2.321  18.777  0.00  0.00    +0.000 A 
ATOM      3  C   UNK A   0       1.953   1.866  19.039  0.00  0.00    +0.000 A 
ATOM      4  C   UNK A   0       0.969   2.769  19.416  0.00  0.00    +0.000 A 
ATOM      5  C   UNK A   0       1.276   4.132  19.514  0.00  0.00    +0.000 A 
ATOM      6  C   UNK A   0       2.577   4.610  19.259  0.00  0.00    +0.000 A 
ENDROOT
BRANCH   1   8
ATOM      7  O   UNK A   0       5.863   4.115  19.462  0.00  0.00    +0.000 OA
ATOM      8  C   UNK A   0       4.992   4.084  18.601  0.00  0.00    +0.000 C 
ATOM      9  N   SER A   1       5.261   4.375  17.281  0.00  0.00    +0.000 N 
ATOM     10  H   SER A   1       4.544   4.283  16.566  0.00  0.00    +0.000 HD
BRANCH   9  11
ATOM     11  CA  SER A   1       6.594   4.757  16.810  0.00  0.00    +0.000 C 
BRANCH  11  12
ATOM     12  C   SER A   1       6.800   6.232  17.154  0.00  0.00    +0.000 C 
ATOM     13  O   SER A   1       6.287   7.138  16.505  0.00  0.00    +0.000 OA
BRANCH  12  14
ATOM     14  OXT SER A   1       7.609   6.467  18.204  0.00  0.00    +0.000 OA
ATOM     15  HXT SER A   1       7.889   7.396  18.330  0.00  0.00    +0.000 HD
ENDBRANCH  12  14
ENDBRANCH  11  12
BRANCH  11  16
ATOM     16  CB  SER A   1       6.786   4.564  15.300  0.00  0.00    +0.000 C 
BRANCH  16  17
ATOM     17  OG  SER A   1       7.793   5.402  14.739  0.00  0.00    +0.000 OA
ATOM     18  H   SER A   1       7.595   5.577  13.800  0.00  0.00    +0.000 HD
ENDBRANCH  16  17
ENDBRANCH  11  16
ENDBRANCH   9  11
ENDBRANCH   1   8
BRANCH   6  19
ATOM     19  C   UNK A   0       2.750   6.091  19.363  0.00  0.00    +0.000 C 
ATOM     20  O   UNK A   0       3.600   6.654  18.684  0.00  0.00    +0.000 OA
ATOM     21  N   SER A   1       1.890   6.779  20.192  0.00  0.00    +0.000 N 
ATOM     22  H   SER A   1       1.122   6.285  20.634  0.00  0.00    +0.000 HD
BRANCH  21  23
ATOM     23  CA  SER A   1       1.917   8.234  20.299  0.00  0.00    +0.000 C 
BRANCH  23  24
ATOM     24  C   SER A   1       1.175   8.658  21.568  0.00  0.00    +0.000 C 
ATOM     25  O   SER A   1      -0.026   8.557  21.758  0.00  0.00    +0.000 OA
BRANCH  24  26
ATOM     26  OXT SER A   1       2.016   9.192  22.503  0.00  0.00    +0.000 OA
ATOM     27  HXT SER A   1       2.540   8.489  22.953  0.00  0.00    +0.000 HD
ENDBRANCH  24  26
ENDBRANCH  23  24
BRANCH  23  28
ATOM     28  CB  SER A   1       1.318   8.941  19.078  0.00  0.00    +0.000 C 
BRANCH  28  29
ATOM     29  OG  SER A   1       2.314   9.191  18.082  0.00  0.00    +0.000 OA
ATOM     30  H   SER A   1       2.514  10.147  18.117  0.00  0.00    +0.000 HD
ENDBRANCH  28  29
ENDBRANCH  23  28
ENDBRANCH  21  23
ENDBRANCH   6  19
TORSDOF 12
ENDMDL
MODEL 6
REMARK VINA RESULT:      -6.9      2.410      4.933
REMARK  Name = 
REMARK  12 active torsions:
REMARK  status: ('A' for Active; 'I' for Inactive)
REMARK    1  A    between atoms: C_2  and  C_10
REMARK    2  A    between atoms: N_3  and  CA_4
REMARK    3  A    between atoms: CA_4  and  CB_5
REMARK    4  A    between atoms: CA_4  and  C_7
REMARK    5  A    between atoms: CB_5  and  OG_6
REMARK    6  A    between atoms: C_7  and  OXT_9
REMARK    7  A    between atoms: C_15  and  C_16
REMARK    8  A    between atoms: N_18  and  CA_19
REMARK    9  A    between atoms: CA_19  and  CB_20
REMARK   10  A    between atoms: CA_19  and  C_22
REMARK   11  A    between atoms: CB_20  and  OG_21
REMARK   12  A    between atoms: C_22  and  OXT_24
REMARK                            x       y       z     vdW  Elec       q    Type
REMARK                         _______ _______ _______ _____ _____    ______ ____
ROOT
ATOM      1  C   UNK A   0       2.490   4.972  19.621  0.00  0.00    +0.000 A 
ATOM      2  C   UNK A   0       1.278   4.385  20.051  0.00  0.00    +0.000 A 
ATOM      3  C   UNK A   0       1.137   3.000  20.140  0.00  0.00    +0.000 A 
ATOM      4  C   UNK A   0       2.207   2.177  19.819  0.00  0.00    +0.000 A 
ATOM      5  C   UNK A   0       3.426   2.743  19.424  0.00  0.00    +0.000 A 
ATOM      6  C   UNK A   0       3.587   4.140  19.323  0.00  0.00    +0.000 A 
ENDROOT
BRANCH   1   8
ATOM      7  O   UNK A   0       3.159   7.060  18.678  0.00  0.00    +0.000 OA
ATOM      8  C   UNK A   0       2.551   6.466  19.560  0.00  0.00    +0.000 C 
ATOM      9  N   SER A   1       1.846   7.135  20.537  0.00  0.00    +0.000 N 
ATOM     10  H   SER A   1       1.292   6.631  21.224  0.00  0.00    +0.000 HD
BRANCH   9  11
ATOM     11  CA  SER A   1       1.781   8.597  20.607  0.00  0.00    +0.000 C 
BRANCH  11  12
ATOM     12  C   SER A   1       1.250   8.969  21.992  0.00  0.00    +0.000 C 
ATOM     13  O   SER A   1       0.055   8.941  22.268  0.00  0.00    +0.000 OA
BRANCH  12  14
ATOM     14  OXT SER A   1       2.185   9.358  22.878  0.00  0.00    +0.000 OA
ATOM     15  HXT SER A   1       3.100   9.417  22.537  0.00  0.00    +0.000 HD
ENDBRANCH  12  14
ENDBRANCH  11  12
BRANCH  11  16
ATOM     16  CB  SER A   1       0.874   9.220  19.538  0.00  0.00    +0.000 C 
BRANCH  16  17
ATOM     17  OG  SER A   1       0.558  10.588  19.783  0.00  0.00    +0.000 OA
ATOM     18  H   SER A   1       1.308  11.029  20.224  0.00  0.00    +0.000 HD
ENDBRANCH  16  17
ENDBRANCH  11  16
ENDBRANCH   9  11
ENDBRANCH   1   8
BRANCH   6  19
ATOM     19  C   UNK A   0       4.953   4.603  18.930  0.00  0.00    +0.000 C 
ATOM     20  O   UNK A   0       5.814   4.755  19.787  0.00  0.00    +0.000 OA
ATOM     21  N   SER A   1       5.204   4.787  17.588  0.00  0.00    +0.000 N 
ATOM     22  H   SER A   1       4.497   4.526  16.908  0.00  0.00    +0.000 HD
BRANCH  21  23
ATOM     23  CA  SER A   1       6.526   5.154  17.091  0.00  0.00    +0.000 C 
BRANCH  23  24
ATOM     24  C   SER A   1       6.587   6.671  16.899  0.00  0.00    +0.000 C 
ATOM     25  O   SER A   1       7.539   7.386  17.164  0.00  0.00    +0.000 OA
BRANCH  24  26
ATOM     26  OXT SER A   1       5.421   7.173  16.393  0.00  0.00    +0.000 OA
ATOM     27  HXT SER A   1       4.821   6.449  16.097  0.00  0.00    +0.000 HD
ENDBRANCH  24  26
ENDBRANCH  23  24
BRANCH  23  28
ATOM     28  CB  SER A   1       6.900   4.444  15.785  0.00  0.00    +0.000 C 
BRANCH  28  29
ATOM     29  OG  SER A   1       7.553   5.336  14.878  0.00  0.00    +0.000 OA
ATOM     30  H   SER A   1       7.248   5.099  13.980  0.00  0.00    +0.000 HD
ENDBRANCH  28  29
ENDBRANCH  23  28
ENDBRANCH  21  23
ENDBRANCH   6  19
TORSDOF 12
ENDMDL
MODEL 7
REMARK VINA RESULT:      -6.9      2.174      4.774
REMARK  Name = 
REMARK  12 active torsions:
REMARK  status: ('A' for Active; 'I' for Inactive)
REMARK    1  A    between atoms: C_2  and  C_10
REMARK    2  A    between atoms: N_3  and  CA_4
REMARK    3  A    between atoms: CA_4  and  CB_5
REMARK    4  A    between atoms: CA_4  and  C_7
REMARK    5  A    between atoms: CB_5  and  OG_6
REMARK    6  A    between atoms: C_7  and  OXT_9
REMARK    7  A    between atoms: C_15  and  C_16
REMARK    8  A    between atoms: N_18  and  CA_19
REMARK    9  A    between atoms: CA_19  and  CB_20
REMARK   10  A    between atoms: CA_19  and  C_22
REMARK   11  A    between atoms: CB_20  and  OG_21
REMARK   12  A    between atoms: C_22  and  OXT_24
REMARK                            x       y       z     vdW  Elec       q    Type
REMARK                         _______ _______ _______ _____ _____    ______ ____
ROOT
ATOM      1  C   UNK A   0       2.455   4.760  19.437  0.00  0.00    +0.000 A 
ATOM      2  C   UNK A   0       1.206   4.250  19.860  0.00  0.00    +0.000 A 
ATOM      3  C   UNK A   0       0.970   2.877  19.927  0.00  0.00    +0.000 A 
ATOM      4  C   UNK A   0       1.982   1.988  19.590  0.00  0.00    +0.000 A 
ATOM      5  C   UNK A   0       3.236   2.476  19.202  0.00  0.00    +0.000 A 
ATOM      6  C   UNK A   0       3.492   3.860  19.123  0.00  0.00    +0.000 A 
ENDROOT
BRANCH   1   8
ATOM      7  O   UNK A   0       3.362   6.804  18.602  0.00  0.00    +0.000 OA
ATOM      8  C   UNK A   0       2.617   6.247  19.399  0.00  0.00    +0.000 C 
ATOM      9  N   SER A   1       1.845   6.957  20.293  0.00  0.00    +0.000 N 
ATOM     10  H   SER A   1       1.182   6.487  20.905  0.00  0.00    +0.000 HD
BRANCH   9  11
ATOM     11  CA  SER A   1       1.865   8.419  20.372  0.00  0.00    +0.000 C 
BRANCH  11  12
ATOM     12  C   SER A   1       1.135   8.823  21.652  0.00  0.00    +0.000 C 
ATOM     13  O   SER A   1       1.710   9.344  22.603  0.00  0.00    +0.000 OA
BRANCH  12  14
ATOM     14  OXT SER A   1      -0.181   8.542  21.674  0.00  0.00    +0.000 OA
ATOM     15  HXT SER A   1      -0.431   7.639  21.392  0.00  0.00    +0.000 HD
ENDBRANCH  12  14
ENDBRANCH  11  12
BRANCH  11  16
ATOM     16  CB  SER A   1       1.194   9.104  19.175  0.00  0.00    +0.000 C 
BRANCH  16  17
ATOM     17  OG  SER A   1       2.102   9.462  18.136  0.00  0.00    +0.000 OA
ATOM     18  H   SER A   1       2.879   9.913  18.515  0.00  0.00    +0.000 HD
ENDBRANCH  16  17
ENDBRANCH  11  16
ENDBRANCH   9  11
ENDBRANCH   1   8
BRANCH   6  19
ATOM     19  C   UNK A   0       4.886   4.235  18.735  0.00  0.00    +0.000 C 
ATOM     20  O   UNK A   0       5.767   4.263  19.584  0.00  0.00    +0.000 OA
ATOM     21  N   SER A   1       5.133   4.482  17.402  0.00  0.00    +0.000 N 
ATOM     22  H   SER A   1       4.399   4.322  16.721  0.00  0.00    +0.000 HD
BRANCH  21  23
ATOM     23  CA  SER A   1       6.475   4.772  16.905  0.00  0.00    +0.000 C 
BRANCH  23  24
ATOM     24  C   SER A   1       6.816   6.234  17.204  0.00  0.00    +0.000 C 
ATOM     25  O   SER A   1       6.416   7.201  16.578  0.00  0.00    +0.000 OA
BRANCH  24  26
ATOM     26  OXT SER A   1       7.655   6.358  18.276  0.00  0.00    +0.000 OA
ATOM     27  HXT SER A   1       7.464   7.180  18.784  0.00  0.00    +0.000 HD
ENDBRANCH  24  26
ENDBRANCH  23  24
BRANCH  23  28
ATOM     28  CB  SER A   1       6.639   4.490  15.407  0.00  0.00    +0.000 C 
BRANCH  28  29
ATOM     29  OG  SER A   1       7.647   5.324  14.830  0.00  0.00    +0.000 OA
ATOM     30  H   SER A   1       7.617   6.175  15.309  0.00  0.00    +0.000 HD
ENDBRANCH  28  29
ENDBRANCH  23  28
ENDBRANCH  21  23
ENDBRANCH   6  19
TORSDOF 12
ENDMDL
MODEL 8
REMARK VINA RESULT:      -6.8      1.425      5.127
REMARK  Name = 
REMARK  12 active torsions:
REMARK  status: ('A' for Active; 'I' for Inactive)
REMARK    1  A    between atoms: C_2  and  C_10
REMARK    2  A    between atoms: N_3  and  CA_4
REMARK    3  A    between atoms: CA_4  and  CB_5
REMARK    4  A    between atoms: CA_4  and  C_7
REMARK    5  A    between atoms: CB_5  and  OG_6
REMARK    6  A    between atoms: C_7  and  OXT_9
REMARK    7  A    between atoms: C_15  and  C_16
REMARK    8  A    between atoms: N_18  and  CA_19
REMARK    9  A    between atoms: CA_19  and  CB_20
REMARK   10  A    between atoms: CA_19  and  C_22
REMARK   11  A    between atoms: CB_20  and  OG_21
REMARK   12  A    between atoms: C_22  and  OXT_24
REMARK                            x       y       z     vdW  Elec       q    Type
REMARK                         _______ _______ _______ _____ _____    ______ ____
ROOT
ATOM      1  C   UNK A   0       3.652   7.005  17.626  0.00  0.00    +0.000 A 
ATOM      2  C   UNK A   0       3.177   8.285  17.261  0.00  0.00    +0.000 A 
ATOM      3  C   UNK A   0       2.258   8.970  18.055  0.00  0.00    +0.000 A 
ATOM      4  C   UNK A   0       1.810   8.398  19.238  0.00  0.00    +0.000 A 
ATOM      5  C   UNK A   0       2.297   7.146  19.633  0.00  0.00    +0.000 A 
ATOM      6  C   UNK A   0       3.221   6.436  18.841  0.00  0.00    +0.000 A 
ENDROOT
BRANCH   1   8
ATOM      7  O   UNK A   0       5.273   6.973  15.874  0.00  0.00    +0.000 OA
ATOM      8  C   UNK A   0       4.638   6.346  16.714  0.00  0.00    +0.000 C 
ATOM      9  N   SER A   1       4.818   4.993  16.904  0.00  0.00    +0.000 N 
ATOM     10  H   SER A   1       4.333   4.497  17.647  0.00  0.00    +0.000 HD
BRANCH   9  11
ATOM     11  CA  SER A   1       5.762   4.200  16.112  0.00  0.00    +0.000 C 
BRANCH  11  12
ATOM     12  C   SER A   1       7.166   4.736  16.395  0.00  0.00    +0.000 C 
ATOM     13  O   SER A   1       7.770   4.484  17.432  0.00  0.00    +0.000 OA
BRANCH  12  14
ATOM     14  OXT SER A   1       7.680   5.528  15.436  0.00  0.00    +0.000 OA
ATOM     15  HXT SER A   1       7.263   6.407  15.336  0.00  0.00    +0.000 HD
ENDBRANCH  12  14
ENDBRANCH  11  12
BRANCH  11  16
ATOM     16  CB  SER A   1       5.496   4.264  14.603  0.00  0.00    +0.000 C 
BRANCH  16  17
ATOM     17  OG  SER A   1       6.351   3.421  13.835  0.00  0.00    +0.000 OA
ATOM     18  H   SER A   1       5.817   2.804  13.300  0.00  0.00    +0.000 HD
ENDBRANCH  16  17
ENDBRANCH  11  16
ENDBRANCH   9  11
ENDBRANCH   1   8
BRANCH   6  19
ATOM     19  C   UNK A   0       3.684   5.131  19.406  0.00  0.00    +0.000 C 
ATOM     20  O   UNK A   0       4.829   5.021  19.824  0.00  0.00    +0.000 OA
ATOM     21  N   SER A   1       2.765   4.107  19.486  0.00  0.00    +0.000 N 
ATOM     22  H   SER A   1       1.796   4.287  19.245  0.00  0.00    +0.000 HD
BRANCH  21  23
ATOM     23  CA  SER A   1       3.089   2.823  20.099  0.00  0.00    +0.000 C 
BRANCH  23  24
ATOM     24  C   SER A   1       2.912   1.713  19.062  0.00  0.00    +0.000 C 
ATOM     25  O   SER A   1       3.808   1.043  18.574  0.00  0.00    +0.000 OA
BRANCH  24  26
ATOM     26  OXT SER A   1       1.602   1.542  18.709  0.00  0.00    +0.000 OA
ATOM     27  HXT SER A   1       1.442   1.837  17.783  0.00  0.00    +0.000 HD
ENDBRANCH  24  26
ENDBRANCH  23  24
BRANCH  23  28
ATOM     28  CB  SER A   1       2.247   2.518  21.344  0.00  0.00    +0.000 C 
BRANCH  28  29
ATOM     29  OG  SER A   1       0.882   2.901  21.154  0.00  0.00    +0.000 OA
ATOM     30  H   SER A   1       0.813   3.840  21.414  0.00  0.00    +0.000 HD
ENDBRANCH  28  29
ENDBRANCH  23  28
ENDBRANCH  21  23
ENDBRANCH   6  19
TORSDOF 12
ENDMDL
MODEL 9
REMARK VINA RESULT:      -6.8      1.147      1.459
REMARK  Name = 
REMARK  12 active torsions:
REMARK  status: ('A' for Active; 'I' for Inactive)
REMARK    1  A    between atoms: C_2  and  C_10
REMARK    2  A    between atoms: N_3  and  CA_4
REMARK    3  A    between atoms: CA_4  and  CB_5
REMARK    4  A    between atoms: CA_4  and  C_7
REMARK    5  A    between atoms: CB_5  and  OG_6
REMARK    6  A    between atoms: C_7  and  OXT_9
REMARK    7  A    between atoms: C_15  and  C_16
REMARK    8  A    between atoms: N_18  and  CA_19
REMARK    9  A    between atoms: CA_19  and  CB_20
REMARK   10  A    between atoms: CA_19  and  C_22
REMARK   11  A    between atoms: CB_20  and  OG_21
REMARK   12  A    between atoms: C_22  and  OXT_24
REMARK                            x       y       z     vdW  Elec       q    Type
REMARK                         _______ _______ _______ _____ _____    ______ ____
ROOT
ATOM      1  C   UNK A   0       2.133   6.800  19.458  0.00  0.00    +0.000 A 
ATOM      2  C   UNK A   0       1.325   7.904  19.813  0.00  0.00    +0.000 A 
ATOM      3  C   UNK A   0       1.409   9.114  19.125  0.00  0.00    +0.000 A 
ATOM      4  C   UNK A   0       2.287   9.238  18.057  0.00  0.00    +0.000 A 
ATOM      5  C   UNK A   0       3.070   8.144  17.669  0.00  0.00    +0.000 A 
ATOM      6  C   UNK A   0       3.004   6.915  18.356  0.00  0.00    +0.000 A 
ENDROOT
BRANCH   1   8
ATOM      7  O   UNK A   0       2.182   5.498  21.458  0.00  0.00    +0.000 OA
ATOM      8  C   UNK A   0       1.974   5.541  20.251  0.00  0.00    +0.000 C 
ATOM      9  N   SER A   1       1.538   4.440  19.546  0.00  0.00    +0.000 N 
ATOM     10  H   SER A   1       1.306   4.506  18.558  0.00  0.00    +0.000 HD
BRANCH   9  11
ATOM     11  CA  SER A   1       1.308   3.137  20.174  0.00  0.00    +0.000 C 
BRANCH  11  12
ATOM     12  C   SER A   1       2.656   2.624  20.682  0.00  0.00    +0.000 C 
ATOM     13  O   SER A   1       3.566   2.304  19.924  0.00  0.00    +0.000 OA
BRANCH  12  14
ATOM     14  OXT SER A   1       2.763   2.523  22.020  0.00  0.00    +0.000 OA
ATOM     15  HXT SER A   1       3.097   1.669  22.359  0.00  0.00    +0.000 HD
ENDBRANCH  12  14
ENDBRANCH  11  12
BRANCH  11  16
ATOM     16  CB  SER A   1       0.703   2.099  19.221  0.00  0.00    +0.000 C 
BRANCH  16  17
ATOM     17  OG  SER A   1       1.481   1.879  18.047  0.00  0.00    +0.000 OA
ATOM     18  H   SER A   1       0.958   1.383  17.390  0.00  0.00    +0.000 HD
ENDBRANCH  16  17
ENDBRANCH  11  16
ENDBRANCH   9  11
ENDBRANCH   1   8
BRANCH   6  19
ATOM     19  C   UNK A   0       3.866   5.824  17.807  0.00  0.00    +0.000 C 
ATOM     20  O   UNK A   0       3.349   4.829  17.317  0.00  0.00    +0.000 OA
ATOM     21  N   SER A   1       5.231   6.017  17.825  0.00  0.00    +0.000 N 
ATOM     22  H   SER A   1       5.604   6.912  18.125  0.00  0.00    +0.000 HD
BRANCH  21  23
ATOM     23  CA  SER A   1       6.156   5.054  17.237  0.00  0.00    +0.000 C 
BRANCH  23  24
ATOM     24  C   SER A   1       7.237   4.705  18.262  0.00  0.00    +0.000 C 
ATOM     25  O   SER A   1       7.215   4.994  19.447  0.00  0.00    +0.000 OA
BRANCH  24  26
ATOM     26  OXT SER A   1       8.278   4.022  17.700  0.00  0.00    +0.000 OA
ATOM     27  HXT SER A   1       8.111   3.842  16.746  0.00  0.00    +0.000 HD
ENDBRANCH  24  26
ENDBRANCH  23  24
BRANCH  23  28
ATOM     28  CB  SER A   1       6.803   5.553  15.940  0.00  0.00    +0.000 C 
BRANCH  28  29
ATOM     29  OG  SER A   1       7.756   6.587  16.200  0.00  0.00    +0.000 OA
ATOM     30  H   SER A   1       7.247   7.399  16.390  0.00  0.00    +0.000 HD
ENDBRANCH  28  29
ENDBRANCH  23  28
ENDBRANCH  21  23
ENDBRANCH   6  19
TORSDOF 12
ENDMDL
