MODEL 1
REMARK VINA RESULT:      -8.5      0.000      0.000
REMARK  Name = 
REMARK  7 active torsions:
REMARK  status: ('A' for Active; 'I' for Inactive)
REMARK    1  A    between atoms: C_1  and  C_2
REMARK    2  A    between atoms: C_2  and  C_3
REMARK    3  A    between atoms: C_7  and  C_8
REMARK    4  A    between atoms: C_9  and  N_10
REMARK    5  A    between atoms: C_11  and  C_13
REMARK    6  A    between atoms: C_13  and  N_14
REMARK    7  A    between atoms: C_16  and  C_17
REMARK                            x       y       z     vdW  Elec       q    Type
REMARK                         _______ _______ _______ _____ _____    ______ ____
ROOT
ATOM      1  N   UNL     1       0.909   9.968  19.603  0.00  0.00    +0.000 N 
ATOM      2  N   UNL     1       0.065   9.952  18.470  0.00  0.00    +0.000 NA
ATOM      3  C   UNL     1      -1.094  10.551  18.538  0.00  0.00    +0.000 A 
ATOM      4  C   UNL     1      -1.447  11.315  19.695  0.00  0.00    +0.000 A 
ATOM      5  S   UNL     1      -2.726  12.399  19.840  0.00  0.00    +0.000 S 
ATOM      6  C   UNL     1      -2.337  12.688  21.501  0.00  0.00    +0.000 A 
ATOM      7  N   UNL     1      -3.163  13.432  22.296  0.00  0.00    +0.000 N 
ATOM      8  C   UNL     1      -2.798  13.702  23.693  0.00  0.00    +0.000 C 
ATOM      9  C   UNL     1      -4.086  13.858  24.527  0.00  0.00    +0.000 C 
ATOM     10  O   UNL     1      -4.954  14.875  23.992  0.00  0.00    +0.000 OA
ATOM     11  C   UNL     1      -5.327  14.548  22.647  0.00  0.00    +0.000 C 
ATOM     12  C   UNL     1      -4.094  14.430  21.741  0.00  0.00    +0.000 C 
ATOM     13  N   UNL     1      -1.226  12.079  21.884  0.00  0.00    +0.000 NA
ATOM     14  C   UNL     1      -0.687  11.317  20.836  0.00  0.00    +0.000 A 
ATOM     15  C   UNL     1       0.566  10.554  20.855  0.00  0.00    +0.000 A 
ATOM     16  O   UNL     1       1.260  10.438  21.862  0.00  0.00    +0.000 OA
ENDROOT
BRANCH   3  17
ATOM     17  C   UNL     1      -2.021  10.432  17.436  0.00  0.00    +0.000 A 
ATOM     18  C   UNL     1      -3.035   9.525  17.179  0.00  0.00    +0.000 A 
ATOM     19  C   UNL     1      -3.619   9.897  15.944  0.00  0.00    +0.000 A 
ATOM     20  C   UNL     1      -2.958  11.028  15.535  0.00  0.00    +0.000 A 
ATOM     21  O   UNL     1      -2.005  11.366  16.434  0.00  0.00    +0.000 OA
ENDBRANCH   3  17
BRANCH   1  22
ATOM     22  C   UNL     1       2.129   9.158  19.487  0.00  0.00    +0.000 C 
BRANCH  22  24
ATOM     23  N   UNL     1       2.586   6.741  19.263  0.00  0.00    +0.000 N 
ATOM     24  C   UNL     1       1.994   7.855  18.680  0.00  0.00    +0.000 C 
ATOM     25  O   UNL     1       1.489   7.871  17.557  0.00  0.00    +0.000 OA
ATOM     26  H   UNL     1       3.356   7.003  19.870  0.00  0.00    +0.000 HD
BRANCH  23  33
ATOM     27  C   UNL     1       1.802   4.403  19.008  0.00  0.00    +0.000 A 
ATOM     28  C   UNL     1       1.894   3.172  18.322  0.00  0.00    +0.000 A 
ATOM     29  C   UNL     1       2.845   2.971  17.331  0.00  0.00    +0.000 A 
ATOM     30  C   UNL     1       3.734   3.992  17.021  0.00  0.00    +0.000 A 
ATOM     31  C   UNL     1       3.653   5.239  17.665  0.00  0.00    +0.000 A 
ATOM     32  C   UNL     1       4.650   6.292  17.277  0.00  0.00    +0.000 C 
ATOM     33  C   UNL     1       2.650   5.469  18.636  0.00  0.00    +0.000 A 
BRANCH  27  35
ATOM     34  C   UNL     1       1.344   3.210  21.143  0.00  0.00    +0.000 C 
ATOM     35  C   UNL     1       0.958   4.398  20.265  0.00  0.00    +0.000 C 
ENDBRANCH  27  35
ENDBRANCH  23  33
ENDBRANCH  22  24
ENDBRANCH   1  22
TORSDOF 5
ENDMDL
MODEL 2
REMARK VINA RESULT:      -8.2      2.879      3.286
REMARK  Name = 
REMARK  7 active torsions:
REMARK  status: ('A' for Active; 'I' for Inactive)
REMARK    1  A    between atoms: C_1  and  C_2
REMARK    2  A    between atoms: C_2  and  C_3
REMARK    3  A    between atoms: C_7  and  C_8
REMARK    4  A    between atoms: C_9  and  N_10
REMARK    5  A    between atoms: C_11  and  C_13
REMARK    6  A    between atoms: C_13  and  N_14
REMARK    7  A    between atoms: C_16  and  C_17
REMARK                            x       y       z     vdW  Elec       q    Type
REMARK                         _______ _______ _______ _____ _____    ______ ____
ROOT
ATOM      1  N   UNL     1       0.570  10.402  22.222  0.00  0.00    +0.000 N 
ATOM      2  N   UNL     1       0.965  11.523  21.458  0.00  0.00    +0.000 NA
ATOM      3  C   UNL     1       0.142  12.533  21.348  0.00  0.00    +0.000 A 
ATOM      4  C   UNL     1      -1.080  12.554  22.091  0.00  0.00    +0.000 A 
ATOM      5  S   UNL     1      -2.095  13.875  22.329  0.00  0.00    +0.000 S 
ATOM      6  C   UNL     1      -3.215  12.897  23.215  0.00  0.00    +0.000 A 
ATOM      7  N   UNL     1      -4.431  13.391  23.595  0.00  0.00    +0.000 N 
ATOM      8  C   UNL     1      -5.353  12.562  24.382  0.00  0.00    +0.000 C 
ATOM      9  C   UNL     1      -6.803  12.974  24.055  0.00  0.00    +0.000 C 
ATOM     10  O   UNL     1      -7.026  14.379  24.272  0.00  0.00    +0.000 OA
ATOM     11  C   UNL     1      -6.142  15.153  23.448  0.00  0.00    +0.000 C 
ATOM     12  C   UNL     1      -4.673  14.836  23.758  0.00  0.00    +0.000 C 
ATOM     13  N   UNL     1      -2.777  11.664  23.414  0.00  0.00    +0.000 NA
ATOM     14  C   UNL     1      -1.529  11.471  22.800  0.00  0.00    +0.000 A 
ATOM     15  C   UNL     1      -0.700  10.262  22.851  0.00  0.00    +0.000 A 
ATOM     16  O   UNL     1      -1.068   9.225  23.396  0.00  0.00    +0.000 OA
ENDROOT
BRANCH   3  17
ATOM     17  C   UNL     1       0.476  13.628  20.465  0.00  0.00    +0.000 A 
ATOM     18  C   UNL     1       1.459  14.599  20.534  0.00  0.00    +0.000 A 
ATOM     19  C   UNL     1       1.316  15.414  19.384  0.00  0.00    +0.000 A 
ATOM     20  C   UNL     1       0.283  14.874  18.661  0.00  0.00    +0.000 A 
ATOM     21  O   UNL     1      -0.219  13.790  19.296  0.00  0.00    +0.000 OA
ENDBRANCH   3  17
BRANCH   1  22
ATOM     22  C   UNL     1       1.493   9.260  22.181  0.00  0.00    +0.000 C 
BRANCH  22  24
ATOM     23  N   UNL     1       2.242   7.343  20.815  0.00  0.00    +0.000 N 
ATOM     24  C   UNL     1       1.179   8.181  21.129  0.00  0.00    +0.000 C 
ATOM     25  O   UNL     1       0.088   8.174  20.557  0.00  0.00    +0.000 OA
ATOM     26  H   UNL     1       3.135   7.798  20.969  0.00  0.00    +0.000 HD
BRANCH  23  33
ATOM     27  C   UNL     1       2.007   4.978  20.109  0.00  0.00    +0.000 A 
ATOM     28  C   UNL     1       1.922   4.040  19.057  0.00  0.00    +0.000 A 
ATOM     29  C   UNL     1       2.068   4.430  17.733  0.00  0.00    +0.000 A 
ATOM     30  C   UNL     1       2.321   5.764  17.438  0.00  0.00    +0.000 A 
ATOM     31  C   UNL     1       2.385   6.728  18.459  0.00  0.00    +0.000 A 
ATOM     32  C   UNL     1       2.665   8.148  18.062  0.00  0.00    +0.000 C 
ATOM     33  C   UNL     1       2.180   6.346  19.806  0.00  0.00    +0.000 A 
BRANCH  27  35
ATOM     34  C   UNL     1       1.563   2.991  21.539  0.00  0.00    +0.000 C 
ATOM     35  C   UNL     1       2.151   4.399  21.500  0.00  0.00    +0.000 C 
ENDBRANCH  27  35
ENDBRANCH  23  33
ENDBRANCH  22  24
ENDBRANCH   1  22
TORSDOF 5
ENDMDL
MODEL 3
REMARK VINA RESULT:      -8.0      2.724      4.017
REMARK  Name = 
REMARK  7 active torsions:
REMARK  status: ('A' for Active; 'I' for Inactive)
REMARK    1  A    between atoms: C_1  and  C_2
REMARK    2  A    between atoms: C_2  and  C_3
REMARK    3  A    between atoms: C_7  and  C_8
REMARK    4  A    between atoms: C_9  and  N_10
REMARK    5  A    between atoms: C_11  and  C_13
REMARK    6  A    between atoms: C_13  and  N_14
REMARK    7  A    between atoms: C_16  and  C_17
REMARK                            x       y       z     vdW  Elec       q    Type
REMARK                         _______ _______ _______ _____ _____    ______ ____
ROOT
ATOM      1  N   UNL     1       1.129  10.346  18.719  0.00  0.00    +0.000 N 
ATOM      2  N   UNL     1       1.902  11.503  18.471  0.00  0.00    +0.000 NA
ATOM      3  C   UNL     1       1.638  12.593  19.142  0.00  0.00    +0.000 A 
ATOM      4  C   UNL     1       0.669  12.578  20.195  0.00  0.00    +0.000 A 
ATOM      5  S   UNL     1       0.425  13.767  21.361  0.00  0.00    +0.000 S 
ATOM      6  C   UNL     1      -0.900  12.881  22.034  0.00  0.00    +0.000 A 
ATOM      7  N   UNL     1      -1.688  13.428  23.007  0.00  0.00    +0.000 N 
ATOM      8  C   UNL     1      -2.783  12.649  23.598  0.00  0.00    +0.000 C 
ATOM      9  C   UNL     1      -3.903  13.611  24.043  0.00  0.00    +0.000 C 
ATOM     10  O   UNL     1      -3.416  14.622  24.945  0.00  0.00    +0.000 OA
ATOM     11  C   UNL     1      -2.385  15.394  24.313  0.00  0.00    +0.000 C 
ATOM     12  C   UNL     1      -1.207  14.506  23.891  0.00  0.00    +0.000 C 
ATOM     13  N   UNL     1      -1.066  11.694  21.472  0.00  0.00    +0.000 NA
ATOM     14  C   UNL     1      -0.140  11.499  20.436  0.00  0.00    +0.000 A 
ATOM     15  C   UNL     1       0.030  10.288  19.623  0.00  0.00    +0.000 A 
ATOM     16  O   UNL     1      -0.707   9.312  19.721  0.00  0.00    +0.000 OA
ENDROOT
BRANCH   3  17
ATOM     17  C   UNL     1       2.329  13.817  18.808  0.00  0.00    +0.000 A 
ATOM     18  C   UNL     1       3.671  14.093  18.614  0.00  0.00    +0.000 A 
ATOM     19  C   UNL     1       3.770  15.471  18.302  0.00  0.00    +0.000 A 
ATOM     20  C   UNL     1       2.484  15.950  18.285  0.00  0.00    +0.000 A 
ATOM     21  O   UNL     1       1.609  14.959  18.574  0.00  0.00    +0.000 OA
ENDBRANCH   3  17
BRANCH   1  22
ATOM     22  C   UNL     1       1.401   9.209  17.829  0.00  0.00    +0.000 C 
BRANCH  22  24
ATOM     23  N   UNL     1       2.960   7.322  17.496  0.00  0.00    +0.000 N 
ATOM     24  C   UNL     1       2.260   8.080  18.426  0.00  0.00    +0.000 C 
ATOM     25  O   UNL     1       2.208   7.836  19.633  0.00  0.00    +0.000 OA
ATOM     26  H   UNL     1       2.499   7.321  16.593  0.00  0.00    +0.000 HD
BRANCH  23  33
ATOM     27  C   UNL     1       5.141   6.230  17.937  0.00  0.00    +0.000 A 
ATOM     28  C   UNL     1       5.849   5.068  18.314  0.00  0.00    +0.000 A 
ATOM     29  C   UNL     1       5.193   3.864  18.527  0.00  0.00    +0.000 A 
ATOM     30  C   UNL     1       3.817   3.795  18.349  0.00  0.00    +0.000 A 
ATOM     31  C   UNL     1       3.078   4.939  18.001  0.00  0.00    +0.000 A 
ATOM     32  C   UNL     1       1.595   4.786  17.825  0.00  0.00    +0.000 C 
ATOM     33  C   UNL     1       3.734   6.182  17.839  0.00  0.00    +0.000 A 
BRANCH  27  35
ATOM     34  C   UNL     1       7.458   6.993  17.451  0.00  0.00    +0.000 C 
ATOM     35  C   UNL     1       5.982   7.381  17.428  0.00  0.00    +0.000 C 
ENDBRANCH  27  35
ENDBRANCH  23  33
ENDBRANCH  22  24
ENDBRANCH   1  22
TORSDOF 5
ENDMDL
MODEL 4
REMARK VINA RESULT:      -8.0      0.578      1.990
REMARK  Name = 
REMARK  7 active torsions:
REMARK  status: ('A' for Active; 'I' for Inactive)
REMARK    1  A    between atoms: C_1  and  C_2
REMARK    2  A    between atoms: C_2  and  C_3
REMARK    3  A    between atoms: C_7  and  C_8
REMARK    4  A    between atoms: C_9  and  N_10
REMARK    5  A    between atoms: C_11  and  C_13
REMARK    6  A    between atoms: C_13  and  N_14
REMARK    7  A    between atoms: C_16  and  C_17
REMARK                            x       y       z     vdW  Elec       q    Type
REMARK                         _______ _______ _______ _____ _____    ______ ____
ROOT
ATOM      1  N   UNL     1       0.949  10.021  19.295  0.00  0.00    +0.000 N 
ATOM      2  N   UNL     1       0.122  10.014  18.150  0.00  0.00    +0.000 NA
ATOM      3  C   UNL     1      -1.083  10.513  18.239  0.00  0.00    +0.000 A 
ATOM      4  C   UNL     1      -1.507  11.168  19.438  0.00  0.00    +0.000 A 
ATOM      5  S   UNL     1      -2.871  12.135  19.632  0.00  0.00    +0.000 S 
ATOM      6  C   UNL     1      -2.524  12.342  21.315  0.00  0.00    +0.000 A 
ATOM      7  N   UNL     1      -3.416  12.964  22.144  0.00  0.00    +0.000 N 
ATOM      8  C   UNL     1      -3.089  13.169  23.561  0.00  0.00    +0.000 C 
ATOM      9  C   UNL     1      -4.394  13.167  24.383  0.00  0.00    +0.000 C 
ATOM     10  O   UNL     1      -5.335  14.145  23.902  0.00  0.00    +0.000 OA
ATOM     11  C   UNL     1      -5.666  13.880  22.532  0.00  0.00    +0.000 C 
ATOM     12  C   UNL     1      -4.418  13.920  21.640  0.00  0.00    +0.000 C 
ATOM     13  N   UNL     1      -1.372  11.800  21.675  0.00  0.00    +0.000 NA
ATOM     14  C   UNL     1      -0.763  11.154  20.588  0.00  0.00    +0.000 A 
ATOM     15  C   UNL     1       0.548  10.493  20.577  0.00  0.00    +0.000 A 
ATOM     16  O   UNL     1       1.237  10.367  21.585  0.00  0.00    +0.000 OA
ENDROOT
BRANCH   3  17
ATOM     17  C   UNL     1      -1.985  10.394  17.116  0.00  0.00    +0.000 A 
ATOM     18  C   UNL     1      -2.734   9.330  16.647  0.00  0.00    +0.000 A 
ATOM     19  C   UNL     1      -3.441   9.791  15.509  0.00  0.00    +0.000 A 
ATOM     20  C   UNL     1      -3.114  11.117  15.370  0.00  0.00    +0.000 A 
ATOM     21  O   UNL     1      -2.251  11.492  16.342  0.00  0.00    +0.000 OA
ENDBRANCH   3  17
BRANCH   1  22
ATOM     22  C   UNL     1       2.232   9.321  19.146  0.00  0.00    +0.000 C 
BRANCH  22  24
ATOM     23  N   UNL     1       2.936   6.953  19.164  0.00  0.00    +0.000 N 
ATOM     24  C   UNL     1       2.158   7.913  18.527  0.00  0.00    +0.000 C 
ATOM     25  O   UNL     1       1.533   7.727  17.482  0.00  0.00    +0.000 OA
ATOM     26  H   UNL     1       3.733   7.369  19.633  0.00  0.00    +0.000 HD
BRANCH  23  33
ATOM     27  C   UNL     1       3.973   5.277  17.660  0.00  0.00    +0.000 A 
ATOM     28  C   UNL     1       4.086   3.928  17.259  0.00  0.00    +0.000 A 
ATOM     29  C   UNL     1       3.284   2.943  17.819  0.00  0.00    +0.000 A 
ATOM     30  C   UNL     1       2.341   3.293  18.777  0.00  0.00    +0.000 A 
ATOM     31  C   UNL     1       2.221   4.622  19.218  0.00  0.00    +0.000 A 
ATOM     32  C   UNL     1       1.177   4.923  20.254  0.00  0.00    +0.000 C 
ATOM     33  C   UNL     1       3.074   5.621  18.693  0.00  0.00    +0.000 A 
BRANCH  27  35
ATOM     34  C   UNL     1       5.306   5.582  15.581  0.00  0.00    +0.000 C 
ATOM     35  C   UNL     1       4.659   6.290  16.768  0.00  0.00    +0.000 C 
ENDBRANCH  27  35
ENDBRANCH  23  33
ENDBRANCH  22  24
ENDBRANCH   1  22
TORSDOF 5
ENDMDL
MODEL 5
REMARK VINA RESULT:      -7.9      3.687      5.343
REMARK  Name = 
REMARK  7 active torsions:
REMARK  status: ('A' for Active; 'I' for Inactive)
REMARK    1  A    between atoms: C_1  and  C_2
REMARK    2  A    between atoms: C_2  and  C_3
REMARK    3  A    between atoms: C_7  and  C_8
REMARK    4  A    between atoms: C_9  and  N_10
REMARK    5  A    between atoms: C_11  and  C_13
REMARK    6  A    between atoms: C_13  and  N_14
REMARK    7  A    between atoms: C_16  and  C_17
REMARK                            x       y       z     vdW  Elec       q    Type
REMARK                         _______ _______ _______ _____ _____    ______ ____
ROOT
ATOM      1  N   UNL     1       1.077  10.202  18.517  0.00  0.00    +0.000 N 
ATOM      2  N   UNL     1       0.094  10.364  19.519  0.00  0.00    +0.000 NA
ATOM      3  C   UNL     1       0.075  11.472  20.211  0.00  0.00    +0.000 A 
ATOM      4  C   UNL     1       0.953  12.550  19.873  0.00  0.00    +0.000 A 
ATOM      5  S   UNL     1       0.861  14.138  20.424  0.00  0.00    +0.000 S 
ATOM      6  C   UNL     1       2.297  14.557  19.553  0.00  0.00    +0.000 A 
ATOM      7  N   UNL     1       2.885  15.780  19.716  0.00  0.00    +0.000 N 
ATOM      8  C   UNL     1       4.079  16.136  18.940  0.00  0.00    +0.000 C 
ATOM      9  C   UNL     1       4.937  17.121  19.760  0.00  0.00    +0.000 C 
ATOM     10  O   UNL     1       4.188  18.285  20.156  0.00  0.00    +0.000 OA
ATOM     11  C   UNL     1       3.061  17.899  20.954  0.00  0.00    +0.000 C 
ATOM     12  C   UNL     1       2.128  16.957  20.180  0.00  0.00    +0.000 C 
ATOM     13  N   UNL     1       2.748  13.569  18.797  0.00  0.00    +0.000 NA
ATOM     14  C   UNL     1       1.955  12.422  18.948  0.00  0.00    +0.000 A 
ATOM     15  C   UNL     1       2.100  11.149  18.231  0.00  0.00    +0.000 A 
ATOM     16  O   UNL     1       3.021  10.927  17.449  0.00  0.00    +0.000 OA
ENDROOT
BRANCH   3  17
ATOM     17  C   UNL     1      -0.838  11.599  21.324  0.00  0.00    +0.000 A 
ATOM     18  C   UNL     1      -0.769  11.140  22.628  0.00  0.00    +0.000 A 
ATOM     19  C   UNL     1      -1.953  11.565  23.279  0.00  0.00    +0.000 A 
ATOM     20  C   UNL     1      -2.659  12.289  22.351  0.00  0.00    +0.000 A 
ATOM     21  O   UNL     1      -1.989  12.328  21.176  0.00  0.00    +0.000 OA
ENDBRANCH   3  17
BRANCH   1  22
ATOM     22  C   UNL     1       1.112   8.877  17.883  0.00  0.00    +0.000 C 
BRANCH  22  24
ATOM     23  N   UNL     1       2.676   6.987  17.596  0.00  0.00    +0.000 N 
ATOM     24  C   UNL     1       2.091   7.863  18.502  0.00  0.00    +0.000 C 
ATOM     25  O   UNL     1       2.226   7.800  19.725  0.00  0.00    +0.000 OA
ATOM     26  H   UNL     1       2.089   6.843  16.782  0.00  0.00    +0.000 HD
BRANCH  23  33
ATOM     27  C   UNL     1       4.940   6.063  18.011  0.00  0.00    +0.000 A 
ATOM     28  C   UNL     1       5.736   4.976  18.433  0.00  0.00    +0.000 A 
ATOM     29  C   UNL     1       5.167   3.752  18.757  0.00  0.00    +0.000 A 
ATOM     30  C   UNL     1       3.792   3.588  18.648  0.00  0.00    +0.000 A 
ATOM     31  C   UNL     1       2.967   4.657  18.257  0.00  0.00    +0.000 A 
ATOM     32  C   UNL     1       1.491   4.402  18.159  0.00  0.00    +0.000 C 
ATOM     33  C   UNL     1       3.535   5.923  17.980  0.00  0.00    +0.000 A 
BRANCH  27  35
ATOM     34  C   UNL     1       7.188   6.990  17.489  0.00  0.00    +0.000 C 
ATOM     35  C   UNL     1       5.684   7.224  17.387  0.00  0.00    +0.000 C 
ENDBRANCH  27  35
ENDBRANCH  23  33
ENDBRANCH  22  24
ENDBRANCH   1  22
TORSDOF 5
ENDMDL
MODEL 6
REMARK VINA RESULT:      -7.9      2.353      4.243
REMARK  Name = 
REMARK  7 active torsions:
REMARK  status: ('A' for Active; 'I' for Inactive)
REMARK    1  A    between atoms: C_1  and  C_2
REMARK    2  A    between atoms: C_2  and  C_3
REMARK    3  A    between atoms: C_7  and  C_8
REMARK    4  A    between atoms: C_9  and  N_10
REMARK    5  A    between atoms: C_11  and  C_13
REMARK    6  A    between atoms: C_13  and  N_14
REMARK    7  A    between atoms: C_16  and  C_17
REMARK                            x       y       z     vdW  Elec       q    Type
REMARK                         _______ _______ _______ _____ _____    ______ ____
ROOT
ATOM      1  N   UNL     1       0.948  10.204  18.298  0.00  0.00    +0.000 N 
ATOM      2  N   UNL     1       1.868  11.131  18.835  0.00  0.00    +0.000 NA
ATOM      3  C   UNL     1       1.411  12.178  19.471  0.00  0.00    +0.000 A 
ATOM      4  C   UNL     1       0.010  12.313  19.727  0.00  0.00    +0.000 A 
ATOM      5  S   UNL     1      -0.724  13.398  20.784  0.00  0.00    +0.000 S 
ATOM      6  C   UNL     1      -2.295  12.833  20.324  0.00  0.00    +0.000 A 
ATOM      7  N   UNL     1      -3.424  13.468  20.760  0.00  0.00    +0.000 N 
ATOM      8  C   UNL     1      -4.749  12.953  20.395  0.00  0.00    +0.000 C 
ATOM      9  C   UNL     1      -5.746  14.129  20.330  0.00  0.00    +0.000 C 
ATOM     10  O   UNL     1      -5.780  14.874  21.561  0.00  0.00    +0.000 OA
ATOM     11  C   UNL     1      -4.479  15.403  21.854  0.00  0.00    +0.000 C 
ATOM     12  C   UNL     1      -3.440  14.282  21.990  0.00  0.00    +0.000 C 
ATOM     13  N   UNL     1      -2.250  11.799  19.500  0.00  0.00    +0.000 NA
ATOM     14  C   UNL     1      -0.923  11.470  19.182  0.00  0.00    +0.000 A 
ATOM     15  C   UNL     1      -0.468  10.349  18.352  0.00  0.00    +0.000 A 
ATOM     16  O   UNL     1      -1.242   9.600  17.763  0.00  0.00    +0.000 OA
ENDROOT
BRANCH   3  17
ATOM     17  C   UNL     1       2.333  13.200  19.911  0.00  0.00    +0.000 A 
ATOM     18  C   UNL     1       2.874  14.293  19.258  0.00  0.00    +0.000 A 
ATOM     19  C   UNL     1       3.718  14.952  20.186  0.00  0.00    +0.000 A 
ATOM     20  C   UNL     1       3.616  14.249  21.360  0.00  0.00    +0.000 A 
ATOM     21  O   UNL     1       2.773  13.202  21.208  0.00  0.00    +0.000 OA
ENDBRANCH   3  17
BRANCH   1  22
ATOM     22  C   UNL     1       1.540   9.134  17.484  0.00  0.00    +0.000 C 
BRANCH  22  24
ATOM     23  N   UNL     1       2.999   7.141  17.475  0.00  0.00    +0.000 N 
ATOM     24  C   UNL     1       2.281   8.032  18.263  0.00  0.00    +0.000 C 
ATOM     25  O   UNL     1       2.126   7.923  19.480  0.00  0.00    +0.000 OA
ATOM     26  H   UNL     1       2.606   7.066  16.543  0.00  0.00    +0.000 HD
BRANCH  23  33
ATOM     27  C   UNL     1       5.064   6.000  18.238  0.00  0.00    +0.000 A 
ATOM     28  C   UNL     1       5.668   4.848  18.786  0.00  0.00    +0.000 A 
ATOM     29  C   UNL     1       4.932   3.698  19.032  0.00  0.00    +0.000 A 
ATOM     30  C   UNL     1       3.579   3.673  18.716  0.00  0.00    +0.000 A 
ATOM     31  C   UNL     1       2.940   4.811  18.194  0.00  0.00    +0.000 A 
ATOM     32  C   UNL     1       1.477   4.706  17.875  0.00  0.00    +0.000 C 
ATOM     33  C   UNL     1       3.673   6.004  17.995  0.00  0.00    +0.000 A 
BRANCH  27  35
ATOM     34  C   UNL     1       7.437   6.518  17.702  0.00  0.00    +0.000 C 
ATOM     35  C   UNL     1       6.012   7.062  17.723  0.00  0.00    +0.000 C 
ENDBRANCH  27  35
ENDBRANCH  23  33
ENDBRANCH  22  24
ENDBRANCH   1  22
TORSDOF 5
ENDMDL
MODEL 7
REMARK VINA RESULT:      -7.9      3.638      4.923
REMARK  Name = 
REMARK  7 active torsions:
REMARK  status: ('A' for Active; 'I' for Inactive)
REMARK    1  A    between atoms: C_1  and  C_2
REMARK    2  A    between atoms: C_2  and  C_3
REMARK    3  A    between atoms: C_7  and  C_8
REMARK    4  A    between atoms: C_9  and  N_10
REMARK    5  A    between atoms: C_11  and  C_13
REMARK    6  A    between atoms: C_13  and  N_14
REMARK    7  A    between atoms: C_16  and  C_17
REMARK                            x       y       z     vdW  Elec       q    Type
REMARK                         _______ _______ _______ _____ _____    ______ ____
ROOT
ATOM      1  N   UNL     1       0.995  10.171  18.587  0.00  0.00    +0.000 N 
ATOM      2  N   UNL     1       0.008  10.358  19.580  0.00  0.00    +0.000 NA
ATOM      3  C   UNL     1      -0.010  11.482  20.247  0.00  0.00    +0.000 A 
ATOM      4  C   UNL     1       0.872  12.550  19.889  0.00  0.00    +0.000 A 
ATOM      5  S   UNL     1       0.782  14.150  20.403  0.00  0.00    +0.000 S 
ATOM      6  C   UNL     1       2.223  14.546  19.529  0.00  0.00    +0.000 A 
ATOM      7  N   UNL     1       2.813  15.771  19.667  0.00  0.00    +0.000 N 
ATOM      8  C   UNL     1       4.011  16.106  18.888  0.00  0.00    +0.000 C 
ATOM      9  C   UNL     1       4.868  17.108  19.689  0.00  0.00    +0.000 C 
ATOM     10  O   UNL     1       4.121  18.282  20.056  0.00  0.00    +0.000 OA
ATOM     11  C   UNL     1       2.989  17.917  20.858  0.00  0.00    +0.000 C 
ATOM     12  C   UNL     1       2.057  16.960  20.102  0.00  0.00    +0.000 C 
ATOM     13  N   UNL     1       2.674  13.540  18.797  0.00  0.00    +0.000 NA
ATOM     14  C   UNL     1       1.877  12.398  18.971  0.00  0.00    +0.000 A 
ATOM     15  C   UNL     1       2.022  11.109  18.284  0.00  0.00    +0.000 A 
ATOM     16  O   UNL     1       2.945  10.868  17.511  0.00  0.00    +0.000 OA
ENDROOT
BRANCH   3  17
ATOM     17  C   UNL     1      -0.927  11.636  21.354  0.00  0.00    +0.000 A 
ATOM     18  C   UNL     1      -0.853  11.230  22.674  0.00  0.00    +0.000 A 
ATOM     19  C   UNL     1      -2.045  11.659  23.307  0.00  0.00    +0.000 A 
ATOM     20  C   UNL     1      -2.762  12.335  22.350  0.00  0.00    +0.000 A 
ATOM     21  O   UNL     1      -2.090  12.339  21.176  0.00  0.00    +0.000 OA
ENDBRANCH   3  17
BRANCH   1  22
ATOM     22  C   UNL     1       1.029   8.832  17.983  0.00  0.00    +0.000 C 
BRANCH  22  24
ATOM     23  N   UNL     1       2.358   6.756  17.832  0.00  0.00    +0.000 N 
ATOM     24  C   UNL     1       1.991   7.826  18.639  0.00  0.00    +0.000 C 
ATOM     25  O   UNL     1       2.295   7.943  19.827  0.00  0.00    +0.000 OA
ATOM     26  H   UNL     1       1.649   6.552  17.136  0.00  0.00    +0.000 HD
BRANCH  23  33
ATOM     27  C   UNL     1       2.640   4.620  19.059  0.00  0.00    +0.000 A 
ATOM     28  C   UNL     1       3.487   3.559  19.448  0.00  0.00    +0.000 A 
ATOM     29  C   UNL     1       4.839   3.568  19.135  0.00  0.00    +0.000 A 
ATOM     30  C   UNL     1       5.373   4.648  18.442  0.00  0.00    +0.000 A 
ATOM     31  C   UNL     1       4.552   5.707  18.016  0.00  0.00    +0.000 A 
ATOM     32  C   UNL     1       5.202   6.839  17.274  0.00  0.00    +0.000 C 
ATOM     33  C   UNL     1       3.163   5.676  18.282  0.00  0.00    +0.000 A 
BRANCH  27  35
ATOM     34  C   UNL     1       1.179   3.541  20.760  0.00  0.00    +0.000 C 
ATOM     35  C   UNL     1       1.279   4.656  19.722  0.00  0.00    +0.000 C 
ENDBRANCH  27  35
ENDBRANCH  23  33
ENDBRANCH  22  24
ENDBRANCH   1  22
TORSDOF 5
ENDMDL
MODEL 8
REMARK VINA RESULT:      -7.8      1.520      1.678
REMARK  Name = 
REMARK  7 active torsions:
REMARK  status: ('A' for Active; 'I' for Inactive)
REMARK    1  A    between atoms: C_1  and  C_2
REMARK    2  A    between atoms: C_2  and  C_3
REMARK    3  A    between atoms: C_7  and  C_8
REMARK    4  A    between atoms: C_9  and  N_10
REMARK    5  A    between atoms: C_11  and  C_13
REMARK    6  A    between atoms: C_13  and  N_14
REMARK    7  A    between atoms: C_16  and  C_17
REMARK                            x       y       z     vdW  Elec       q    Type
REMARK                         _______ _______ _______ _____ _____    ______ ____
ROOT
ATOM      1  N   UNL     1       0.915   9.026  20.968  0.00  0.00    +0.000 N 
ATOM      2  N   UNL     1       0.199   9.139  19.755  0.00  0.00    +0.000 NA
ATOM      3  C   UNL     1      -0.650  10.123  19.614  0.00  0.00    +0.000 A 
ATOM      4  C   UNL     1      -0.757  11.136  20.619  0.00  0.00    +0.000 A 
ATOM      5  S   UNL     1      -1.538  12.620  20.478  0.00  0.00    +0.000 S 
ATOM      6  C   UNL     1      -1.170  13.006  22.125  0.00  0.00    +0.000 A 
ATOM      7  N   UNL     1      -1.700  14.117  22.720  0.00  0.00    +0.000 N 
ATOM      8  C   UNL     1      -1.346  14.453  24.104  0.00  0.00    +0.000 C 
ATOM      9  C   UNL     1      -2.527  15.199  24.758  0.00  0.00    +0.000 C 
ATOM     10  O   UNL     1      -2.912  16.364  24.004  0.00  0.00    +0.000 OA
ATOM     11  C   UNL     1      -3.298  15.986  22.675  0.00  0.00    +0.000 C 
ATOM     12  C   UNL     1      -2.149  15.285  21.940  0.00  0.00    +0.000 C 
ATOM     13  N   UNL     1      -0.397  12.103  22.706  0.00  0.00    +0.000 NA
ATOM     14  C   UNL     1      -0.124  11.041  21.830  0.00  0.00    +0.000 A 
ATOM     15  C   UNL     1       0.744   9.886  22.089  0.00  0.00    +0.000 A 
ATOM     16  O   UNL     1       1.280   9.687  23.176  0.00  0.00    +0.000 OA
ENDROOT
BRANCH   3  17
ATOM     17  C   UNL     1      -1.485  10.177  18.435  0.00  0.00    +0.000 A 
ATOM     18  C   UNL     1      -1.240   9.831  17.118  0.00  0.00    +0.000 A 
ATOM     19  C   UNL     1      -2.429  10.094  16.394  0.00  0.00    +0.000 A 
ATOM     20  C   UNL     1      -3.342  10.547  17.313  0.00  0.00    +0.000 A 
ATOM     21  O   UNL     1      -2.787  10.586  18.546  0.00  0.00    +0.000 OA
ENDBRANCH   3  17
BRANCH   1  22
ATOM     22  C   UNL     1       1.743   7.819  21.095  0.00  0.00    +0.000 C 
BRANCH  22  24
ATOM     23  N   UNL     1       2.603   5.839  19.893  0.00  0.00    +0.000 N 
ATOM     24  C   UNL     1       2.164   7.152  19.773  0.00  0.00    +0.000 C 
ATOM     25  O   UNL     1       2.199   7.809  18.732  0.00  0.00    +0.000 OA
ATOM     26  H   UNL     1       2.986   5.656  20.814  0.00  0.00    +0.000 HD
BRANCH  23  33
ATOM     27  C   UNL     1       2.306   4.221  18.038  0.00  0.00    +0.000 A 
ATOM     28  C   UNL     1       2.873   3.522  16.951  0.00  0.00    +0.000 A 
ATOM     29  C   UNL     1       4.228   3.618  16.662  0.00  0.00    +0.000 A 
ATOM     30  C   UNL     1       5.043   4.401  17.469  0.00  0.00    +0.000 A 
ATOM     31  C   UNL     1       4.506   5.132  18.543  0.00  0.00    +0.000 A 
ATOM     32  C   UNL     1       5.452   5.955  19.370  0.00  0.00    +0.000 C 
ATOM     33  C   UNL     1       3.118   5.083  18.807  0.00  0.00    +0.000 A 
BRANCH  27  35
ATOM     34  C   UNL     1       0.951   2.387  19.033  0.00  0.00    +0.000 C 
ATOM     35  C   UNL     1       0.911   3.794  18.443  0.00  0.00    +0.000 C 
ENDBRANCH  27  35
ENDBRANCH  23  33
ENDBRANCH  22  24
ENDBRANCH   1  22
TORSDOF 5
ENDMDL
MODEL 9
REMARK VINA RESULT:      -7.7      1.430      1.546
REMARK  Name = 
REMARK  7 active torsions:
REMARK  status: ('A' for Active; 'I' for Inactive)
REMARK    1  A    between atoms: C_1  and  C_2
REMARK    2  A    between atoms: C_2  and  C_3
REMARK    3  A    between atoms: C_7  and  C_8
REMARK    4  A    between atoms: C_9  and  N_10
REMARK    5  A    between atoms: C_11  and  C_13
REMARK    6  A    between atoms: C_13  and  N_14
REMARK    7  A    between atoms: C_16  and  C_17
REMARK                            x       y       z     vdW  Elec       q    Type
REMARK                         _______ _______ _______ _____ _____    ______ ____
ROOT
ATOM      1  N   UNL     1       0.145   9.920  21.360  0.00  0.00    +0.000 N 
ATOM      2  N   UNL     1      -0.296   9.878  20.019  0.00  0.00    +0.000 NA
ATOM      3  C   UNL     1      -1.292  10.643  19.658  0.00  0.00    +0.000 A 
ATOM      4  C   UNL     1      -1.841  11.595  20.572  0.00  0.00    +0.000 A 
ATOM      5  S   UNL     1      -2.885  12.863  20.205  0.00  0.00    +0.000 S 
ATOM      6  C   UNL     1      -2.983  13.309  21.875  0.00  0.00    +0.000 A 
ATOM      7  N   UNL     1      -3.866  14.264  22.296  0.00  0.00    +0.000 N 
ATOM      8  C   UNL     1      -3.908  14.660  23.709  0.00  0.00    +0.000 C 
ATOM      9  C   UNL     1      -5.341  15.111  24.062  0.00  0.00    +0.000 C 
ATOM     10  O   UNL     1      -5.803  16.163  23.195  0.00  0.00    +0.000 OA
ATOM     11  C   UNL     1      -5.795  15.719  21.831  0.00  0.00    +0.000 C 
ATOM     12  C   UNL     1      -4.385  15.305  21.389  0.00  0.00    +0.000 C 
ATOM     13  N   UNL     1      -2.173  12.601  22.646  0.00  0.00    +0.000 NA
ATOM     14  C   UNL     1      -1.484  11.637  21.894  0.00  0.00    +0.000 A 
ATOM     15  C   UNL     1      -0.456  10.709  22.382  0.00  0.00    +0.000 A 
ATOM     16  O   UNL     1      -0.141  10.629  23.565  0.00  0.00    +0.000 OA
ENDROOT
BRANCH   3  17
ATOM     17  C   UNL     1      -1.839  10.514  18.325  0.00  0.00    +0.000 A 
ATOM     18  C   UNL     1      -2.651   9.552  17.753  0.00  0.00    +0.000 A 
ATOM     19  C   UNL     1      -2.874   9.945  16.410  0.00  0.00    +0.000 A 
ATOM     20  C   UNL     1      -2.220  11.141  16.250  0.00  0.00    +0.000 A 
ATOM     21  O   UNL     1      -1.606  11.499  17.401  0.00  0.00    +0.000 OA
ENDBRANCH   3  17
BRANCH   1  22
ATOM     22  C   UNL     1       1.175   8.934  21.713  0.00  0.00    +0.000 C 
BRANCH  22  24
ATOM     23  N   UNL     1       2.345   7.216  20.378  0.00  0.00    +0.000 N 
ATOM     24  C   UNL     1       1.132   7.610  20.928  0.00  0.00    +0.000 C 
ATOM     25  O   UNL     1       0.057   7.040  20.735  0.00  0.00    +0.000 OA
ATOM     26  H   UNL     1       2.948   8.011  20.194  0.00  0.00    +0.000 HD
BRANCH  23  33
ATOM     27  C   UNL     1       2.309   4.762  20.029  0.00  0.00    +0.000 A 
ATOM     28  C   UNL     1       2.440   3.672  19.141  0.00  0.00    +0.000 A 
ATOM     29  C   UNL     1       2.808   3.864  17.817  0.00  0.00    +0.000 A 
ATOM     30  C   UNL     1       3.070   5.149  17.360  0.00  0.00    +0.000 A 
ATOM     31  C   UNL     1       2.923   6.259  18.210  0.00  0.00    +0.000 A 
ATOM     32  C   UNL     1       3.227   7.617  17.645  0.00  0.00    +0.000 C 
ATOM     33  C   UNL     1       2.493   6.075  19.545  0.00  0.00    +0.000 A 
BRANCH  27  35
ATOM     34  C   UNL     1       1.709   2.981  21.660  0.00  0.00    +0.000 C 
ATOM     35  C   UNL     1       2.221   4.410  21.499  0.00  0.00    +0.000 C 
ENDBRANCH  27  35
ENDBRANCH  23  33
ENDBRANCH  22  24
ENDBRANCH   1  22
TORSDOF 5
ENDMDL
