MODEL 1
REMARK VINA RESULT:      -8.1      0.000      0.000
REMARK  Name = 
REMARK  4 active torsions:
REMARK  status: ('A' for Active; 'I' for Inactive)
REMARK    1  A    between atoms: C_11  and  O_12
REMARK    2  A    between atoms: O_12  and  C_13
REMARK    3  A    between atoms: C_13  and  C_14
REMARK    4  A    between atoms: C_13  and  C_21
REMARK                            x       y       z     vdW  Elec       q    Type
REMARK                         _______ _______ _______ _____ _____    ______ ____
ROOT
ATOM      1  C   UNL     1       2.622   5.384  17.945  0.00  0.00    +0.000 C 
ENDROOT
BRANCH   1   2
ATOM      2  C   UNL     1       4.104   5.711  18.009  0.00  0.00    +0.000 A 
ATOM      3  C   UNL     1       4.720   6.480  17.009  0.00  0.00    +0.000 A 
ATOM      4  C   UNL     1       6.059   6.859  17.126  0.00  0.00    +0.000 A 
ATOM      5  C   UNL     1       6.798   6.465  18.239  0.00  0.00    +0.000 A 
ATOM      6 CL   UNL     1       8.419   7.009  18.423  0.00  0.00    +0.000 Cl
ATOM      7  C   UNL     1       6.223   5.650  19.211  0.00  0.00    +0.000 A 
ATOM      8  C   UNL     1       4.885   5.265  19.090  0.00  0.00    +0.000 A 
ENDBRANCH   1   2
BRANCH   1   9
ATOM      9  C   UNL     1       2.179   4.332  18.951  0.00  0.00    +0.000 A 
ATOM     10  C   UNL     1       1.745   4.692  20.237  0.00  0.00    +0.000 A 
ATOM     11  C   UNL     1       1.238   3.734  21.110  0.00  0.00    +0.000 A 
ATOM     12  C   UNL     1       1.191   2.422  20.681  0.00  0.00    +0.000 A 
ATOM     13  N   UNL     1       1.654   2.015  19.484  0.00  0.00    +0.000 NA
ATOM     14  C   UNL     1       2.146   2.971  18.657  0.00  0.00    +0.000 A 
ATOM     15 CL   UNL     1       2.731   2.305  17.181  0.00  0.00    +0.000 Cl
ENDBRANCH   1   9
BRANCH   1  16
ATOM     16  O   UNL     1       1.848   6.581  18.158  0.00  0.00    +0.000 OA
BRANCH  16  27
ATOM     17  O   UNL     1       0.177  11.194  18.549  0.00  0.00    +0.000 OA
ATOM     18  C   UNL     1       0.323  10.212  19.275  0.00  0.00    +0.000 C 
ATOM     19  N   UNL     1      -0.394  10.054  20.456  0.00  0.00    +0.000 N 
ATOM     20  C   UNL     1      -1.299  11.098  20.919  0.00  0.00    +0.000 C 
ATOM     21  C   UNL     1      -0.944  11.502  22.355  0.00  0.00    +0.000 C 
ATOM     22  C   UNL     1      -0.803  10.287  23.281  0.00  0.00    +0.000 C 
ATOM     23  C   UNL     1       0.082   9.200  22.666  0.00  0.00    +0.000 C 
ATOM     24  C   UNL     1      -0.426   8.852  21.274  0.00  0.00    +0.000 C 
ATOM     25  N   UNL     1       1.159   9.193  18.928  0.00  0.00    +0.000 N 
ATOM     26  C   UNL     1       1.947   9.125  17.690  0.00  0.00    +0.000 C 
ATOM     27  C   UNL     1       2.554   7.846  18.324  0.00  0.00    +0.000 C 
ATOM     28  C   UNL     1       2.270   8.581  19.666  0.00  0.00    +0.000 C 
ENDBRANCH  16  27
ENDBRANCH   1  16
TORSDOF 4
ENDMDL
MODEL 2
REMARK VINA RESULT:      -7.6      1.754      2.705
REMARK  Name = 
REMARK  4 active torsions:
REMARK  status: ('A' for Active; 'I' for Inactive)
REMARK    1  A    between atoms: C_11  and  O_12
REMARK    2  A    between atoms: O_12  and  C_13
REMARK    3  A    between atoms: C_13  and  C_14
REMARK    4  A    between atoms: C_13  and  C_21
REMARK                            x       y       z     vdW  Elec       q    Type
REMARK                         _______ _______ _______ _____ _____    ______ ____
ROOT
ATOM      1  C   UNL     1       2.491   6.274  19.207  0.00  0.00    +0.000 C 
ENDROOT
BRANCH   1   2
ATOM      2  C   UNL     1       3.765   6.214  18.382  0.00  0.00    +0.000 A 
ATOM      3  C   UNL     1       4.878   5.480  18.820  0.00  0.00    +0.000 A 
ATOM      4  C   UNL     1       6.008   5.348  18.011  0.00  0.00    +0.000 A 
ATOM      5  C   UNL     1       6.040   5.959  16.759  0.00  0.00    +0.000 A 
ATOM      6 CL   UNL     1       7.397   5.720  15.729  0.00  0.00    +0.000 Cl
ATOM      7  C   UNL     1       4.972   6.743  16.332  0.00  0.00    +0.000 A 
ATOM      8  C   UNL     1       3.844   6.880  17.146  0.00  0.00    +0.000 A 
ENDBRANCH   1   2
BRANCH   1   9
ATOM      9  C   UNL     1       2.102   4.946  19.838  0.00  0.00    +0.000 A 
ATOM     10  C   UNL     1       2.389   4.669  21.184  0.00  0.00    +0.000 A 
ATOM     11  C   UNL     1       1.932   3.497  21.782  0.00  0.00    +0.000 A 
ATOM     12  C   UNL     1       1.207   2.613  21.008  0.00  0.00    +0.000 A 
ATOM     13  N   UNL     1       0.960   2.800  19.698  0.00  0.00    +0.000 NA
ATOM     14  C   UNL     1       1.422   3.949  19.144  0.00  0.00    +0.000 A 
ATOM     15 CL   UNL     1       1.065   4.039  17.461  0.00  0.00    +0.000 Cl
ENDBRANCH   1   9
BRANCH   1  16
ATOM     16  O   UNL     1       2.631   7.258  20.251  0.00  0.00    +0.000 OA
BRANCH  16  27
ATOM     17  O   UNL     1       0.469  11.394  21.816  0.00  0.00    +0.000 OA
ATOM     18  C   UNL     1       0.436  10.665  20.826  0.00  0.00    +0.000 C 
ATOM     19  N   UNL     1      -0.025  11.116  19.594  0.00  0.00    +0.000 N 
ATOM     20  C   UNL     1      -0.565  12.462  19.450  0.00  0.00    +0.000 C 
ATOM     21  C   UNL     1      -1.968  12.403  18.837  0.00  0.00    +0.000 C 
ATOM     22  C   UNL     1      -2.013  11.533  17.574  0.00  0.00    +0.000 C 
ATOM     23  C   UNL     1      -1.333  10.178  17.790  0.00  0.00    +0.000 C 
ATOM     24  C   UNL     1       0.072  10.391  18.335  0.00  0.00    +0.000 C 
ATOM     25  N   UNL     1       0.906   9.387  20.871  0.00  0.00    +0.000 N 
ATOM     26  C   UNL     1       1.504   8.743  22.048  0.00  0.00    +0.000 C 
ATOM     27  C   UNL     1       1.511   7.470  21.162  0.00  0.00    +0.000 C 
ATOM     28  C   UNL     1       0.255   8.121  20.513  0.00  0.00    +0.000 C 
ENDBRANCH  16  27
ENDBRANCH   1  16
TORSDOF 4
ENDMDL
MODEL 3
REMARK VINA RESULT:      -7.5      1.110      1.375
REMARK  Name = 
REMARK  4 active torsions:
REMARK  status: ('A' for Active; 'I' for Inactive)
REMARK    1  A    between atoms: C_11  and  O_12
REMARK    2  A    between atoms: O_12  and  C_13
REMARK    3  A    between atoms: C_13  and  C_14
REMARK    4  A    between atoms: C_13  and  C_21
REMARK                            x       y       z     vdW  Elec       q    Type
REMARK                         _______ _______ _______ _____ _____    ______ ____
ROOT
ATOM      1  C   UNL     1       2.475   5.536  17.794  0.00  0.00    +0.000 C 
ENDROOT
BRANCH   1   2
ATOM      2  C   UNL     1       3.969   5.764  17.953  0.00  0.00    +0.000 A 
ATOM      3  C   UNL     1       4.696   6.494  16.999  0.00  0.00    +0.000 A 
ATOM      4  C   UNL     1       6.046   6.784  17.203  0.00  0.00    +0.000 A 
ATOM      5  C   UNL     1       6.686   6.337  18.357  0.00  0.00    +0.000 A 
ATOM      6 CL   UNL     1       8.324   6.773  18.646  0.00  0.00    +0.000 Cl
ATOM      7  C   UNL     1       5.999   5.560  19.284  0.00  0.00    +0.000 A 
ATOM      8  C   UNL     1       4.648   5.264  19.077  0.00  0.00    +0.000 A 
ENDBRANCH   1   2
BRANCH   1   9
ATOM      9  C   UNL     1       1.957   4.309  18.529  0.00  0.00    +0.000 A 
ATOM     10  C   UNL     1       1.841   3.068  17.882  0.00  0.00    +0.000 A 
ATOM     11  C   UNL     1       1.472   1.929  18.592  0.00  0.00    +0.000 A 
ATOM     12  C   UNL     1       1.208   2.059  19.941  0.00  0.00    +0.000 A 
ATOM     13  N   UNL     1       1.241   3.236  20.594  0.00  0.00    +0.000 NA
ATOM     14  C   UNL     1       1.599   4.329  19.875  0.00  0.00    +0.000 A 
ATOM     15 CL   UNL     1       1.565   5.764  20.826  0.00  0.00    +0.000 Cl
ENDBRANCH   1   9
BRANCH   1  16
ATOM     16  O   UNL     1       1.751   6.692  18.259  0.00  0.00    +0.000 OA
BRANCH  16  27
ATOM     17  O   UNL     1       0.104  11.326  18.466  0.00  0.00    +0.000 OA
ATOM     18  C   UNL     1       0.246  10.373  19.231  0.00  0.00    +0.000 C 
ATOM     19  N   UNL     1      -0.470  10.266  20.418  0.00  0.00    +0.000 N 
ATOM     20  C   UNL     1      -1.369  11.333  20.841  0.00  0.00    +0.000 C 
ATOM     21  C   UNL     1      -1.010  11.792  22.259  0.00  0.00    +0.000 C 
ATOM     22  C   UNL     1      -0.873  10.614  23.233  0.00  0.00    +0.000 C 
ATOM     23  C   UNL     1       0.006   9.499  22.660  0.00  0.00    +0.000 C 
ATOM     24  C   UNL     1      -0.506   9.097  21.284  0.00  0.00    +0.000 C 
ATOM     25  N   UNL     1       1.077   9.336  18.925  0.00  0.00    +0.000 N 
ATOM     26  C   UNL     1       1.862   9.215  17.689  0.00  0.00    +0.000 C 
ATOM     27  C   UNL     1       2.464   7.960  18.373  0.00  0.00    +0.000 C 
ATOM     28  C   UNL     1       2.186   8.750  19.685  0.00  0.00    +0.000 C 
ENDBRANCH  16  27
ENDBRANCH   1  16
TORSDOF 4
ENDMDL
MODEL 4
REMARK VINA RESULT:      -7.4      4.722      7.355
REMARK  Name = 
REMARK  4 active torsions:
REMARK  status: ('A' for Active; 'I' for Inactive)
REMARK    1  A    between atoms: C_11  and  O_12
REMARK    2  A    between atoms: O_12  and  C_13
REMARK    3  A    between atoms: C_13  and  C_14
REMARK    4  A    between atoms: C_13  and  C_21
REMARK                            x       y       z     vdW  Elec       q    Type
REMARK                         _______ _______ _______ _____ _____    ______ ____
ROOT
ATOM      1  C   UNL     1       0.625  11.001  19.142  0.00  0.00    +0.000 C 
ENDROOT
BRANCH   1   2
ATOM      2  C   UNL     1      -0.828  11.037  18.699  0.00  0.00    +0.000 A 
ATOM      3  C   UNL     1      -1.314  10.139  17.735  0.00  0.00    +0.000 A 
ATOM      4  C   UNL     1      -2.671  10.113  17.406  0.00  0.00    +0.000 A 
ATOM      5  C   UNL     1      -3.553  10.991  18.032  0.00  0.00    +0.000 A 
ATOM      6 CL   UNL     1      -5.236  10.895  17.690  0.00  0.00    +0.000 Cl
ATOM      7  C   UNL     1      -3.081  11.930  18.945  0.00  0.00    +0.000 A 
ATOM      8  C   UNL     1      -1.722  11.961  19.268  0.00  0.00    +0.000 A 
ENDBRANCH   1   2
BRANCH   1   9
ATOM      9  C   UNL     1       1.265   9.625  19.045  0.00  0.00    +0.000 A 
ATOM     10  C   UNL     1       1.955   9.222  17.890  0.00  0.00    +0.000 A 
ATOM     11  C   UNL     1       2.630   8.005  17.853  0.00  0.00    +0.000 A 
ATOM     12  C   UNL     1       2.586   7.202  18.976  0.00  0.00    +0.000 A 
ATOM     13  N   UNL     1       1.887   7.512  20.084  0.00  0.00    +0.000 NA
ATOM     14  C   UNL     1       1.236   8.701  20.088  0.00  0.00    +0.000 A 
ATOM     15 CL   UNL     1       0.358   8.949  21.549  0.00  0.00    +0.000 Cl
ENDBRANCH   1   9
BRANCH   1  16
ATOM     16  O   UNL     1       1.399  11.926  18.353  0.00  0.00    +0.000 OA
BRANCH  16  27
ATOM     17  O   UNL     1       2.124  16.792  18.194  0.00  0.00    +0.000 OA
ATOM     18  C   UNL     1       1.373  15.999  18.761  0.00  0.00    +0.000 C 
ATOM     19  N   UNL     1       0.145  16.390  19.283  0.00  0.00    +0.000 N 
ATOM     20  C   UNL     1      -0.266  17.788  19.245  0.00  0.00    +0.000 C 
ATOM     21  C   UNL     1      -0.635  18.265  20.655  0.00  0.00    +0.000 C 
ATOM     22  C   UNL     1      -1.607  17.307  21.355  0.00  0.00    +0.000 C 
ATOM     23  C   UNL     1      -1.145  15.851  21.254  0.00  0.00    +0.000 C 
ATOM     24  C   UNL     1      -0.881  15.496  19.797  0.00  0.00    +0.000 C 
ATOM     25  N   UNL     1       1.682  14.675  18.856  0.00  0.00    +0.000 N 
ATOM     26  C   UNL     1       2.889  14.043  18.304  0.00  0.00    +0.000 C 
ATOM     27  C   UNL     1       2.373  12.773  19.031  0.00  0.00    +0.000 C 
ATOM     28  C   UNL     1       1.764  13.799  20.030  0.00  0.00    +0.000 C 
ENDBRANCH  16  27
ENDBRANCH   1  16
TORSDOF 4
ENDMDL
MODEL 5
REMARK VINA RESULT:      -7.3      4.279      7.163
REMARK  Name = 
REMARK  4 active torsions:
REMARK  status: ('A' for Active; 'I' for Inactive)
REMARK    1  A    between atoms: C_11  and  O_12
REMARK    2  A    between atoms: O_12  and  C_13
REMARK    3  A    between atoms: C_13  and  C_14
REMARK    4  A    between atoms: C_13  and  C_21
REMARK                            x       y       z     vdW  Elec       q    Type
REMARK                         _______ _______ _______ _____ _____    ______ ____
ROOT
ATOM      1  C   UNL     1       0.400  11.067  19.263  0.00  0.00    +0.000 C 
ENDROOT
BRANCH   1   2
ATOM      2  C   UNL     1      -1.056  11.043  18.828  0.00  0.00    +0.000 A 
ATOM      3  C   UNL     1      -2.004  11.888  19.426  0.00  0.00    +0.000 A 
ATOM      4  C   UNL     1      -3.317  11.931  18.953  0.00  0.00    +0.000 A 
ATOM      5  C   UNL     1      -3.697  11.122  17.885  0.00  0.00    +0.000 A 
ATOM      6 CL   UNL     1      -5.291  11.243  17.248  0.00  0.00    +0.000 Cl
ATOM      7  C   UNL     1      -2.788  10.233  17.319  0.00  0.00    +0.000 A 
ATOM      8  C   UNL     1      -1.476  10.185  17.797  0.00  0.00    +0.000 A 
ENDBRANCH   1   2
BRANCH   1   9
ATOM      9  C   UNL     1       1.116   9.737  19.092  0.00  0.00    +0.000 A 
ATOM     10  C   UNL     1       1.797   9.424  17.905  0.00  0.00    +0.000 A 
ATOM     11  C   UNL     1       2.541   8.252  17.800  0.00  0.00    +0.000 A 
ATOM     12  C   UNL     1       2.574   7.402  18.888  0.00  0.00    +0.000 A 
ATOM     13  N   UNL     1       1.887   7.623  20.025  0.00  0.00    +0.000 NA
ATOM     14  C   UNL     1       1.168   8.771  20.095  0.00  0.00    +0.000 A 
ATOM     15 CL   UNL     1       0.317   8.906  21.586  0.00  0.00    +0.000 Cl
ENDBRANCH   1   9
BRANCH   1  16
ATOM     16  O   UNL     1       1.115  12.075  18.521  0.00  0.00    +0.000 OA
BRANCH  16  27
ATOM     17  O   UNL     1       1.014  16.741  20.084  0.00  0.00    +0.000 OA
ATOM     18  C   UNL     1       0.609  15.643  20.463  0.00  0.00    +0.000 C 
ATOM     19  N   UNL     1      -0.434  15.515  21.374  0.00  0.00    +0.000 N 
ATOM     20  C   UNL     1      -1.040  16.694  21.979  0.00  0.00    +0.000 C 
ATOM     21  C   UNL     1      -1.011  16.574  23.507  0.00  0.00    +0.000 C 
ATOM     22  C   UNL     1      -1.555  15.225  23.994  0.00  0.00    +0.000 C 
ATOM     23  C   UNL     1      -0.936  14.051  23.231  0.00  0.00    +0.000 C 
ATOM     24  C   UNL     1      -1.098  14.270  21.733  0.00  0.00    +0.000 C 
ATOM     25  N   UNL     1       1.127  14.486  19.962  0.00  0.00    +0.000 N 
ATOM     26  C   UNL     1       2.177  14.399  18.938  0.00  0.00    +0.000 C 
ATOM     27  C   UNL     1       2.115  12.875  19.218  0.00  0.00    +0.000 C 
ATOM     28  C   UNL     1       1.707  13.327  20.651  0.00  0.00    +0.000 C 
ENDBRANCH  16  27
ENDBRANCH   1  16
TORSDOF 4
ENDMDL
MODEL 6
REMARK VINA RESULT:      -7.2      3.894      6.650
REMARK  Name = 
REMARK  4 active torsions:
REMARK  status: ('A' for Active; 'I' for Inactive)
REMARK    1  A    between atoms: C_11  and  O_12
REMARK    2  A    between atoms: O_12  and  C_13
REMARK    3  A    between atoms: C_13  and  C_14
REMARK    4  A    between atoms: C_13  and  C_21
REMARK                            x       y       z     vdW  Elec       q    Type
REMARK                         _______ _______ _______ _____ _____    ______ ____
ROOT
ATOM      1  C   UNL     1      -0.012  10.626  19.630  0.00  0.00    +0.000 C 
ENDROOT
BRANCH   1   2
ATOM      2  C   UNL     1       0.957   9.485  19.369  0.00  0.00    +0.000 A 
ATOM      3  C   UNL     1       1.218   8.518  20.352  0.00  0.00    +0.000 A 
ATOM      4  C   UNL     1       2.033   7.419  20.071  0.00  0.00    +0.000 A 
ATOM      5  C   UNL     1       2.603   7.282  18.808  0.00  0.00    +0.000 A 
ATOM      6 CL   UNL     1       3.531   5.882  18.438  0.00  0.00    +0.000 Cl
ATOM      7  C   UNL     1       2.406   8.263  17.839  0.00  0.00    +0.000 A 
ATOM      8  C   UNL     1       1.597   9.366  18.123  0.00  0.00    +0.000 A 
ENDBRANCH   1   2
BRANCH   1   9
ATOM      9  C   UNL     1      -1.176  10.680  18.653  0.00  0.00    +0.000 A 
ATOM     10  C   UNL     1      -1.973   9.551  18.407  0.00  0.00    +0.000 A 
ATOM     11  C   UNL     1      -3.102   9.640  17.597  0.00  0.00    +0.000 A 
ATOM     12  C   UNL     1      -3.402  10.864  17.031  0.00  0.00    +0.000 A 
ATOM     13  N   UNL     1      -2.636  11.960  17.183  0.00  0.00    +0.000 NA
ATOM     14  C   UNL     1      -1.541  11.841  17.974  0.00  0.00    +0.000 A 
ATOM     15 CL   UNL     1      -0.639  13.306  18.049  0.00  0.00    +0.000 Cl
ENDBRANCH   1   9
BRANCH   1  16
ATOM     16  O   UNL     1      -0.537  10.525  20.968  0.00  0.00    +0.000 OA
BRANCH  16  27
ATOM     17  O   UNL     1      -1.562  15.307  21.524  0.00  0.00    +0.000 OA
ATOM     18  C   UNL     1      -2.086  14.225  21.785  0.00  0.00    +0.000 C 
ATOM     19  N   UNL     1      -3.454  14.102  22.002  0.00  0.00    +0.000 N 
ATOM     20  C   UNL     1      -4.314  15.278  22.006  0.00  0.00    +0.000 C 
ATOM     21  C   UNL     1      -5.118  15.337  23.310  0.00  0.00    +0.000 C 
ATOM     22  C   UNL     1      -5.814  14.006  23.623  0.00  0.00    +0.000 C 
ATOM     23  C   UNL     1      -4.857  12.818  23.494  0.00  0.00    +0.000 C 
ATOM     24  C   UNL     1      -4.182  12.849  22.130  0.00  0.00    +0.000 C 
ATOM     25  N   UNL     1      -1.357  13.074  21.817  0.00  0.00    +0.000 N 
ATOM     26  C   UNL     1       0.082  12.973  21.539  0.00  0.00    +0.000 C 
ATOM     27  C   UNL     1      -0.093  11.492  21.965  0.00  0.00    +0.000 C 
ATOM     28  C   UNL     1      -1.222  12.062  22.871  0.00  0.00    +0.000 C 
ENDBRANCH  16  27
ENDBRANCH   1  16
TORSDOF 4
ENDMDL
MODEL 7
REMARK VINA RESULT:      -7.2      5.983      8.467
REMARK  Name = 
REMARK  4 active torsions:
REMARK  status: ('A' for Active; 'I' for Inactive)
REMARK    1  A    between atoms: C_11  and  O_12
REMARK    2  A    between atoms: O_12  and  C_13
REMARK    3  A    between atoms: C_13  and  C_14
REMARK    4  A    between atoms: C_13  and  C_21
REMARK                            x       y       z     vdW  Elec       q    Type
REMARK                         _______ _______ _______ _____ _____    ______ ____
ROOT
ATOM      1  C   UNL     1      -1.415  12.083  20.203  0.00  0.00    +0.000 C 
ENDROOT
BRANCH   1   2
ATOM      2  C   UNL     1      -2.024  11.455  18.961  0.00  0.00    +0.000 A 
ATOM      3  C   UNL     1      -3.354  11.716  18.595  0.00  0.00    +0.000 A 
ATOM      4  C   UNL     1      -3.875  11.215  17.401  0.00  0.00    +0.000 A 
ATOM      5  C   UNL     1      -3.075  10.439  16.566  0.00  0.00    +0.000 A 
ATOM      6 CL   UNL     1      -3.692   9.898  15.054  0.00  0.00    +0.000 Cl
ATOM      7  C   UNL     1      -1.773  10.117  16.941  0.00  0.00    +0.000 A 
ATOM      8  C   UNL     1      -1.254  10.613  18.140  0.00  0.00    +0.000 A 
ENDBRANCH   1   2
BRANCH   1   9
ATOM      9  C   UNL     1      -0.859  11.074  21.195  0.00  0.00    +0.000 A 
ATOM     10  C   UNL     1       0.074  10.102  20.799  0.00  0.00    +0.000 A 
ATOM     11  C   UNL     1       0.659   9.255  21.735  0.00  0.00    +0.000 A 
ATOM     12  C   UNL     1       0.283   9.388  23.058  0.00  0.00    +0.000 A 
ATOM     13  N   UNL     1      -0.652  10.258  23.480  0.00  0.00    +0.000 NA
ATOM     14  C   UNL     1      -1.208  11.067  22.544  0.00  0.00    +0.000 A 
ATOM     15 CL   UNL     1      -2.409  12.101  23.218  0.00  0.00    +0.000 Cl
ENDBRANCH   1   9
BRANCH   1  16
ATOM     16  O   UNL     1      -0.359  12.988  19.825  0.00  0.00    +0.000 OA
BRANCH  16  27
ATOM     17  O   UNL     1       3.241  14.765  22.673  0.00  0.00    +0.000 OA
ATOM     18  C   UNL     1       2.994  14.662  21.472  0.00  0.00    +0.000 C 
ATOM     19  N   UNL     1       3.994  14.708  20.507  0.00  0.00    +0.000 N 
ATOM     20  C   UNL     1       5.379  14.961  20.884  0.00  0.00    +0.000 C 
ATOM     21  C   UNL     1       5.931  16.149  20.087  0.00  0.00    +0.000 C 
ATOM     22  C   UNL     1       5.669  16.009  18.582  0.00  0.00    +0.000 C 
ATOM     23  C   UNL     1       4.212  15.642  18.289  0.00  0.00    +0.000 C 
ATOM     24  C   UNL     1       3.822  14.410  19.093  0.00  0.00    +0.000 C 
ATOM     25  N   UNL     1       1.726  14.438  21.027  0.00  0.00    +0.000 N 
ATOM     26  C   UNL     1       0.541  14.279  21.881  0.00  0.00    +0.000 C 
ATOM     27  C   UNL     1      -0.237  14.254  20.540  0.00  0.00    +0.000 C 
ATOM     28  C   UNL     1       0.917  15.174  20.048  0.00  0.00    +0.000 C 
ENDBRANCH  16  27
ENDBRANCH   1  16
TORSDOF 4
ENDMDL
MODEL 8
REMARK VINA RESULT:      -7.2      3.851      7.682
REMARK  Name = 
REMARK  4 active torsions:
REMARK  status: ('A' for Active; 'I' for Inactive)
REMARK    1  A    between atoms: C_11  and  O_12
REMARK    2  A    between atoms: O_12  and  C_13
REMARK    3  A    between atoms: C_13  and  C_14
REMARK    4  A    between atoms: C_13  and  C_21
REMARK                            x       y       z     vdW  Elec       q    Type
REMARK                         _______ _______ _______ _____ _____    ______ ____
ROOT
ATOM      1  C   UNL     1      -0.567  10.619  19.752  0.00  0.00    +0.000 C 
ENDROOT
BRANCH   1   2
ATOM      2  C   UNL     1       0.552  11.644  19.669  0.00  0.00    +0.000 A 
ATOM      3  C   UNL     1       1.439  11.663  18.581  0.00  0.00    +0.000 A 
ATOM      4  C   UNL     1       2.400  12.668  18.464  0.00  0.00    +0.000 A 
ATOM      5  C   UNL     1       2.492  13.659  19.439  0.00  0.00    +0.000 A 
ATOM      6 CL   UNL     1       3.617  14.945  19.244  0.00  0.00    +0.000 Cl
ATOM      7  C   UNL     1       1.663  13.622  20.557  0.00  0.00    +0.000 A 
ATOM      8  C   UNL     1       0.705  12.612  20.678  0.00  0.00    +0.000 A 
ENDBRANCH   1   2
BRANCH   1   9
ATOM      9  C   UNL     1      -1.586  10.728  18.629  0.00  0.00    +0.000 A 
ATOM     10  C   UNL     1      -1.471   9.952  17.464  0.00  0.00    +0.000 A 
ATOM     11  C   UNL     1      -2.467   9.977  16.492  0.00  0.00    +0.000 A 
ATOM     12  C   UNL     1      -3.558  10.799  16.699  0.00  0.00    +0.000 A 
ATOM     13  N   UNL     1      -3.685  11.610  17.766  0.00  0.00    +0.000 NA
ATOM     14  C   UNL     1      -2.697  11.566  18.693  0.00  0.00    +0.000 A 
ATOM     15 CL   UNL     1      -2.972  12.677  19.980  0.00  0.00    +0.000 Cl
ENDBRANCH   1   9
BRANCH   1  16
ATOM     16  O   UNL     1      -0.012   9.289  19.744  0.00  0.00    +0.000 OA
BRANCH  16  27
ATOM     17  O   UNL     1       1.769   4.933  21.186  0.00  0.00    +0.000 OA
ATOM     18  C   UNL     1       1.945   5.732  20.268  0.00  0.00    +0.000 C 
ATOM     19  N   UNL     1       2.517   5.351  19.059  0.00  0.00    +0.000 N 
ATOM     20  C   UNL     1       3.006   3.992  18.864  0.00  0.00    +0.000 C 
ATOM     21  C   UNL     1       4.470   4.020  18.409  0.00  0.00    +0.000 C 
ATOM     22  C   UNL     1       4.693   4.981  17.233  0.00  0.00    +0.000 C 
ATOM     23  C   UNL     1       4.057   6.350  17.486  0.00  0.00    +0.000 C 
ATOM     24  C   UNL     1       2.593   6.174  17.861  0.00  0.00    +0.000 C 
ATOM     25  N   UNL     1       1.533   7.027  20.367  0.00  0.00    +0.000 N 
ATOM     26  C   UNL     1       0.839   7.611  21.523  0.00  0.00    +0.000 C 
ATOM     27  C   UNL     1       0.989   8.946  20.748  0.00  0.00    +0.000 C 
ATOM     28  C   UNL     1       2.277   8.279  20.184  0.00  0.00    +0.000 C 
ENDBRANCH  16  27
ENDBRANCH   1  16
TORSDOF 4
ENDMDL
MODEL 9
REMARK VINA RESULT:      -7.2      2.167      2.777
REMARK  Name = 
REMARK  4 active torsions:
REMARK  status: ('A' for Active; 'I' for Inactive)
REMARK    1  A    between atoms: C_11  and  O_12
REMARK    2  A    between atoms: O_12  and  C_13
REMARK    3  A    between atoms: C_13  and  C_14
REMARK    4  A    between atoms: C_13  and  C_21
REMARK                            x       y       z     vdW  Elec       q    Type
REMARK                         _______ _______ _______ _____ _____    ______ ____
ROOT
ATOM      1  C   UNL     1       2.257   5.838  18.884  0.00  0.00    +0.000 C 
ENDROOT
BRANCH   1   2
ATOM      2  C   UNL     1       3.300   5.710  17.786  0.00  0.00    +0.000 A 
ATOM      3  C   UNL     1       4.108   6.799  17.425  0.00  0.00    +0.000 A 
ATOM      4  C   UNL     1       5.130   6.647  16.486  0.00  0.00    +0.000 A 
ATOM      5  C   UNL     1       5.347   5.406  15.891  0.00  0.00    +0.000 A 
ATOM      6 CL   UNL     1       6.663   5.200  14.803  0.00  0.00    +0.000 Cl
ATOM      7  C   UNL     1       4.517   4.329  16.190  0.00  0.00    +0.000 A 
ATOM      8  C   UNL     1       3.489   4.484  17.125  0.00  0.00    +0.000 A 
ENDBRANCH   1   2
BRANCH   1   9
ATOM      9  C   UNL     1       2.194   4.638  19.816  0.00  0.00    +0.000 A 
ATOM     10  C   UNL     1       0.963   4.109  20.239  0.00  0.00    +0.000 A 
ATOM     11  C   UNL     1       0.914   2.945  21.001  0.00  0.00    +0.000 A 
ATOM     12  C   UNL     1       2.108   2.340  21.342  0.00  0.00    +0.000 A 
ATOM     13  N   UNL     1       3.314   2.841  21.018  0.00  0.00    +0.000 NA
ATOM     14  C   UNL     1       3.330   3.978  20.279  0.00  0.00    +0.000 A 
ATOM     15 CL   UNL     1       4.934   4.522  19.969  0.00  0.00    +0.000 Cl
ENDBRANCH   1   9
BRANCH   1  16
ATOM     16  O   UNL     1       2.516   7.018  19.669  0.00  0.00    +0.000 OA
BRANCH  16  27
ATOM     17  O   UNL     1       0.995  11.288  21.588  0.00  0.00    +0.000 OA
ATOM     18  C   UNL     1       0.698  10.554  20.647  0.00  0.00    +0.000 C 
ATOM     19  N   UNL     1      -0.005  11.018  19.541  0.00  0.00    +0.000 N 
ATOM     20  C   UNL     1      -0.488  12.392  19.492  0.00  0.00    +0.000 C 
ATOM     21  C   UNL     1      -1.995  12.410  19.213  0.00  0.00    +0.000 C 
ATOM     22  C   UNL     1      -2.372  11.531  18.013  0.00  0.00    +0.000 C 
ATOM     23  C   UNL     1      -1.736  10.141  18.101  0.00  0.00    +0.000 C 
ATOM     24  C   UNL     1      -0.235  10.277  18.310  0.00  0.00    +0.000 C 
ATOM     25  N   UNL     1       1.096   9.250  20.613  0.00  0.00    +0.000 N 
ATOM     26  C   UNL     1       1.910   8.584  21.640  0.00  0.00    +0.000 C 
ATOM     27  C   UNL     1       1.646   7.305  20.804  0.00  0.00    +0.000 C 
ATOM     28  C   UNL     1       0.313   8.021  20.440  0.00  0.00    +0.000 C 
ENDBRANCH  16  27
ENDBRANCH   1  16
TORSDOF 4
ENDMDL
