MODEL 1
REMARK VINA RESULT:      -7.3      0.000      0.000
REMARK  Name = 
REMARK  12 active torsions:
REMARK  status: ('A' for Active; 'I' for Inactive)
REMARK    1  A    between atoms: C_1  and  C_2
REMARK    2  A    between atoms: C_2  and  N_3
REMARK    3  A    between atoms: N_3  and  C_4
REMARK    4  A    between atoms: N_3  and  C_20
REMARK    5  A    between atoms: C_4  and  C_5
REMARK    6  A    between atoms: C_5  and  C_6
REMARK    7  A    between atoms: C_6  and  C_7
REMARK    8  A    between atoms: C_7  and  O_8
REMARK    9  A    between atoms: O_8  and  C_9
REMARK   10  A    between atoms: C_9  and  C_11
REMARK   11  A    between atoms: C_25  and  O_26
REMARK   12  A    between atoms: O_26  and  C_27
REMARK                            x       y       z     vdW  Elec       q    Type
REMARK                         _______ _______ _______ _____ _____    ______ ____
ROOT
ATOM      1  C   UNL     1       2.026   5.916  20.652  0.00  0.00    +0.000 C 
ENDROOT
BRANCH   1   2
ATOM      2  N   UNL     1       1.975   6.800  19.470  0.00  0.00    +0.000 NA
BRANCH   2   3
ATOM      3  C   UNL     1       0.972   7.906  19.604  0.00  0.00    +0.000 C 
ATOM      4  C   UNL     1       1.430   9.217  18.922  0.00  0.00    +0.000 C 
ATOM      5  C   UNL     1       0.387  10.327  19.044  0.00  0.00    +0.000 C 
ATOM      6  C   UNL     1      -0.064  10.554  20.454  0.00  0.00    +0.000 A 
ATOM      7  C   UNL     1      -0.628  11.789  20.816  0.00  0.00    +0.000 A 
ATOM      8  C   UNL     1      -1.072  12.031  22.118  0.00  0.00    +0.000 A 
ATOM      9  C   UNL     1      -0.977  11.015  23.065  0.00  0.00    +0.000 A 
ATOM     10  C   UNL     1      -0.433   9.778  22.711  0.00  0.00    +0.000 A 
ATOM     11  C   UNL     1       0.025   9.536  21.408  0.00  0.00    +0.000 A 
ATOM     12  C   UNL     1       0.680   8.211  21.101  0.00  0.00    +0.000 C 
BRANCH   8  13
ATOM     13  O   UNL     1      -1.569  13.288  22.337  0.00  0.00    +0.000 OA
ATOM     14  C   UNL     1      -1.240  13.896  23.580  0.00  0.00    +0.000 C 
ENDBRANCH   8  13
ENDBRANCH   2   3
BRANCH   2  16
ATOM     15  C   UNL     1       3.610   7.190  17.544  0.00  0.00    +0.000 C 
ATOM     16  C   UNL     1       3.311   7.258  19.039  0.00  0.00    +0.000 C 
ENDBRANCH   2  16
ENDBRANCH   1   2
BRANCH   1  17
ATOM     17  C   UNL     1       1.181   4.638  20.537  0.00  0.00    +0.000 C 
BRANCH  17  18
ATOM     18  C   UNL     1       1.978   3.417  21.000  0.00  0.00    +0.000 C 
BRANCH  18  19
ATOM     19  C   UNL     1       1.842   2.260  20.017  0.00  0.00    +0.000 C 
BRANCH  19  20
ATOM     20  O   UNL     1       3.046   2.121  19.247  0.00  0.00    +0.000 OA
BRANCH  20  21
ATOM     21  C   UNL     1       3.036   2.748  18.044  0.00  0.00    +0.000 C 
ATOM     22  O   UNL     1       2.133   2.709  17.223  0.00  0.00    +0.000 OA
BRANCH  21  23
ATOM     23  C   UNL     1       4.287   3.526  17.846  0.00  0.00    +0.000 A 
ATOM     24  C   UNL     1       4.830   3.775  16.565  0.00  0.00    +0.000 A 
ATOM     25  C   UNL     1       6.010   4.512  16.421  0.00  0.00    +0.000 A 
ATOM     26  C   UNL     1       6.617   4.979  17.566  0.00  0.00    +0.000 A 
ATOM     27  C   UNL     1       6.093   4.739  18.815  0.00  0.00    +0.000 A 
ATOM     28  C   UNL     1       4.931   4.019  18.990  0.00  0.00    +0.000 A 
ATOM     29  O   UNL     1       6.844   5.283  19.808  0.00  0.00    +0.000 OA
ATOM     30  C   UNL     1       7.917   5.873  19.045  0.00  0.00    +0.000 C 
ATOM     31  O   UNL     1       7.765   5.705  17.619  0.00  0.00    +0.000 OA
ENDBRANCH  21  23
ENDBRANCH  20  21
ENDBRANCH  19  20
ENDBRANCH  18  19
ENDBRANCH  17  18
ENDBRANCH   1  17
TORSDOF 10
ENDMDL
MODEL 2
REMARK VINA RESULT:      -7.2      1.036      1.661
REMARK  Name = 
REMARK  12 active torsions:
REMARK  status: ('A' for Active; 'I' for Inactive)
REMARK    1  A    between atoms: C_1  and  C_2
REMARK    2  A    between atoms: C_2  and  N_3
REMARK    3  A    between atoms: N_3  and  C_4
REMARK    4  A    between atoms: N_3  and  C_20
REMARK    5  A    between atoms: C_4  and  C_5
REMARK    6  A    between atoms: C_5  and  C_6
REMARK    7  A    between atoms: C_6  and  C_7
REMARK    8  A    between atoms: C_7  and  O_8
REMARK    9  A    between atoms: O_8  and  C_9
REMARK   10  A    between atoms: C_9  and  C_11
REMARK   11  A    between atoms: C_25  and  O_26
REMARK   12  A    between atoms: O_26  and  C_27
REMARK                            x       y       z     vdW  Elec       q    Type
REMARK                         _______ _______ _______ _____ _____    ______ ____
ROOT
ATOM      1  C   UNL     1       1.579   5.641  20.993  0.00  0.00    +0.000 C 
ENDROOT
BRANCH   1   2
ATOM      2  N   UNL     1       1.580   6.880  20.191  0.00  0.00    +0.000 NA
BRANCH   2   3
ATOM      3  C   UNL     1       1.309   8.110  21.005  0.00  0.00    +0.000 C 
ATOM      4  C   UNL     1       0.013   8.001  21.843  0.00  0.00    +0.000 C 
ATOM      5  C   UNL     1      -0.236   9.251  22.686  0.00  0.00    +0.000 C 
ATOM      6  C   UNL     1      -0.189  10.515  21.886  0.00  0.00    +0.000 A 
ATOM      7  C   UNL     1      -0.838  11.667  22.362  0.00  0.00    +0.000 A 
ATOM      8  C   UNL     1      -0.802  12.868  21.649  0.00  0.00    +0.000 A 
ATOM      9  C   UNL     1      -0.085  12.926  20.458  0.00  0.00    +0.000 A 
ATOM     10  C   UNL     1       0.576  11.791  19.983  0.00  0.00    +0.000 A 
ATOM     11  C   UNL     1       0.533  10.581  20.690  0.00  0.00    +0.000 A 
ATOM     12  C   UNL     1       1.195   9.364  20.092  0.00  0.00    +0.000 C 
BRANCH   8  13
ATOM     13  O   UNL     1      -1.504  13.899  22.215  0.00  0.00    +0.000 OA
ATOM     14  C   UNL     1      -0.749  14.860  22.942  0.00  0.00    +0.000 C 
ENDBRANCH   8  13
ENDBRANCH   2   3
BRANCH   2  16
ATOM     15  C   UNL     1       2.538   6.770  17.823  0.00  0.00    +0.000 C 
ATOM     16  C   UNL     1       2.764   6.995  19.315  0.00  0.00    +0.000 C 
ENDBRANCH   2  16
ENDBRANCH   1   2
BRANCH   1  17
ATOM     17  C   UNL     1       0.853   4.453  20.344  0.00  0.00    +0.000 C 
BRANCH  17  18
ATOM     18  C   UNL     1       1.368   3.128  20.907  0.00  0.00    +0.000 C 
BRANCH  18  19
ATOM     19  C   UNL     1       2.675   2.713  20.240  0.00  0.00    +0.000 C 
BRANCH  19  20
ATOM     20  O   UNL     1       2.799   3.347  18.958  0.00  0.00    +0.000 OA
BRANCH  20  21
ATOM     21  C   UNL     1       3.686   2.767  18.111  0.00  0.00    +0.000 C 
ATOM     22  O   UNL     1       3.695   1.592  17.779  0.00  0.00    +0.000 OA
BRANCH  21  23
ATOM     23  C   UNL     1       4.662   3.767  17.606  0.00  0.00    +0.000 A 
ATOM     24  C   UNL     1       4.866   3.997  16.226  0.00  0.00    +0.000 A 
ATOM     25  C   UNL     1       5.795   4.948  15.790  0.00  0.00    +0.000 A 
ATOM     26  C   UNL     1       6.498   5.643  16.751  0.00  0.00    +0.000 A 
ATOM     27  C   UNL     1       6.302   5.423  18.094  0.00  0.00    +0.000 A 
ATOM     28  C   UNL     1       5.393   4.496  18.555  0.00  0.00    +0.000 A 
ATOM     29  O   UNL     1       7.095   6.208  18.871  0.00  0.00    +0.000 OA
ATOM     30  C   UNL     1       7.831   6.932  17.863  0.00  0.00    +0.000 C 
ATOM     31  O   UNL     1       7.438   6.596  16.515  0.00  0.00    +0.000 OA
ENDBRANCH  21  23
ENDBRANCH  20  21
ENDBRANCH  19  20
ENDBRANCH  18  19
ENDBRANCH  17  18
ENDBRANCH   1  17
TORSDOF 10
ENDMDL
MODEL 3
REMARK VINA RESULT:      -7.1      1.245      2.257
REMARK  Name = 
REMARK  12 active torsions:
REMARK  status: ('A' for Active; 'I' for Inactive)
REMARK    1  A    between atoms: C_1  and  C_2
REMARK    2  A    between atoms: C_2  and  N_3
REMARK    3  A    between atoms: N_3  and  C_4
REMARK    4  A    between atoms: N_3  and  C_20
REMARK    5  A    between atoms: C_4  and  C_5
REMARK    6  A    between atoms: C_5  and  C_6
REMARK    7  A    between atoms: C_6  and  C_7
REMARK    8  A    between atoms: C_7  and  O_8
REMARK    9  A    between atoms: O_8  and  C_9
REMARK   10  A    between atoms: C_9  and  C_11
REMARK   11  A    between atoms: C_25  and  O_26
REMARK   12  A    between atoms: O_26  and  C_27
REMARK                            x       y       z     vdW  Elec       q    Type
REMARK                         _______ _______ _______ _____ _____    ______ ____
ROOT
ATOM      1  C   UNL     1       2.657   6.076  20.051  0.00  0.00    +0.000 C 
ENDROOT
BRANCH   1   2
ATOM      2  N   UNL     1       1.877   7.082  19.303  0.00  0.00    +0.000 NA
BRANCH   2   3
ATOM      3  C   UNL     1       1.734   8.382  20.038  0.00  0.00    +0.000 C 
ATOM      4  C   UNL     1       0.806   8.275  21.271  0.00  0.00    +0.000 C 
ATOM      5  C   UNL     1       0.690   9.600  22.023  0.00  0.00    +0.000 C 
ATOM      6  C   UNL     1       0.316  10.746  21.136  0.00  0.00    +0.000 A 
ATOM      7  C   UNL     1      -0.282  11.891  21.689  0.00  0.00    +0.000 A 
ATOM      8  C   UNL     1      -0.631  12.985  20.893  0.00  0.00    +0.000 A 
ATOM      9  C   UNL     1      -0.355  12.944  19.530  0.00  0.00    +0.000 A 
ATOM     10  C   UNL     1       0.253  11.817  18.972  0.00  0.00    +0.000 A 
ATOM     11  C   UNL     1       0.594  10.713  19.766  0.00  0.00    +0.000 A 
ATOM     12  C   UNL     1       1.173   9.488  19.100  0.00  0.00    +0.000 C 
BRANCH   8  13
ATOM     13  O   UNL     1      -1.234  14.018  21.560  0.00  0.00    +0.000 OA
ATOM     14  C   UNL     1      -2.310  14.665  20.893  0.00  0.00    +0.000 C 
ENDBRANCH   8  13
ENDBRANCH   2   3
BRANCH   2  16
ATOM     15  C   UNL     1       3.837   7.248  17.670  0.00  0.00    +0.000 C 
ATOM     16  C   UNL     1       2.330   7.235  17.906  0.00  0.00    +0.000 C 
ENDBRANCH   2  16
ENDBRANCH   1   2
BRANCH   1  17
ATOM     17  C   UNL     1       1.821   5.153  20.953  0.00  0.00    +0.000 C 
BRANCH  17  18
ATOM     18  C   UNL     1       1.009   4.166  20.114  0.00  0.00    +0.000 C 
BRANCH  18  19
ATOM     19  C   UNL     1       1.546   2.746  20.255  0.00  0.00    +0.000 C 
BRANCH  19  20
ATOM     20  O   UNL     1       2.852   2.652  19.666  0.00  0.00    +0.000 OA
BRANCH  20  21
ATOM     21  C   UNL     1       2.882   2.735  18.312  0.00  0.00    +0.000 C 
ATOM     22  O   UNL     1       2.008   2.349  17.552  0.00  0.00    +0.000 OA
BRANCH  21  23
ATOM     23  C   UNL     1       4.136   3.388  17.852  0.00  0.00    +0.000 A 
ATOM     24  C   UNL     1       5.084   3.925  18.753  0.00  0.00    +0.000 A 
ATOM     25  C   UNL     1       6.253   4.532  18.280  0.00  0.00    +0.000 A 
ATOM     26  C   UNL     1       6.439   4.586  16.916  0.00  0.00    +0.000 A 
ATOM     27  C   UNL     1       5.520   4.063  16.037  0.00  0.00    +0.000 A 
ATOM     28  C   UNL     1       4.361   3.457  16.470  0.00  0.00    +0.000 A 
ATOM     29  O   UNL     1       5.892   4.222  14.739  0.00  0.00    +0.000 OA
ATOM     30  C   UNL     1       7.141   4.926  14.899  0.00  0.00    +0.000 C 
ATOM     31  O   UNL     1       7.506   5.138  16.280  0.00  0.00    +0.000 OA
ENDBRANCH  21  23
ENDBRANCH  20  21
ENDBRANCH  19  20
ENDBRANCH  18  19
ENDBRANCH  17  18
ENDBRANCH   1  17
TORSDOF 10
ENDMDL
MODEL 4
REMARK VINA RESULT:      -7.0      3.550      5.547
REMARK  Name = 
REMARK  12 active torsions:
REMARK  status: ('A' for Active; 'I' for Inactive)
REMARK    1  A    between atoms: C_1  and  C_2
REMARK    2  A    between atoms: C_2  and  N_3
REMARK    3  A    between atoms: N_3  and  C_4
REMARK    4  A    between atoms: N_3  and  C_20
REMARK    5  A    between atoms: C_4  and  C_5
REMARK    6  A    between atoms: C_5  and  C_6
REMARK    7  A    between atoms: C_6  and  C_7
REMARK    8  A    between atoms: C_7  and  O_8
REMARK    9  A    between atoms: O_8  and  C_9
REMARK   10  A    between atoms: C_9  and  C_11
REMARK   11  A    between atoms: C_25  and  O_26
REMARK   12  A    between atoms: O_26  and  C_27
REMARK                            x       y       z     vdW  Elec       q    Type
REMARK                         _______ _______ _______ _____ _____    ______ ____
ROOT
ATOM      1  C   UNL     1       4.854   5.671  18.311  0.00  0.00    +0.000 C 
ENDROOT
BRANCH   1   2
ATOM      2  N   UNL     1       3.564   5.318  18.935  0.00  0.00    +0.000 NA
BRANCH   2   3
ATOM      3  C   UNL     1       2.536   6.404  18.819  0.00  0.00    +0.000 C 
ATOM      4  C   UNL     1       3.039   7.621  18.007  0.00  0.00    +0.000 C 
ATOM      5  C   UNL     1       1.973   8.708  17.875  0.00  0.00    +0.000 C 
ATOM      6  C   UNL     1       1.385   9.113  19.191  0.00  0.00    +0.000 A 
ATOM      7  C   UNL     1       0.771  10.371  19.324  0.00  0.00    +0.000 A 
ATOM      8  C   UNL     1       0.200  10.776  20.533  0.00  0.00    +0.000 A 
ATOM      9  C   UNL     1       0.218   9.902  21.616  0.00  0.00    +0.000 A 
ATOM     10  C   UNL     1       0.811   8.644  21.491  0.00  0.00    +0.000 A 
ATOM     11  C   UNL     1       1.396   8.239  20.282  0.00  0.00    +0.000 A 
ATOM     12  C   UNL     1       2.097   6.903  20.224  0.00  0.00    +0.000 C 
BRANCH   8  13
ATOM     13  O   UNL     1      -0.334  12.037  20.527  0.00  0.00    +0.000 OA
ATOM     14  C   UNL     1       0.431  13.050  19.886  0.00  0.00    +0.000 C 
ENDBRANCH   8  13
ENDBRANCH   2   3
BRANCH   2  16
ATOM     15  C   UNL     1       1.694   3.936  17.872  0.00  0.00    +0.000 C 
ATOM     16  C   UNL     1       3.073   3.987  18.524  0.00  0.00    +0.000 C 
ENDBRANCH   2  16
ENDBRANCH   1   2
BRANCH   1  17
ATOM     17  C   UNL     1       5.846   4.504  18.177  0.00  0.00    +0.000 C 
BRANCH  17  18
ATOM     18  C   UNL     1       7.281   5.021  18.064  0.00  0.00    +0.000 C 
BRANCH  18  19
ATOM     19  C   UNL     1       7.497   6.251  18.939  0.00  0.00    +0.000 C 
BRANCH  19  20
ATOM     20  O   UNL     1       8.423   7.149  18.309  0.00  0.00    +0.000 OA
BRANCH  20  21
ATOM     21  C   UNL     1       7.866   8.248  17.740  0.00  0.00    +0.000 C 
ATOM     22  O   UNL     1       6.983   8.248  16.898  0.00  0.00    +0.000 OA
BRANCH  21  23
ATOM     23  C   UNL     1       8.466   9.489  18.296  0.00  0.00    +0.000 A 
ATOM     24  C   UNL     1       9.076   9.531  19.571  0.00  0.00    +0.000 A 
ATOM     25  C   UNL     1       9.629  10.719  20.059  0.00  0.00    +0.000 A 
ATOM     26  C   UNL     1       9.555  11.837  19.256  0.00  0.00    +0.000 A 
ATOM     27  C   UNL     1       8.963  11.801  18.016  0.00  0.00    +0.000 A 
ATOM     28  C   UNL     1       8.411  10.646  17.505  0.00  0.00    +0.000 A 
ATOM     29  O   UNL     1       8.992  13.007  17.390  0.00  0.00    +0.000 OA
ATOM     30  C   UNL     1       9.649  13.815  18.388  0.00  0.00    +0.000 C 
ATOM     31  O   UNL     1      10.032  13.072  19.565  0.00  0.00    +0.000 OA
ENDBRANCH  21  23
ENDBRANCH  20  21
ENDBRANCH  19  20
ENDBRANCH  18  19
ENDBRANCH  17  18
ENDBRANCH   1  17
TORSDOF 10
ENDMDL
MODEL 5
REMARK VINA RESULT:      -7.0      2.737      4.856
REMARK  Name = 
REMARK  12 active torsions:
REMARK  status: ('A' for Active; 'I' for Inactive)
REMARK    1  A    between atoms: C_1  and  C_2
REMARK    2  A    between atoms: C_2  and  N_3
REMARK    3  A    between atoms: N_3  and  C_4
REMARK    4  A    between atoms: N_3  and  C_20
REMARK    5  A    between atoms: C_4  and  C_5
REMARK    6  A    between atoms: C_5  and  C_6
REMARK    7  A    between atoms: C_6  and  C_7
REMARK    8  A    between atoms: C_7  and  O_8
REMARK    9  A    between atoms: O_8  and  C_9
REMARK   10  A    between atoms: C_9  and  C_11
REMARK   11  A    between atoms: C_25  and  O_26
REMARK   12  A    between atoms: O_26  and  C_27
REMARK                            x       y       z     vdW  Elec       q    Type
REMARK                         _______ _______ _______ _____ _____    ______ ____
ROOT
ATOM      1  C   UNL     1       1.650   8.120  18.517  0.00  0.00    +0.000 C 
ENDROOT
BRANCH   1   2
ATOM      2  N   UNL     1       1.302   9.110  19.556  0.00  0.00    +0.000 NA
BRANCH   2   3
ATOM      3  C   UNL     1       0.315  10.136  19.086  0.00  0.00    +0.000 C 
ATOM      4  C   UNL     1      -0.682  10.559  20.190  0.00  0.00    +0.000 C 
ATOM      5  C   UNL     1      -1.665  11.624  19.704  0.00  0.00    +0.000 C 
ATOM      6  C   UNL     1      -2.360  11.242  18.434  0.00  0.00    +0.000 A 
ATOM      7  C   UNL     1      -3.589  11.839  18.105  0.00  0.00    +0.000 A 
ATOM      8  C   UNL     1      -4.259  11.517  16.922  0.00  0.00    +0.000 A 
ATOM      9  C   UNL     1      -3.679  10.607  16.043  0.00  0.00    +0.000 A 
ATOM     10  C   UNL     1      -2.451  10.019  16.353  0.00  0.00    +0.000 A 
ATOM     11  C   UNL     1      -1.781  10.331  17.546  0.00  0.00    +0.000 A 
ATOM     12  C   UNL     1      -0.498   9.606  17.871  0.00  0.00    +0.000 C 
BRANCH   8  13
ATOM     13  O   UNL     1      -5.460  12.151  16.745  0.00  0.00    +0.000 OA
ATOM     14  C   UNL     1      -6.111  12.621  17.919  0.00  0.00    +0.000 C 
ENDBRANCH   8  13
ENDBRANCH   2   3
BRANCH   2  16
ATOM     15  C   UNL     1       1.574   9.088  22.098  0.00  0.00    +0.000 C 
ATOM     16  C   UNL     1       0.944   8.486  20.845  0.00  0.00    +0.000 C 
ENDBRANCH   2  16
ENDBRANCH   1   2
BRANCH   1  17
ATOM     17  C   UNL     1       3.081   8.234  17.971  0.00  0.00    +0.000 C 
BRANCH  17  18
ATOM     18  C   UNL     1       3.552   6.896  17.399  0.00  0.00    +0.000 C 
BRANCH  18  19
ATOM     19  C   UNL     1       5.070   6.859  17.252  0.00  0.00    +0.000 C 
BRANCH  19  20
ATOM     20  O   UNL     1       5.497   5.543  16.868  0.00  0.00    +0.000 OA
BRANCH  20  21
ATOM     21  C   UNL     1       5.795   4.710  17.897  0.00  0.00    +0.000 C 
ATOM     22  O   UNL     1       6.896   4.566  18.406  0.00  0.00    +0.000 OA
BRANCH  21  23
ATOM     23  C   UNL     1       4.581   3.986  18.356  0.00  0.00    +0.000 A 
ATOM     24  C   UNL     1       3.832   3.145  17.502  0.00  0.00    +0.000 A 
ATOM     25  C   UNL     1       2.694   2.480  17.972  0.00  0.00    +0.000 A 
ATOM     26  C   UNL     1       2.336   2.678  19.288  0.00  0.00    +0.000 A 
ATOM     27  C   UNL     1       3.062   3.495  20.123  0.00  0.00    +0.000 A 
ATOM     28  C   UNL     1       4.188   4.161  19.691  0.00  0.00    +0.000 A 
ATOM     29  O   UNL     1       2.539   3.555  21.376  0.00  0.00    +0.000 OA
ATOM     30  C   UNL     1       1.385   2.701  21.230  0.00  0.00    +0.000 C 
ATOM     31  O   UNL     1       1.265   2.121  19.913  0.00  0.00    +0.000 OA
ENDBRANCH  21  23
ENDBRANCH  20  21
ENDBRANCH  19  20
ENDBRANCH  18  19
ENDBRANCH  17  18
ENDBRANCH   1  17
TORSDOF 10
ENDMDL
MODEL 6
REMARK VINA RESULT:      -6.9      2.916      4.179
REMARK  Name = 
REMARK  12 active torsions:
REMARK  status: ('A' for Active; 'I' for Inactive)
REMARK    1  A    between atoms: C_1  and  C_2
REMARK    2  A    between atoms: C_2  and  N_3
REMARK    3  A    between atoms: N_3  and  C_4
REMARK    4  A    between atoms: N_3  and  C_20
REMARK    5  A    between atoms: C_4  and  C_5
REMARK    6  A    between atoms: C_5  and  C_6
REMARK    7  A    between atoms: C_6  and  C_7
REMARK    8  A    between atoms: C_7  and  O_8
REMARK    9  A    between atoms: O_8  and  C_9
REMARK   10  A    between atoms: C_9  and  C_11
REMARK   11  A    between atoms: C_25  and  O_26
REMARK   12  A    between atoms: O_26  and  C_27
REMARK                            x       y       z     vdW  Elec       q    Type
REMARK                         _______ _______ _______ _____ _____    ______ ____
ROOT
ATOM      1  C   UNL     1       1.482   8.053  18.442  0.00  0.00    +0.000 C 
ENDROOT
BRANCH   1   2
ATOM      2  N   UNL     1       1.449   9.252  19.301  0.00  0.00    +0.000 NA
BRANCH   2   3
ATOM      3  C   UNL     1       0.397  10.240  18.895  0.00  0.00    +0.000 C 
ATOM      4  C   UNL     1      -0.537  10.636  20.062  0.00  0.00    +0.000 C 
ATOM      5  C   UNL     1      -1.587  11.663  19.640  0.00  0.00    +0.000 C 
ATOM      6  C   UNL     1      -2.354  11.248  18.422  0.00  0.00    +0.000 A 
ATOM      7  C   UNL     1      -3.622  11.799  18.174  0.00  0.00    +0.000 A 
ATOM      8  C   UNL     1      -4.359  11.446  17.041  0.00  0.00    +0.000 A 
ATOM      9  C   UNL     1      -3.809  10.550  16.129  0.00  0.00    +0.000 A 
ATOM     10  C   UNL     1      -2.543  10.008  16.358  0.00  0.00    +0.000 A 
ATOM     11  C   UNL     1      -1.805  10.351  17.500  0.00  0.00    +0.000 A 
ATOM     12  C   UNL     1      -0.478   9.674  17.741  0.00  0.00    +0.000 C 
BRANCH   8  13
ATOM     13  O   UNL     1      -5.591  12.036  16.944  0.00  0.00    +0.000 OA
ATOM     14  C   UNL     1      -6.547  11.682  17.935  0.00  0.00    +0.000 C 
ENDBRANCH   8  13
ENDBRANCH   2   3
BRANCH   2  16
ATOM     15  C   UNL     1       0.808   7.591  21.135  0.00  0.00    +0.000 C 
ATOM     16  C   UNL     1       1.434   8.925  20.741  0.00  0.00    +0.000 C 
ENDBRANCH   2  16
ENDBRANCH   1   2
BRANCH   1  17
ATOM     17  C   UNL     1       2.882   7.460  18.217  0.00  0.00    +0.000 C 
BRANCH  17  18
ATOM     18  C   UNL     1       3.017   6.106  18.916  0.00  0.00    +0.000 C 
BRANCH  18  19
ATOM     19  C   UNL     1       2.088   5.067  18.296  0.00  0.00    +0.000 C 
BRANCH  19  20
ATOM     20  O   UNL     1       2.816   3.864  18.008  0.00  0.00    +0.000 OA
BRANCH  20  21
ATOM     21  C   UNL     1       4.046   3.783  18.575  0.00  0.00    +0.000 C 
ATOM     22  O   UNL     1       4.288   3.397  19.708  0.00  0.00    +0.000 OA
BRANCH  21  23
ATOM     23  C   UNL     1       5.096   4.217  17.617  0.00  0.00    +0.000 A 
ATOM     24  C   UNL     1       6.265   4.896  18.030  0.00  0.00    +0.000 A 
ATOM     25  C   UNL     1       7.231   5.288  17.097  0.00  0.00    +0.000 A 
ATOM     26  C   UNL     1       6.998   4.991  15.772  0.00  0.00    +0.000 A 
ATOM     27  C   UNL     1       5.862   4.330  15.365  0.00  0.00    +0.000 A 
ATOM     28  C   UNL     1       4.894   3.928  16.259  0.00  0.00    +0.000 A 
ATOM     29  O   UNL     1       5.826   4.138  14.020  0.00  0.00    +0.000 OA
ATOM     30  C   UNL     1       7.057   4.776  13.621  0.00  0.00    +0.000 C 
ATOM     31  O   UNL     1       7.818   5.296  14.732  0.00  0.00    +0.000 OA
ENDBRANCH  21  23
ENDBRANCH  20  21
ENDBRANCH  19  20
ENDBRANCH  18  19
ENDBRANCH  17  18
ENDBRANCH   1  17
TORSDOF 10
ENDMDL
MODEL 7
REMARK VINA RESULT:      -6.9      2.566      4.784
REMARK  Name = 
REMARK  12 active torsions:
REMARK  status: ('A' for Active; 'I' for Inactive)
REMARK    1  A    between atoms: C_1  and  C_2
REMARK    2  A    between atoms: C_2  and  N_3
REMARK    3  A    between atoms: N_3  and  C_4
REMARK    4  A    between atoms: N_3  and  C_20
REMARK    5  A    between atoms: C_4  and  C_5
REMARK    6  A    between atoms: C_5  and  C_6
REMARK    7  A    between atoms: C_6  and  C_7
REMARK    8  A    between atoms: C_7  and  O_8
REMARK    9  A    between atoms: O_8  and  C_9
REMARK   10  A    between atoms: C_9  and  C_11
REMARK   11  A    between atoms: C_25  and  O_26
REMARK   12  A    between atoms: O_26  and  C_27
REMARK                            x       y       z     vdW  Elec       q    Type
REMARK                         _______ _______ _______ _____ _____    ______ ____
ROOT
ATOM      1  C   UNL     1       1.961   8.177  18.109  0.00  0.00    +0.000 C 
ENDROOT
BRANCH   1   2
ATOM      2  N   UNL     1       1.682   9.046  19.269  0.00  0.00    +0.000 NA
BRANCH   2   3
ATOM      3  C   UNL     1       0.631  10.080  18.993  0.00  0.00    +0.000 C 
ATOM      4  C   UNL     1      -0.236  10.400  20.234  0.00  0.00    +0.000 C 
ATOM      5  C   UNL     1      -1.284  11.473  19.944  0.00  0.00    +0.000 C 
ATOM      6  C   UNL     1      -2.118  11.166  18.739  0.00  0.00    +0.000 A 
ATOM      7  C   UNL     1      -3.386  11.755  18.599  0.00  0.00    +0.000 A 
ATOM      8  C   UNL     1      -4.185  11.503  17.481  0.00  0.00    +0.000 A 
ATOM      9  C   UNL     1      -3.699  10.671  16.477  0.00  0.00    +0.000 A 
ATOM     10  C   UNL     1      -2.434  10.091  16.599  0.00  0.00    +0.000 A 
ATOM     11  C   UNL     1      -1.634  10.334  17.725  0.00  0.00    +0.000 A 
ATOM     12  C   UNL     1      -0.311   9.618  17.846  0.00  0.00    +0.000 C 
BRANCH   8  13
ATOM     13  O   UNL     1      -5.408  12.119  17.492  0.00  0.00    +0.000 OA
ATOM     14  C   UNL     1      -6.499  11.360  17.998  0.00  0.00    +0.000 C 
ENDBRANCH   8  13
ENDBRANCH   2   3
BRANCH   2  16
ATOM     15  C   UNL     1       1.829   6.806  20.492  0.00  0.00    +0.000 C 
ATOM     16  C   UNL     1       1.455   8.285  20.515  0.00  0.00    +0.000 C 
ENDBRANCH   2  16
ENDBRANCH   1   2
BRANCH   1  17
ATOM     17  C   UNL     1       3.385   8.293  17.544  0.00  0.00    +0.000 C 
BRANCH  17  18
ATOM     18  C   UNL     1       3.986   6.908  17.300  0.00  0.00    +0.000 C 
BRANCH  18  19
ATOM     19  C   UNL     1       5.454   7.004  16.898  0.00  0.00    +0.000 C 
BRANCH  19  20
ATOM     20  O   UNL     1       5.828   5.860  16.115  0.00  0.00    +0.000 OA
BRANCH  20  21
ATOM     21  C   UNL     1       6.369   4.833  16.817  0.00  0.00    +0.000 C 
ATOM     22  O   UNL     1       7.539   4.483  16.786  0.00  0.00    +0.000 OA
BRANCH  21  23
ATOM     23  C   UNL     1       5.341   4.177  17.667  0.00  0.00    +0.000 A 
ATOM     24  C   UNL     1       5.449   4.116  19.075  0.00  0.00    +0.000 A 
ATOM     25  C   UNL     1       4.460   3.489  19.840  0.00  0.00    +0.000 A 
ATOM     26  C   UNL     1       3.388   2.939  19.172  0.00  0.00    +0.000 A 
ATOM     27  C   UNL     1       3.278   2.996  17.802  0.00  0.00    +0.000 A 
ATOM     28  C   UNL     1       4.234   3.608  17.021  0.00  0.00    +0.000 A 
ATOM     29  O   UNL     1       2.150   2.392  17.345  0.00  0.00    +0.000 OA
ATOM     30  C   UNL     1       1.572   1.924  18.581  0.00  0.00    +0.000 C 
ATOM     31  O   UNL     1       2.340   2.291  19.747  0.00  0.00    +0.000 OA
ENDBRANCH  21  23
ENDBRANCH  20  21
ENDBRANCH  19  20
ENDBRANCH  18  19
ENDBRANCH  17  18
ENDBRANCH   1  17
TORSDOF 10
ENDMDL
MODEL 8
REMARK VINA RESULT:      -6.9      3.010      9.654
REMARK  Name = 
REMARK  12 active torsions:
REMARK  status: ('A' for Active; 'I' for Inactive)
REMARK    1  A    between atoms: C_1  and  C_2
REMARK    2  A    between atoms: C_2  and  N_3
REMARK    3  A    between atoms: N_3  and  C_4
REMARK    4  A    between atoms: N_3  and  C_20
REMARK    5  A    between atoms: C_4  and  C_5
REMARK    6  A    between atoms: C_5  and  C_6
REMARK    7  A    between atoms: C_6  and  C_7
REMARK    8  A    between atoms: C_7  and  O_8
REMARK    9  A    between atoms: O_8  and  C_9
REMARK   10  A    between atoms: C_9  and  C_11
REMARK   11  A    between atoms: C_25  and  O_26
REMARK   12  A    between atoms: O_26  and  C_27
REMARK                            x       y       z     vdW  Elec       q    Type
REMARK                         _______ _______ _______ _____ _____    ______ ____
ROOT
ATOM      1  C   UNL     1       1.782   5.519  20.543  0.00  0.00    +0.000 C 
ENDROOT
BRANCH   1   2
ATOM      2  N   UNL     1       2.020   4.823  19.263  0.00  0.00    +0.000 NA
BRANCH   2   3
ATOM      3  C   UNL     1       3.405   5.032  18.727  0.00  0.00    +0.000 C 
ATOM      4  C   UNL     1       3.650   6.483  18.248  0.00  0.00    +0.000 C 
ATOM      5  C   UNL     1       5.073   6.687  17.729  0.00  0.00    +0.000 C 
ATOM      6  C   UNL     1       5.468   5.680  16.694  0.00  0.00    +0.000 A 
ATOM      7  C   UNL     1       6.504   5.975  15.792  0.00  0.00    +0.000 A 
ATOM      8  C   UNL     1       6.909   5.054  14.823  0.00  0.00    +0.000 A 
ATOM      9  C   UNL     1       6.288   3.809  14.773  0.00  0.00    +0.000 A 
ATOM     10  C   UNL     1       5.267   3.499  15.675  0.00  0.00    +0.000 A 
ATOM     11  C   UNL     1       4.851   4.427  16.641  0.00  0.00    +0.000 A 
ATOM     12  C   UNL     1       3.689   4.072  17.537  0.00  0.00    +0.000 C 
BRANCH   8  13
ATOM     13  O   UNL     1       7.907   5.488  13.992  0.00  0.00    +0.000 OA
ATOM     14  C   UNL     1       7.789   5.137  12.619  0.00  0.00    +0.000 C 
ENDBRANCH   8  13
ENDBRANCH   2   3
BRANCH   2  16
ATOM     15  C   UNL     1       1.526   2.744  20.666  0.00  0.00    +0.000 C 
ATOM     16  C   UNL     1       1.602   3.407  19.294  0.00  0.00    +0.000 C 
ENDBRANCH   2  16
ENDBRANCH   1   2
BRANCH   1  17
ATOM     17  C   UNL     1       0.996   6.835  20.424  0.00  0.00    +0.000 C 
BRANCH  17  18
ATOM     18  C   UNL     1       1.633   7.927  21.285  0.00  0.00    +0.000 C 
BRANCH  18  19
ATOM     19  C   UNL     1       0.921   9.263  21.101  0.00  0.00    +0.000 C 
BRANCH  19  20
ATOM     20  O   UNL     1       0.220   9.281  19.848  0.00  0.00    +0.000 OA
BRANCH  20  21
ATOM     21  C   UNL     1       0.082  10.506  19.282  0.00  0.00    +0.000 C 
ATOM     22  O   UNL     1       0.898  11.414  19.331  0.00  0.00    +0.000 OA
BRANCH  21  23
ATOM     23  C   UNL     1      -1.211  10.608  18.557  0.00  0.00    +0.000 A 
ATOM     24  C   UNL     1      -1.474   9.887  17.369  0.00  0.00    +0.000 A 
ATOM     25  C   UNL     1      -2.705  10.011  16.717  0.00  0.00    +0.000 A 
ATOM     26  C   UNL     1      -3.641  10.855  17.271  0.00  0.00    +0.000 A 
ATOM     27  C   UNL     1      -3.391  11.558  18.427  0.00  0.00    +0.000 A 
ATOM     28  C   UNL     1      -2.190  11.456  19.095  0.00  0.00    +0.000 A 
ATOM     29  O   UNL     1      -4.442  12.334  18.802  0.00  0.00    +0.000 OA
ATOM     30  C   UNL     1      -5.376  12.059  17.737  0.00  0.00    +0.000 C 
ATOM     31  O   UNL     1      -4.883  11.101  16.776  0.00  0.00    +0.000 OA
ENDBRANCH  21  23
ENDBRANCH  20  21
ENDBRANCH  19  20
ENDBRANCH  18  19
ENDBRANCH  17  18
ENDBRANCH   1  17
TORSDOF 10
ENDMDL
MODEL 9
REMARK VINA RESULT:      -6.8      3.078      9.445
REMARK  Name = 
REMARK  12 active torsions:
REMARK  status: ('A' for Active; 'I' for Inactive)
REMARK    1  A    between atoms: C_1  and  C_2
REMARK    2  A    between atoms: C_2  and  N_3
REMARK    3  A    between atoms: N_3  and  C_4
REMARK    4  A    between atoms: N_3  and  C_20
REMARK    5  A    between atoms: C_4  and  C_5
REMARK    6  A    between atoms: C_5  and  C_6
REMARK    7  A    between atoms: C_6  and  C_7
REMARK    8  A    between atoms: C_7  and  O_8
REMARK    9  A    between atoms: O_8  and  C_9
REMARK   10  A    between atoms: C_9  and  C_11
REMARK   11  A    between atoms: C_25  and  O_26
REMARK   12  A    between atoms: O_26  and  C_27
REMARK                            x       y       z     vdW  Elec       q    Type
REMARK                         _______ _______ _______ _____ _____    ______ ____
ROOT
ATOM      1  C   UNL     1       2.020   4.849  19.438  0.00  0.00    +0.000 C 
ENDROOT
BRANCH   1   2
ATOM      2  N   UNL     1       2.638   3.522  19.250  0.00  0.00    +0.000 NA
BRANCH   2   3
ATOM      3  C   UNL     1       3.986   3.587  18.597  0.00  0.00    +0.000 C 
ATOM      4  C   UNL     1       4.791   4.843  19.005  0.00  0.00    +0.000 C 
ATOM      5  C   UNL     1       6.172   4.882  18.353  0.00  0.00    +0.000 C 
ATOM      6  C   UNL     1       6.122   4.704  16.867  0.00  0.00    +0.000 A 
ATOM      7  C   UNL     1       7.184   5.170  16.072  0.00  0.00    +0.000 A 
ATOM      8  C   UNL     1       7.177   5.008  14.684  0.00  0.00    +0.000 A 
ATOM      9  C   UNL     1       6.108   4.348  14.085  0.00  0.00    +0.000 A 
ATOM     10  C   UNL     1       5.055   3.868  14.867  0.00  0.00    +0.000 A 
ATOM     11  C   UNL     1       5.053   4.039  16.259  0.00  0.00    +0.000 A 
ATOM     12  C   UNL     1       3.852   3.575  17.048  0.00  0.00    +0.000 C 
BRANCH   8  13
ATOM     13  O   UNL     1       8.260   5.537  14.034  0.00  0.00    +0.000 OA
ATOM     14  C   UNL     1       8.203   5.557  12.613  0.00  0.00    +0.000 C 
ENDBRANCH   8  13
ENDBRANCH   2   3
BRANCH   2  16
ATOM     15  C   UNL     1       2.199   3.401  21.766  0.00  0.00    +0.000 C 
ATOM     16  C   UNL     1       2.609   2.698  20.475  0.00  0.00    +0.000 C 
ENDBRANCH   2  16
ENDBRANCH   1   2
BRANCH   1  17
ATOM     17  C   UNL     1       1.570   5.540  18.141  0.00  0.00    +0.000 C 
BRANCH  17  18
ATOM     18  C   UNL     1       2.088   6.978  18.084  0.00  0.00    +0.000 C 
BRANCH  18  19
ATOM     19  C   UNL     1       2.206   7.581  19.479  0.00  0.00    +0.000 C 
BRANCH  19  20
ATOM     20  O   UNL     1       1.421   8.780  19.567  0.00  0.00    +0.000 OA
BRANCH  20  21
ATOM     21  C   UNL     1       1.238   9.436  18.395  0.00  0.00    +0.000 C 
ATOM     22  O   UNL     1       2.036   9.492  17.472  0.00  0.00    +0.000 OA
BRANCH  21  23
ATOM     23  C   UNL     1      -0.100  10.084  18.358  0.00  0.00    +0.000 A 
ATOM     24  C   UNL     1      -0.499  11.054  19.306  0.00  0.00    +0.000 A 
ATOM     25  C   UNL     1      -1.767  11.640  19.237  0.00  0.00    +0.000 A 
ATOM     26  C   UNL     1      -2.604  11.236  18.220  0.00  0.00    +0.000 A 
ATOM     27  C   UNL     1      -2.220  10.294  17.295  0.00  0.00    +0.000 A 
ATOM     28  C   UNL     1      -0.977   9.700  17.333  0.00  0.00    +0.000 A 
ATOM     29  O   UNL     1      -3.192  10.038  16.379  0.00  0.00    +0.000 OA
ATOM     30  C   UNL     1      -4.242  10.909  16.847  0.00  0.00    +0.000 C 
ATOM     31  O   UNL     1      -3.866  11.692  18.000  0.00  0.00    +0.000 OA
ENDBRANCH  21  23
ENDBRANCH  20  21
ENDBRANCH  19  20
ENDBRANCH  18  19
ENDBRANCH  17  18
ENDBRANCH   1  17
TORSDOF 10
ENDMDL
