MODEL 1
REMARK VINA RESULT:      -8.5      0.000      0.000
REMARK  Name = 
REMARK  6 active torsions:
REMARK  status: ('A' for Active; 'I' for Inactive)
REMARK    1  A    between atoms: C_4  and  O_5
REMARK    2  A    between atoms: O_5  and  C_6
REMARK    3  A    between atoms: C_6  and  C_7
REMARK    4  A    between atoms: C_7  and  C_8
REMARK    5  A    between atoms: C_8  and  N_9
REMARK    6  A    between atoms: N_12  and  C_13
REMARK                            x       y       z     vdW  Elec       q    Type
REMARK                         _______ _______ _______ _____ _____    ______ ____
ROOT
ATOM      1  C   UNL     1       8.119   7.821  18.166  0.00  0.00    +0.000 C 
ENDROOT
BRANCH   1   2
ATOM      2  C   UNL     1       8.271   9.340  18.094  0.00  0.00    +0.000 C 
BRANCH   2   3
ATOM      3  O   UNL     1       9.191   9.742  19.114  0.00  0.00    +0.000 OA
BRANCH   3   7
ATOM      4  O   UNL     1      11.754  13.064  16.839  0.00  0.00    +0.000 OA
ATOM      5  C   UNL     1      11.142  12.715  17.842  0.00  0.00    +0.000 A 
ATOM      6  C   UNL     1      10.500  11.393  17.903  0.00  0.00    +0.000 A 
ATOM      7  C   UNL     1       9.808  10.965  18.970  0.00  0.00    +0.000 A 
ATOM      8  C   UNL     1       9.677  11.860  20.126  0.00  0.00    +0.000 A 
ATOM      9  C   UNL     1       8.950  11.520  21.274  0.00  0.00    +0.000 A 
ATOM     10  C   UNL     1       8.868  12.414  22.352  0.00  0.00    +0.000 A 
ATOM     11  C   UNL     1       9.510  13.651  22.293  0.00  0.00    +0.000 A 
ATOM     12  C   UNL     1      10.233  14.002  21.156  0.00  0.00    +0.000 A 
ATOM     13  C   UNL     1      10.302  13.105  20.087  0.00  0.00    +0.000 A 
ATOM     14  O   UNL     1      11.036  13.523  18.962  0.00  0.00    +0.000 OA
ENDBRANCH   3   7
ENDBRANCH   2   3
ENDBRANCH   1   2
BRANCH   1  15
ATOM     15  C   UNL     1       7.259   7.251  17.036  0.00  0.00    +0.000 C 
BRANCH  15  16
ATOM     16  N   UNL     1       6.470   6.087  17.426  0.00  0.00    +0.000 NA
ATOM     17  C   UNL     1       5.138   6.104  16.782  0.00  0.00    +0.000 C 
ATOM     18  C   UNL     1       4.480   4.729  16.972  0.00  0.00    +0.000 C 
ATOM     19  N   UNL     1       4.287   4.494  18.408  0.00  0.00    +0.000 N 
ATOM     20  C   UNL     1       5.510   4.584  19.218  0.00  0.00    +0.000 C 
ATOM     21  C   UNL     1       6.271   5.908  18.888  0.00  0.00    +0.000 C 
BRANCH  19  22
ATOM     22  C   UNL     1       3.071   4.068  18.891  0.00  0.00    +0.000 A 
ATOM     23  C   UNL     1       2.535   4.524  20.101  0.00  0.00    +0.000 A 
ATOM     24  C   UNL     1       1.306   4.048  20.579  0.00  0.00    +0.000 A 
ATOM     25  C   UNL     1       0.582   3.114  19.844  0.00  0.00    +0.000 A 
ATOM     26  C   UNL     1       1.079   2.666  18.628  0.00  0.00    +0.000 A 
ATOM     27  C   UNL     1       2.305   3.143  18.162  0.00  0.00    +0.000 A 
ENDBRANCH  19  22
ENDBRANCH  15  16
ENDBRANCH   1  15
TORSDOF 6
ENDMDL
MODEL 2
REMARK VINA RESULT:      -7.9      7.056     10.288
REMARK  Name = 
REMARK  6 active torsions:
REMARK  status: ('A' for Active; 'I' for Inactive)
REMARK    1  A    between atoms: C_4  and  O_5
REMARK    2  A    between atoms: O_5  and  C_6
REMARK    3  A    between atoms: C_6  and  C_7
REMARK    4  A    between atoms: C_7  and  C_8
REMARK    5  A    between atoms: C_8  and  N_9
REMARK    6  A    between atoms: N_12  and  C_13
REMARK                            x       y       z     vdW  Elec       q    Type
REMARK                         _______ _______ _______ _____ _____    ______ ____
ROOT
ATOM      1  C   UNL     1       1.307   8.714  17.859  0.00  0.00    +0.000 C 
ENDROOT
BRANCH   1   2
ATOM      2  C   UNL     1       2.777   8.301  17.815  0.00  0.00    +0.000 C 
BRANCH   2   3
ATOM      3  O   UNL     1       2.967   7.234  18.749  0.00  0.00    +0.000 OA
BRANCH   3   7
ATOM      4  O   UNL     1       5.231   4.163  15.883  0.00  0.00    +0.000 OA
ATOM      5  C   UNL     1       4.413   4.359  16.776  0.00  0.00    +0.000 A 
ATOM      6  C   UNL     1       4.152   5.721  17.263  0.00  0.00    +0.000 A 
ATOM      7  C   UNL     1       3.279   5.991  18.245  0.00  0.00    +0.000 A 
ATOM      8  C   UNL     1       2.556   4.875  18.867  0.00  0.00    +0.000 A 
ATOM      9  C   UNL     1       1.648   5.049  19.919  0.00  0.00    +0.000 A 
ATOM     10  C   UNL     1       0.980   3.944  20.468  0.00  0.00    +0.000 A 
ATOM     11  C   UNL     1       1.213   2.661  19.973  0.00  0.00    +0.000 A 
ATOM     12  C   UNL     1       2.116   2.476  18.930  0.00  0.00    +0.000 A 
ATOM     13  C   UNL     1       2.779   3.583  18.396  0.00  0.00    +0.000 A 
ATOM     14  O   UNL     1       3.689   3.329  17.354  0.00  0.00    +0.000 OA
ENDBRANCH   3   7
ENDBRANCH   2   3
ENDBRANCH   1   2
BRANCH   1  15
ATOM     15  C   UNL     1       1.012   9.765  18.932  0.00  0.00    +0.000 C 
BRANCH  15  16
ATOM     16  N   UNL     1      -0.141  10.607  18.630  0.00  0.00    +0.000 NA
ATOM     17  C   UNL     1      -0.893  10.944  19.858  0.00  0.00    +0.000 C 
ATOM     18  C   UNL     1      -1.891  12.065  19.534  0.00  0.00    +0.000 C 
ATOM     19  N   UNL     1      -2.848  11.570  18.537  0.00  0.00    +0.000 N 
ATOM     20  C   UNL     1      -2.242  11.062  17.299  0.00  0.00    +0.000 C 
ATOM     21  C   UNL     1      -1.101  10.051  17.642  0.00  0.00    +0.000 C 
BRANCH  19  22
ATOM     22  C   UNL     1      -4.202  11.736  18.722  0.00  0.00    +0.000 A 
ATOM     23  C   UNL     1      -4.735  12.528  19.747  0.00  0.00    +0.000 A 
ATOM     24  C   UNL     1      -6.119  12.652  19.926  0.00  0.00    +0.000 A 
ATOM     25  C   UNL     1      -6.999  11.996  19.071  0.00  0.00    +0.000 A 
ATOM     26  C   UNL     1      -6.496  11.227  18.030  0.00  0.00    +0.000 A 
ATOM     27  C   UNL     1      -5.116  11.106  17.862  0.00  0.00    +0.000 A 
ENDBRANCH  19  22
ENDBRANCH  15  16
ENDBRANCH   1  15
TORSDOF 6
ENDMDL
MODEL 3
REMARK VINA RESULT:      -7.9      1.372      2.749
REMARK  Name = 
REMARK  6 active torsions:
REMARK  status: ('A' for Active; 'I' for Inactive)
REMARK    1  A    between atoms: C_4  and  O_5
REMARK    2  A    between atoms: O_5  and  C_6
REMARK    3  A    between atoms: C_6  and  C_7
REMARK    4  A    between atoms: C_7  and  C_8
REMARK    5  A    between atoms: C_8  and  N_9
REMARK    6  A    between atoms: N_12  and  C_13
REMARK                            x       y       z     vdW  Elec       q    Type
REMARK                         _______ _______ _______ _____ _____    ______ ____
ROOT
ATOM      1  C   UNL     1       8.359   8.145  18.140  0.00  0.00    +0.000 C 
ENDROOT
BRANCH   1   2
ATOM      2  C   UNL     1       8.187   9.663  18.133  0.00  0.00    +0.000 C 
BRANCH   2   3
ATOM      3  O   UNL     1       9.488  10.257  18.134  0.00  0.00    +0.000 OA
BRANCH   3   7
ATOM      4  O   UNL     1       9.197  12.190  22.488  0.00  0.00    +0.000 OA
ATOM      5  C   UNL     1       9.637  12.240  21.345  0.00  0.00    +0.000 A 
ATOM      6  C   UNL     1       9.301  11.191  20.370  0.00  0.00    +0.000 A 
ATOM      7  C   UNL     1       9.764  11.189  19.111  0.00  0.00    +0.000 A 
ATOM      8  C   UNL     1      10.653  12.278  18.688  0.00  0.00    +0.000 A 
ATOM      9  C   UNL     1      11.214  12.350  17.407  0.00  0.00    +0.000 A 
ATOM     10  C   UNL     1      12.050  13.420  17.058  0.00  0.00    +0.000 A 
ATOM     11  C   UNL     1      12.333  14.425  17.983  0.00  0.00    +0.000 A 
ATOM     12  C   UNL     1      11.785  14.363  19.262  0.00  0.00    +0.000 A 
ATOM     13  C   UNL     1      10.958  13.288  19.598  0.00  0.00    +0.000 A 
ATOM     14  O   UNL     1      10.446  13.275  20.908  0.00  0.00    +0.000 OA
ENDBRANCH   3   7
ENDBRANCH   2   3
ENDBRANCH   1   2
BRANCH   1  15
ATOM     15  C   UNL     1       7.392   7.428  17.195  0.00  0.00    +0.000 C 
BRANCH  15  16
ATOM     16  N   UNL     1       6.185   6.936  17.850  0.00  0.00    +0.000 NA
ATOM     17  C   UNL     1       6.381   5.566  18.374  0.00  0.00    +0.000 C 
ATOM     18  C   UNL     1       5.212   5.222  19.309  0.00  0.00    +0.000 C 
ATOM     19  N   UNL     1       3.967   5.237  18.532  0.00  0.00    +0.000 N 
ATOM     20  C   UNL     1       3.695   6.497  17.826  0.00  0.00    +0.000 C 
ATOM     21  C   UNL     1       4.956   6.936  17.015  0.00  0.00    +0.000 C 
BRANCH  19  22
ATOM     22  C   UNL     1       3.077   4.191  18.615  0.00  0.00    +0.000 A 
ATOM     23  C   UNL     1       1.760   4.351  19.064  0.00  0.00    +0.000 A 
ATOM     24  C   UNL     1       0.888   3.259  19.165  0.00  0.00    +0.000 A 
ATOM     25  C   UNL     1       1.313   1.985  18.802  0.00  0.00    +0.000 A 
ATOM     26  C   UNL     1       2.606   1.804  18.328  0.00  0.00    +0.000 A 
ATOM     27  C   UNL     1       3.468   2.897  18.235  0.00  0.00    +0.000 A 
ENDBRANCH  19  22
ENDBRANCH  15  16
ENDBRANCH   1  15
TORSDOF 6
ENDMDL
MODEL 4
REMARK VINA RESULT:      -7.9      6.675     10.171
REMARK  Name = 
REMARK  6 active torsions:
REMARK  status: ('A' for Active; 'I' for Inactive)
REMARK    1  A    between atoms: C_4  and  O_5
REMARK    2  A    between atoms: O_5  and  C_6
REMARK    3  A    between atoms: C_6  and  C_7
REMARK    4  A    between atoms: C_7  and  C_8
REMARK    5  A    between atoms: C_8  and  N_9
REMARK    6  A    between atoms: N_12  and  C_13
REMARK                            x       y       z     vdW  Elec       q    Type
REMARK                         _______ _______ _______ _____ _____    ______ ____
ROOT
ATOM      1  C   UNL     1       2.163   9.049  18.175  0.00  0.00    +0.000 C 
ENDROOT
BRANCH   1   2
ATOM      2  C   UNL     1       2.235   7.710  18.908  0.00  0.00    +0.000 C 
BRANCH   2   3
ATOM      3  O   UNL     1       2.665   6.715  17.973  0.00  0.00    +0.000 OA
BRANCH   3   7
ATOM      4  O   UNL     1       6.912   5.076  19.406  0.00  0.00    +0.000 OA
ATOM      5  C   UNL     1       5.731   4.857  19.156  0.00  0.00    +0.000 A 
ATOM      6  C   UNL     1       4.852   5.942  18.696  0.00  0.00    +0.000 A 
ATOM      7  C   UNL     1       3.552   5.760  18.419  0.00  0.00    +0.000 A 
ATOM      8  C   UNL     1       2.978   4.420  18.591  0.00  0.00    +0.000 A 
ATOM      9  C   UNL     1       1.627   4.135  18.358  0.00  0.00    +0.000 A 
ATOM     10  C   UNL     1       1.138   2.831  18.531  0.00  0.00    +0.000 A 
ATOM     11  C   UNL     1       1.992   1.805  18.934  0.00  0.00    +0.000 A 
ATOM     12  C   UNL     1       3.336   2.077  19.172  0.00  0.00    +0.000 A 
ATOM     13  C   UNL     1       3.809   3.381  19.003  0.00  0.00    +0.000 A 
ATOM     14  O   UNL     1       5.174   3.594  19.271  0.00  0.00    +0.000 OA
ENDBRANCH   3   7
ENDBRANCH   2   3
ENDBRANCH   1   2
BRANCH   1  15
ATOM     15  C   UNL     1       0.810   9.746  18.332  0.00  0.00    +0.000 C 
BRANCH  15  16
ATOM     16  N   UNL     1       0.698  10.548  19.546  0.00  0.00    +0.000 NA
ATOM     17  C   UNL     1      -0.232   9.927  20.514  0.00  0.00    +0.000 C 
ATOM     18  C   UNL     1      -0.076  10.630  21.871  0.00  0.00    +0.000 C 
ATOM     19  N   UNL     1      -0.455  12.040  21.717  0.00  0.00    +0.000 N 
ATOM     20  C   UNL     1       0.289  12.770  20.682  0.00  0.00    +0.000 C 
ATOM     21  C   UNL     1       0.278  11.959  19.346  0.00  0.00    +0.000 C 
BRANCH  19  22
ATOM     22  C   UNL     1      -1.329  12.630  22.601  0.00  0.00    +0.000 A 
ATOM     23  C   UNL     1      -2.568  12.067  22.931  0.00  0.00    +0.000 A 
ATOM     24  C   UNL     1      -3.448  12.710  23.813  0.00  0.00    +0.000 A 
ATOM     25  C   UNL     1      -3.097  13.925  24.393  0.00  0.00    +0.000 A 
ATOM     26  C   UNL     1      -1.863  14.491  24.103  0.00  0.00    +0.000 A 
ATOM     27  C   UNL     1      -0.995  13.845  23.221  0.00  0.00    +0.000 A 
ENDBRANCH  19  22
ENDBRANCH  15  16
ENDBRANCH   1  15
TORSDOF 6
ENDMDL
MODEL 5
REMARK VINA RESULT:      -7.8      5.390      8.315
REMARK  Name = 
REMARK  6 active torsions:
REMARK  status: ('A' for Active; 'I' for Inactive)
REMARK    1  A    between atoms: C_4  and  O_5
REMARK    2  A    between atoms: O_5  and  C_6
REMARK    3  A    between atoms: C_6  and  C_7
REMARK    4  A    between atoms: C_7  and  C_8
REMARK    5  A    between atoms: C_8  and  N_9
REMARK    6  A    between atoms: N_12  and  C_13
REMARK                            x       y       z     vdW  Elec       q    Type
REMARK                         _______ _______ _______ _____ _____    ______ ____
ROOT
ATOM      1  C   UNL     1       2.513   3.237  17.905  0.00  0.00    +0.000 C 
ENDROOT
BRANCH   1   2
ATOM      2  C   UNL     1       3.977   3.060  17.504  0.00  0.00    +0.000 C 
BRANCH   2   3
ATOM      3  O   UNL     1       4.175   3.719  16.249  0.00  0.00    +0.000 OA
BRANCH   3   7
ATOM      4  O   UNL     1       7.647   6.684  17.639  0.00  0.00    +0.000 OA
ATOM      5  C   UNL     1       7.140   6.001  16.755  0.00  0.00    +0.000 A 
ATOM      6  C   UNL     1       5.916   5.231  17.017  0.00  0.00    +0.000 A 
ATOM      7  C   UNL     1       5.326   4.459  16.091  0.00  0.00    +0.000 A 
ATOM      8  C   UNL     1       5.936   4.371  14.759  0.00  0.00    +0.000 A 
ATOM      9  C   UNL     1       5.417   3.570  13.735  0.00  0.00    +0.000 A 
ATOM     10  C   UNL     1       6.039   3.534  12.478  0.00  0.00    +0.000 A 
ATOM     11  C   UNL     1       7.181   4.296  12.234  0.00  0.00    +0.000 A 
ATOM     12  C   UNL     1       7.709   5.095  13.246  0.00  0.00    +0.000 A 
ATOM     13  C   UNL     1       7.084   5.116  14.495  0.00  0.00    +0.000 A 
ATOM     14  O   UNL     1       7.672   5.931  15.478  0.00  0.00    +0.000 OA
ENDBRANCH   3   7
ENDBRANCH   2   3
ENDBRANCH   1   2
BRANCH   1  15
ATOM     15  C   UNL     1       2.342   3.763  19.332  0.00  0.00    +0.000 C 
BRANCH  15  16
ATOM     16  N   UNL     1       2.480   5.211  19.446  0.00  0.00    +0.000 NA
ATOM     17  C   UNL     1       1.595   5.751  20.502  0.00  0.00    +0.000 C 
ATOM     18  C   UNL     1       2.000   7.204  20.791  0.00  0.00    +0.000 C 
ATOM     19  N   UNL     1       1.796   8.001  19.575  0.00  0.00    +0.000 N 
ATOM     20  C   UNL     1       2.505   7.507  18.386  0.00  0.00    +0.000 C 
ATOM     21  C   UNL     1       2.230   5.980  18.200  0.00  0.00    +0.000 C 
BRANCH  19  22
ATOM     22  C   UNL     1       1.117   9.197  19.627  0.00  0.00    +0.000 A 
ATOM     23  C   UNL     1       1.242  10.182  18.640  0.00  0.00    +0.000 A 
ATOM     24  C   UNL     1       0.558  11.401  18.738  0.00  0.00    +0.000 A 
ATOM     25  C   UNL     1      -0.277  11.653  19.823  0.00  0.00    +0.000 A 
ATOM     26  C   UNL     1      -0.438  10.682  20.802  0.00  0.00    +0.000 A 
ATOM     27  C   UNL     1       0.249   9.472  20.697  0.00  0.00    +0.000 A 
ENDBRANCH  19  22
ENDBRANCH  15  16
ENDBRANCH   1  15
TORSDOF 6
ENDMDL
MODEL 6
REMARK VINA RESULT:      -7.8      6.698     10.110
REMARK  Name = 
REMARK  6 active torsions:
REMARK  status: ('A' for Active; 'I' for Inactive)
REMARK    1  A    between atoms: C_4  and  O_5
REMARK    2  A    between atoms: O_5  and  C_6
REMARK    3  A    between atoms: C_6  and  C_7
REMARK    4  A    between atoms: C_7  and  C_8
REMARK    5  A    between atoms: C_8  and  N_9
REMARK    6  A    between atoms: N_12  and  C_13
REMARK                            x       y       z     vdW  Elec       q    Type
REMARK                         _______ _______ _______ _____ _____    ______ ____
ROOT
ATOM      1  C   UNL     1       2.048   9.108  18.049  0.00  0.00    +0.000 C 
ENDROOT
BRANCH   1   2
ATOM      2  C   UNL     1       2.315   7.829  18.841  0.00  0.00    +0.000 C 
BRANCH   2   3
ATOM      3  O   UNL     1       2.718   6.812  17.919  0.00  0.00    +0.000 OA
BRANCH   3   7
ATOM      4  O   UNL     1       6.930   5.109  19.381  0.00  0.00    +0.000 OA
ATOM      5  C   UNL     1       5.747   4.908  19.127  0.00  0.00    +0.000 A 
ATOM      6  C   UNL     1       4.888   6.005  18.657  0.00  0.00    +0.000 A 
ATOM      7  C   UNL     1       3.587   5.845  18.376  0.00  0.00    +0.000 A 
ATOM      8  C   UNL     1       2.989   4.516  18.553  0.00  0.00    +0.000 A 
ATOM      9  C   UNL     1       1.634   4.253  18.317  0.00  0.00    +0.000 A 
ATOM     10  C   UNL     1       1.122   2.959  18.496  0.00  0.00    +0.000 A 
ATOM     11  C   UNL     1       1.956   1.921  18.910  0.00  0.00    +0.000 A 
ATOM     12  C   UNL     1       3.304   2.171  19.151  0.00  0.00    +0.000 A 
ATOM     13  C   UNL     1       3.800   3.465  18.976  0.00  0.00    +0.000 A 
ATOM     14  O   UNL     1       5.167   3.657  19.248  0.00  0.00    +0.000 OA
ENDBRANCH   3   7
ENDBRANCH   2   3
ENDBRANCH   1   2
BRANCH   1  15
ATOM     15  C   UNL     1       0.561   9.457  17.954  0.00  0.00    +0.000 C 
BRANCH  15  16
ATOM     16  N   UNL     1       0.135  10.480  18.903  0.00  0.00    +0.000 NA
ATOM     17  C   UNL     1      -0.286   9.877  20.187  0.00  0.00    +0.000 C 
ATOM     18  C   UNL     1      -0.423  10.991  21.235  0.00  0.00    +0.000 C 
ATOM     19  N   UNL     1      -1.476  11.918  20.802  0.00  0.00    +0.000 N 
ATOM     20  C   UNL     1      -1.274  12.502  19.469  0.00  0.00    +0.000 C 
ATOM     21  C   UNL     1      -0.957  11.373  18.436  0.00  0.00    +0.000 C 
BRANCH  19  22
ATOM     22  C   UNL     1      -2.470  12.304  21.672  0.00  0.00    +0.000 A 
ATOM     23  C   UNL     1      -2.417  12.043  23.047  0.00  0.00    +0.000 A 
ATOM     24  C   UNL     1      -3.461  12.425  23.900  0.00  0.00    +0.000 A 
ATOM     25  C   UNL     1      -4.574  13.088  23.395  0.00  0.00    +0.000 A 
ATOM     26  C   UNL     1      -4.639  13.382  22.039  0.00  0.00    +0.000 A 
ATOM     27  C   UNL     1      -3.596  12.996  21.196  0.00  0.00    +0.000 A 
ENDBRANCH  19  22
ENDBRANCH  15  16
ENDBRANCH   1  15
TORSDOF 6
ENDMDL
MODEL 7
REMARK VINA RESULT:      -7.7      6.625     10.066
REMARK  Name = 
REMARK  6 active torsions:
REMARK  status: ('A' for Active; 'I' for Inactive)
REMARK    1  A    between atoms: C_4  and  O_5
REMARK    2  A    between atoms: O_5  and  C_6
REMARK    3  A    between atoms: C_6  and  C_7
REMARK    4  A    between atoms: C_7  and  C_8
REMARK    5  A    between atoms: C_8  and  N_9
REMARK    6  A    between atoms: N_12  and  C_13
REMARK                            x       y       z     vdW  Elec       q    Type
REMARK                         _______ _______ _______ _____ _____    ______ ____
ROOT
ATOM      1  C   UNL     1       1.795   8.464  18.709  0.00  0.00    +0.000 C 
ENDROOT
BRANCH   1   2
ATOM      2  C   UNL     1       2.995   8.007  17.882  0.00  0.00    +0.000 C 
BRANCH   2   3
ATOM      3  O   UNL     1       2.808   6.629  17.551  0.00  0.00    +0.000 OA
BRANCH   3   7
ATOM      4  O   UNL     1       6.931   5.023  19.339  0.00  0.00    +0.000 OA
ATOM      5  C   UNL     1       5.749   4.822  19.082  0.00  0.00    +0.000 A 
ATOM      6  C   UNL     1       4.935   5.869  18.447  0.00  0.00    +0.000 A 
ATOM      7  C   UNL     1       3.635   5.708  18.155  0.00  0.00    +0.000 A 
ATOM      8  C   UNL     1       2.994   4.432  18.493  0.00  0.00    +0.000 A 
ATOM      9  C   UNL     1       1.637   4.176  18.259  0.00  0.00    +0.000 A 
ATOM     10  C   UNL     1       1.081   2.933  18.595  0.00  0.00    +0.000 A 
ATOM     11  C   UNL     1       1.874   1.937  19.166  0.00  0.00    +0.000 A 
ATOM     12  C   UNL     1       3.223   2.181  19.407  0.00  0.00    +0.000 A 
ATOM     13  C   UNL     1       3.763   3.425  19.074  0.00  0.00    +0.000 A 
ATOM     14  O   UNL     1       5.128   3.614  19.354  0.00  0.00    +0.000 OA
ENDBRANCH   3   7
ENDBRANCH   2   3
ENDBRANCH   1   2
BRANCH   1  15
ATOM     15  C   UNL     1       1.009   9.600  18.050  0.00  0.00    +0.000 C 
BRANCH  15  16
ATOM     16  N   UNL     1       0.517  10.600  18.991  0.00  0.00    +0.000 NA
ATOM     17  C   UNL     1       0.052   9.970  20.246  0.00  0.00    +0.000 C 
ATOM     18  C   UNL     1      -0.158  11.065  21.302  0.00  0.00    +0.000 C 
ATOM     19  N   UNL     1      -1.210  11.975  20.833  0.00  0.00    +0.000 N 
ATOM     20  C   UNL     1      -0.960  12.583  19.519  0.00  0.00    +0.000 C 
ATOM     21  C   UNL     1      -0.571  11.476  18.486  0.00  0.00    +0.000 C 
BRANCH  19  22
ATOM     22  C   UNL     1      -2.252  12.327  21.661  0.00  0.00    +0.000 A 
ATOM     23  C   UNL     1      -3.335  13.101  21.227  0.00  0.00    +0.000 A 
ATOM     24  C   UNL     1      -4.366  13.467  22.104  0.00  0.00    +0.000 A 
ATOM     25  C   UNL     1      -4.338  13.051  23.431  0.00  0.00    +0.000 A 
ATOM     26  C   UNL     1      -3.288  12.261  23.880  0.00  0.00    +0.000 A 
ATOM     27  C   UNL     1      -2.265  11.905  23.001  0.00  0.00    +0.000 A 
ENDBRANCH  19  22
ENDBRANCH  15  16
ENDBRANCH   1  15
TORSDOF 6
ENDMDL
MODEL 8
REMARK VINA RESULT:      -7.7      7.355     10.406
REMARK  Name = 
REMARK  6 active torsions:
REMARK  status: ('A' for Active; 'I' for Inactive)
REMARK    1  A    between atoms: C_4  and  O_5
REMARK    2  A    between atoms: O_5  and  C_6
REMARK    3  A    between atoms: C_6  and  C_7
REMARK    4  A    between atoms: C_7  and  C_8
REMARK    5  A    between atoms: C_8  and  N_9
REMARK    6  A    between atoms: N_12  and  C_13
REMARK                            x       y       z     vdW  Elec       q    Type
REMARK                         _______ _______ _______ _____ _____    ______ ____
ROOT
ATOM      1  C   UNL     1       0.966   9.573  20.539  0.00  0.00    +0.000 C 
ENDROOT
BRANCH   1   2
ATOM      2  C   UNL     1       1.110   8.069  20.767  0.00  0.00    +0.000 C 
BRANCH   2   3
ATOM      3  O   UNL     1       2.220   7.607  19.993  0.00  0.00    +0.000 OA
BRANCH   3   7
ATOM      4  O   UNL     1       1.396   2.997  20.912  0.00  0.00    +0.000 OA
ATOM      5  C   UNL     1       1.950   3.848  20.224  0.00  0.00    +0.000 A 
ATOM      6  C   UNL     1       1.762   5.278  20.511  0.00  0.00    +0.000 A 
ATOM      7  C   UNL     1       2.333   6.250  19.784  0.00  0.00    +0.000 A 
ATOM      8  C   UNL     1       3.178   5.870  18.645  0.00  0.00    +0.000 A 
ATOM      9  C   UNL     1       3.792   6.809  17.807  0.00  0.00    +0.000 A 
ATOM     10  C   UNL     1       4.596   6.385  16.738  0.00  0.00    +0.000 A 
ATOM     11  C   UNL     1       4.792   5.025  16.499  0.00  0.00    +0.000 A 
ATOM     12  C   UNL     1       4.183   4.083  17.323  0.00  0.00    +0.000 A 
ATOM     13  C   UNL     1       3.380   4.517  18.380  0.00  0.00    +0.000 A 
ATOM     14  O   UNL     1       2.782   3.517  19.168  0.00  0.00    +0.000 OA
ENDBRANCH   3   7
ENDBRANCH   2   3
ENDBRANCH   1   2
BRANCH   1  15
ATOM     15  C   UNL     1       0.870   9.949  19.058  0.00  0.00    +0.000 C 
BRANCH  15  16
ATOM     16  N   UNL     1      -0.304  10.750  18.729  0.00  0.00    +0.000 NA
ATOM     17  C   UNL     1      -1.042  11.143  19.949  0.00  0.00    +0.000 C 
ATOM     18  C   UNL     1      -2.068  12.224  19.579  0.00  0.00    +0.000 C 
ATOM     19  N   UNL     1      -3.031  11.654  18.629  0.00  0.00    +0.000 N 
ATOM     20  C   UNL     1      -2.436  11.087  17.411  0.00  0.00    +0.000 C 
ATOM     21  C   UNL     1      -1.268  10.120  17.791  0.00  0.00    +0.000 C 
BRANCH  19  22
ATOM     22  C   UNL     1      -4.385  11.804  18.828  0.00  0.00    +0.000 A 
ATOM     23  C   UNL     1      -4.918  12.435  19.959  0.00  0.00    +0.000 A 
ATOM     24  C   UNL     1      -6.303  12.546  20.145  0.00  0.00    +0.000 A 
ATOM     25  C   UNL     1      -7.182  12.038  19.193  0.00  0.00    +0.000 A 
ATOM     26  C   UNL     1      -6.678  11.432  18.050  0.00  0.00    +0.000 A 
ATOM     27  C   UNL     1      -5.298  11.323  17.875  0.00  0.00    +0.000 A 
ENDBRANCH  19  22
ENDBRANCH  15  16
ENDBRANCH   1  15
TORSDOF 6
ENDMDL
MODEL 9
REMARK VINA RESULT:      -7.7      7.115     10.125
REMARK  Name = 
REMARK  6 active torsions:
REMARK  status: ('A' for Active; 'I' for Inactive)
REMARK    1  A    between atoms: C_4  and  O_5
REMARK    2  A    between atoms: O_5  and  C_6
REMARK    3  A    between atoms: C_6  and  C_7
REMARK    4  A    between atoms: C_7  and  C_8
REMARK    5  A    between atoms: C_8  and  N_9
REMARK    6  A    between atoms: N_12  and  C_13
REMARK                            x       y       z     vdW  Elec       q    Type
REMARK                         _______ _______ _______ _____ _____    ______ ____
ROOT
ATOM      1  C   UNL     1       1.793   9.626  18.020  0.00  0.00    +0.000 C 
ENDROOT
BRANCH   1   2
ATOM      2  C   UNL     1       1.788   8.135  17.685  0.00  0.00    +0.000 C 
BRANCH   2   3
ATOM      3  O   UNL     1       2.837   7.509  18.428  0.00  0.00    +0.000 OA
BRANCH   3   7
ATOM      4  O   UNL     1       6.478   5.901  15.795  0.00  0.00    +0.000 OA
ATOM      5  C   UNL     1       5.448   5.666  16.417  0.00  0.00    +0.000 A 
ATOM      6  C   UNL     1       4.714   6.752  17.084  0.00  0.00    +0.000 A 
ATOM      7  C   UNL     1       3.590   6.550  17.787  0.00  0.00    +0.000 A 
ATOM      8  C   UNL     1       3.071   5.181  17.903  0.00  0.00    +0.000 A 
ATOM      9  C   UNL     1       1.924   4.862  18.639  0.00  0.00    +0.000 A 
ATOM     10  C   UNL     1       1.471   3.536  18.706  0.00  0.00    +0.000 A 
ATOM     11  C   UNL     1       2.158   2.521  18.040  0.00  0.00    +0.000 A 
ATOM     12  C   UNL     1       3.303   2.826  17.308  0.00  0.00    +0.000 A 
ATOM     13  C   UNL     1       3.746   4.150  17.254  0.00  0.00    +0.000 A 
ATOM     14  O   UNL     1       4.915   4.391  16.510  0.00  0.00    +0.000 OA
ENDBRANCH   3   7
ENDBRANCH   2   3
ENDBRANCH   1   2
BRANCH   1  15
ATOM     15  C   UNL     1       0.861   9.983  19.180  0.00  0.00    +0.000 C 
BRANCH  15  16
ATOM     16  N   UNL     1      -0.285  10.795  18.787  0.00  0.00    +0.000 NA
ATOM     17  C   UNL     1      -1.066  11.225  19.967  0.00  0.00    +0.000 C 
ATOM     18  C   UNL     1      -2.058  12.314  19.533  0.00  0.00    +0.000 C 
ATOM     19  N   UNL     1      -2.991  11.739  18.556  0.00  0.00    +0.000 N 
ATOM     20  C   UNL     1      -2.356  11.137  17.376  0.00  0.00    +0.000 C 
ATOM     21  C   UNL     1      -1.221  10.160  17.823  0.00  0.00    +0.000 C 
BRANCH  19  22
ATOM     22  C   UNL     1      -4.349  11.915  18.696  0.00  0.00    +0.000 A 
ATOM     23  C   UNL     1      -4.940  12.313  19.902  0.00  0.00    +0.000 A 
ATOM     24  C   UNL     1      -6.330  12.454  20.019  0.00  0.00    +0.000 A 
ATOM     25  C   UNL     1      -7.154  12.213  18.924  0.00  0.00    +0.000 A 
ATOM     26  C   UNL     1      -6.590  11.844  17.710  0.00  0.00    +0.000 A 
ATOM     27  C   UNL     1      -5.206  11.702  17.604  0.00  0.00    +0.000 A 
ENDBRANCH  19  22
ENDBRANCH  15  16
ENDBRANCH   1  15
TORSDOF 6
ENDMDL
