MODEL 1
REMARK VINA RESULT:      -6.5      0.000      0.000
REMARK  Name = 
REMARK  6 active torsions:
REMARK  status: ('A' for Active; 'I' for Inactive)
REMARK    1  A    between atoms: C_1  and  N_2
REMARK    2  A    between atoms: N_2  and  C_12
REMARK    3  A    between atoms: C_3  and  C_5
REMARK    4  A    between atoms: C_8  and  O_9
REMARK    5  A    between atoms: C_12  and  C_13
REMARK    6  A    between atoms: N_15  and  C_16
REMARK                            x       y       z     vdW  Elec       q    Type
REMARK                         _______ _______ _______ _____ _____    ______ ____
ROOT
ATOM      1  C   UNL     1       2.793   5.459  18.624  0.00  0.00    +0.000 C 
ATOM      2  C   UNL     1       2.902   6.946  18.114  0.00  0.00    +0.000 C 
ATOM      3  C   UNL     1       2.059   8.073  18.716  0.00  0.00    +0.000 C 
ATOM      4  C   UNL     1       1.873   7.963  20.208  0.00  0.00    +0.000 C 
ATOM      5  C   UNL     1       1.420   6.566  20.537  0.00  0.00    +0.000 C 
ATOM      6  C   UNL     1       2.493   5.537  20.137  0.00  0.00    +0.000 C 
ENDROOT
BRANCH   1   8
ATOM      7  C   UNL     1       0.881   4.901  17.052  0.00  0.00    +0.000 C 
ATOM      8  N   UNL     1       1.799   4.468  18.092  0.00  0.00    +0.000 N 
ATOM      9  C   UNL     1       1.768   3.080  18.498  0.00  0.00    +0.000 C 
ATOM     10  O   UNL     1       0.986   2.275  17.989  0.00  0.00    +0.000 OA
BRANCH   9  11
ATOM     11  C   UNL     1       2.751   2.491  19.497  0.00  0.00    +0.000 A 
ATOM     12  C   UNL     1       2.584   2.453  20.884  0.00  0.00    +0.000 A 
ATOM     13  C   UNL     1       3.598   2.016  21.738  0.00  0.00    +0.000 A 
ATOM     14  C   UNL     1       4.745   1.510  21.169  0.00  0.00    +0.000 A 
ATOM     15  N   UNL     1       4.926   1.418  19.842  0.00  0.00    +0.000 NA
ATOM     16  C   UNL     1       3.932   1.911  19.037  0.00  0.00    +0.000 A 
BRANCH  14  17
ATOM     17  O   UNL     1       5.761   1.042  21.947  0.00  0.00    +0.000 OA
ATOM     18  H   UNL     1       5.907   0.101  21.738  0.00  0.00    +0.000 HD
ENDBRANCH  14  17
ENDBRANCH   9  11
ENDBRANCH   1   8
BRANCH   1  19
ATOM     19  C   UNL     1       4.072   4.906  17.851  0.00  0.00    +0.000 C 
ATOM     20  O   UNL     1       3.960   4.479  16.692  0.00  0.00    +0.000 OA
ATOM     21  N   UNL     1       5.327   5.063  18.381  0.00  0.00    +0.000 N 
ATOM     22  H   UNL     1       5.421   5.618  19.210  0.00  0.00    +0.000 HD
BRANCH  21  23
ATOM     23  C   UNL     1       6.468   4.975  17.454  0.00  0.00    +0.000 C 
ATOM     24  C   UNL     1       6.560   6.239  16.583  0.00  0.00    +0.000 C 
ATOM     25  C   UNL     1       6.865   7.473  17.423  0.00  0.00    +0.000 C 
ATOM     26  C   UNL     1       8.095   7.289  18.308  0.00  0.00    +0.000 C 
ATOM     27  C   UNL     1       8.125   5.963  19.073  0.00  0.00    +0.000 C 
ATOM     28  C   UNL     1       7.786   4.771  18.187  0.00  0.00    +0.000 C 
ENDBRANCH  21  23
ENDBRANCH   1  19
TORSDOF 5
ENDMDL
MODEL 2
REMARK VINA RESULT:      -6.4      2.454      6.136
REMARK  Name = 
REMARK  6 active torsions:
REMARK  status: ('A' for Active; 'I' for Inactive)
REMARK    1  A    between atoms: C_1  and  N_2
REMARK    2  A    between atoms: N_2  and  C_12
REMARK    3  A    between atoms: C_3  and  C_5
REMARK    4  A    between atoms: C_8  and  O_9
REMARK    5  A    between atoms: C_12  and  C_13
REMARK    6  A    between atoms: N_15  and  C_16
REMARK                            x       y       z     vdW  Elec       q    Type
REMARK                         _______ _______ _______ _____ _____    ______ ____
ROOT
ATOM      1  C   UNL     1       4.293   5.312  17.558  0.00  0.00    +0.000 C 
ATOM      2  C   UNL     1       3.110   6.006  18.335  0.00  0.00    +0.000 C 
ATOM      3  C   UNL     1       2.988   7.530  18.433  0.00  0.00    +0.000 C 
ATOM      4  C   UNL     1       3.385   8.254  17.171  0.00  0.00    +0.000 C 
ATOM      5  C   UNL     1       4.723   7.736  16.717  0.00  0.00    +0.000 C 
ATOM      6  C   UNL     1       4.640   6.238  16.373  0.00  0.00    +0.000 C 
ENDROOT
BRANCH   1   8
ATOM      7  C   UNL     1       5.698   4.904  19.632  0.00  0.00    +0.000 C 
ATOM      8  N   UNL     1       5.617   4.984  18.183  0.00  0.00    +0.000 N 
ATOM      9  C   UNL     1       6.797   4.657  17.413  0.00  0.00    +0.000 C 
ATOM     10  O   UNL     1       7.852   4.322  17.956  0.00  0.00    +0.000 OA
BRANCH   9  11
ATOM     11  C   UNL     1       6.802   4.603  15.894  0.00  0.00    +0.000 A 
ATOM     12  C   UNL     1       6.056   3.725  15.103  0.00  0.00    +0.000 A 
ATOM     13  C   UNL     1       6.224   3.652  13.719  0.00  0.00    +0.000 A 
ATOM     14  C   UNL     1       7.074   4.558  13.126  0.00  0.00    +0.000 A 
ATOM     15  N   UNL     1       7.739   5.499  13.815  0.00  0.00    +0.000 NA
ATOM     16  C   UNL     1       7.594   5.500  15.178  0.00  0.00    +0.000 A 
BRANCH  14  17
ATOM     17  O   UNL     1       7.261   4.558  11.777  0.00  0.00    +0.000 OA
ATOM     18  H   UNL     1       6.859   3.750  11.405  0.00  0.00    +0.000 HD
ENDBRANCH  14  17
ENDBRANCH   9  11
ENDBRANCH   1   8
BRANCH   1  19
ATOM     19  C   UNL     1       3.684   3.840  17.577  0.00  0.00    +0.000 C 
ATOM     20  O   UNL     1       4.421   2.861  17.386  0.00  0.00    +0.000 OA
ATOM     21  N   UNL     1       2.391   3.627  17.981  0.00  0.00    +0.000 N 
ATOM     22  H   UNL     1       1.881   4.404  18.355  0.00  0.00    +0.000 HD
BRANCH  21  23
ATOM     23  C   UNL     1       2.037   2.268  18.425  0.00  0.00    +0.000 C 
ATOM     24  C   UNL     1       3.013   1.778  19.509  0.00  0.00    +0.000 C 
ATOM     25  C   UNL     1       2.903   2.618  20.776  0.00  0.00    +0.000 C 
ATOM     26  C   UNL     1       1.469   2.718  21.290  0.00  0.00    +0.000 C 
ATOM     27  C   UNL     1       0.437   3.044  20.208  0.00  0.00    +0.000 C 
ATOM     28  C   UNL     1       0.613   2.192  18.958  0.00  0.00    +0.000 C 
ENDBRANCH  21  23
ENDBRANCH   1  19
TORSDOF 5
ENDMDL
MODEL 3
REMARK VINA RESULT:      -5.9      8.212     11.839
REMARK  Name = 
REMARK  6 active torsions:
REMARK  status: ('A' for Active; 'I' for Inactive)
REMARK    1  A    between atoms: C_1  and  N_2
REMARK    2  A    between atoms: N_2  and  C_12
REMARK    3  A    between atoms: C_3  and  C_5
REMARK    4  A    between atoms: C_8  and  O_9
REMARK    5  A    between atoms: C_12  and  C_13
REMARK    6  A    between atoms: N_15  and  C_16
REMARK                            x       y       z     vdW  Elec       q    Type
REMARK                         _______ _______ _______ _____ _____    ______ ____
ROOT
ATOM      1  C   UNL     1      -1.466  11.557  19.303  0.00  0.00    +0.000 C 
ATOM      2  C   UNL     1      -0.619  10.529  18.462  0.00  0.00    +0.000 C 
ATOM      3  C   UNL     1       0.630   9.850  19.031  0.00  0.00    +0.000 C 
ATOM      4  C   UNL     1       0.511   9.479  20.487  0.00  0.00    +0.000 C 
ATOM      5  C   UNL     1       0.016  10.677  21.252  0.00  0.00    +0.000 C 
ATOM      6  C   UNL     1      -1.387  11.089  20.773  0.00  0.00    +0.000 C 
ENDROOT
BRANCH   1   8
ATOM      7  C   UNL     1      -0.336  13.605  18.321  0.00  0.00    +0.000 C 
ATOM      8  N   UNL     1      -1.172  13.027  19.359  0.00  0.00    +0.000 N 
ATOM      9  C   UNL     1      -1.752  13.915  20.344  0.00  0.00    +0.000 C 
ATOM     10  O   UNL     1      -1.547  15.130  20.319  0.00  0.00    +0.000 OA
BRANCH   9  11
ATOM     11  C   UNL     1      -2.725  13.440  21.411  0.00  0.00    +0.000 A 
ATOM     12  C   UNL     1      -4.101  13.257  21.242  0.00  0.00    +0.000 A 
ATOM     13  C   UNL     1      -4.942  12.950  22.312  0.00  0.00    +0.000 A 
ATOM     14  C   UNL     1      -4.363  12.716  23.539  0.00  0.00    +0.000 A 
ATOM     15  N   UNL     1      -3.038  12.770  23.746  0.00  0.00    +0.000 NA
ATOM     16  C   UNL     1      -2.250  13.133  22.684  0.00  0.00    +0.000 A 
BRANCH  14  17
ATOM     17  O   UNL     1      -5.126  12.385  24.618  0.00  0.00    +0.000 OA
ATOM     18  H   UNL     1      -4.867  12.949  25.369  0.00  0.00    +0.000 HD
ENDBRANCH  14  17
ENDBRANCH   9  11
ENDBRANCH   1   8
BRANCH   1  19
ATOM     19  C   UNL     1      -2.707  11.631  18.307  0.00  0.00    +0.000 C 
ATOM     20  O   UNL     1      -2.532  11.505  17.086  0.00  0.00    +0.000 OA
ATOM     21  N   UNL     1      -3.990  11.650  18.793  0.00  0.00    +0.000 N 
ATOM     22  H   UNL     1      -4.122  11.516  19.778  0.00  0.00    +0.000 HD
BRANCH  21  23
ATOM     23  C   UNL     1      -5.067  11.248  17.873  0.00  0.00    +0.000 C 
ATOM     24  C   UNL     1      -6.121  10.402  18.606  0.00  0.00    +0.000 C 
ATOM     25  C   UNL     1      -6.839  11.213  19.679  0.00  0.00    +0.000 C 
ATOM     26  C   UNL     1      -7.418  12.518  19.136  0.00  0.00    +0.000 C 
ATOM     27  C   UNL     1      -6.449  13.317  18.260  0.00  0.00    +0.000 C 
ATOM     28  C   UNL     1      -5.745  12.448  17.227  0.00  0.00    +0.000 C 
ENDBRANCH  21  23
ENDBRANCH   1  19
TORSDOF 5
ENDMDL
MODEL 4
REMARK VINA RESULT:      -5.9      9.370     12.289
REMARK  Name = 
REMARK  6 active torsions:
REMARK  status: ('A' for Active; 'I' for Inactive)
REMARK    1  A    between atoms: C_1  and  N_2
REMARK    2  A    between atoms: N_2  and  C_12
REMARK    3  A    between atoms: C_3  and  C_5
REMARK    4  A    between atoms: C_8  and  O_9
REMARK    5  A    between atoms: C_12  and  C_13
REMARK    6  A    between atoms: N_15  and  C_16
REMARK                            x       y       z     vdW  Elec       q    Type
REMARK                         _______ _______ _______ _____ _____    ______ ____
ROOT
ATOM      1  C   UNL     1       7.566  14.764  21.481  0.00  0.00    +0.000 C 
ATOM      2  C   UNL     1       6.589  13.808  22.266  0.00  0.00    +0.000 C 
ATOM      3  C   UNL     1       5.090  14.097  22.378  0.00  0.00    +0.000 C 
ATOM      4  C   UNL     1       4.485  14.673  21.124  0.00  0.00    +0.000 C 
ATOM      5  C   UNL     1       5.336  15.825  20.662  0.00  0.00    +0.000 C 
ATOM      6  C   UNL     1       6.754  15.347  20.304  0.00  0.00    +0.000 C 
ENDROOT
BRANCH   1   8
ATOM      7  C   UNL     1       7.962  16.258  23.493  0.00  0.00    +0.000 C 
ATOM      8  N   UNL     1       8.241  15.953  22.100  0.00  0.00    +0.000 N 
ATOM      9  C   UNL     1       9.223  16.757  21.406  0.00  0.00    +0.000 C 
ATOM     10  O   UNL     1       9.812  17.684  21.967  0.00  0.00    +0.000 OA
BRANCH   9  11
ATOM     11  C   UNL     1       9.672  16.465  19.984  0.00  0.00    +0.000 A 
ATOM     12  C   UNL     1      10.856  15.820  19.615  0.00  0.00    +0.000 A 
ATOM     13  C   UNL     1      11.255  15.714  18.282  0.00  0.00    +0.000 A 
ATOM     14  C   UNL     1      10.390  16.169  17.313  0.00  0.00    +0.000 A 
ATOM     15  N   UNL     1       9.190  16.701  17.593  0.00  0.00    +0.000 NA
ATOM     16  C   UNL     1       8.858  16.842  18.917  0.00  0.00    +0.000 A 
BRANCH  14  17
ATOM     17  O   UNL     1      10.708  16.070  15.992  0.00  0.00    +0.000 OA
ATOM     18  H   UNL     1      11.600  16.440  15.857  0.00  0.00    +0.000 HD
ENDBRANCH  14  17
ENDBRANCH   9  11
ENDBRANCH   1   8
BRANCH   1  19
ATOM     19  C   UNL     1       8.823  13.786  21.486  0.00  0.00    +0.000 C 
ATOM     20  O   UNL     1       9.439  13.571  22.540  0.00  0.00    +0.000 OA
ATOM     21  N   UNL     1       9.124  13.034  20.378  0.00  0.00    +0.000 N 
ATOM     22  H   UNL     1       8.478  13.045  19.612  0.00  0.00    +0.000 HD
BRANCH  21  23
ATOM     23  C   UNL     1       9.964  11.841  20.580  0.00  0.00    +0.000 C 
ATOM     24  C   UNL     1       9.340  10.614  19.894  0.00  0.00    +0.000 C 
ATOM     25  C   UNL     1       9.300  10.784  18.379  0.00  0.00    +0.000 C 
ATOM     26  C   UNL     1      10.664  11.143  17.795  0.00  0.00    +0.000 C 
ATOM     27  C   UNL     1      11.397  12.254  18.550  0.00  0.00    +0.000 C 
ATOM     28  C   UNL     1      11.380  12.044  20.058  0.00  0.00    +0.000 C 
ENDBRANCH  21  23
ENDBRANCH   1  19
TORSDOF 5
ENDMDL
MODEL 5
REMARK VINA RESULT:      -5.8      8.571     12.053
REMARK  Name = 
REMARK  6 active torsions:
REMARK  status: ('A' for Active; 'I' for Inactive)
REMARK    1  A    between atoms: C_1  and  N_2
REMARK    2  A    between atoms: N_2  and  C_12
REMARK    3  A    between atoms: C_3  and  C_5
REMARK    4  A    between atoms: C_8  and  O_9
REMARK    5  A    between atoms: C_12  and  C_13
REMARK    6  A    between atoms: N_15  and  C_16
REMARK                            x       y       z     vdW  Elec       q    Type
REMARK                         _______ _______ _______ _____ _____    ______ ____
ROOT
ATOM      1  C   UNL     1      -1.123  13.195  19.542  0.00  0.00    +0.000 C 
ATOM      2  C   UNL     1      -2.013  14.276  20.265  0.00  0.00    +0.000 C 
ATOM      3  C   UNL     1      -1.455  15.642  20.674  0.00  0.00    +0.000 C 
ATOM      4  C   UNL     1      -0.489  16.230  19.676  0.00  0.00    +0.000 C 
ATOM      5  C   UNL     1       0.537  15.186  19.326  0.00  0.00    +0.000 C 
ATOM      6  C   UNL     1      -0.127  13.971  18.654  0.00  0.00    +0.000 C 
ENDROOT
BRANCH   1   8
ATOM      7  C   UNL     1       0.825  11.569  19.559  0.00  0.00    +0.000 C 
ATOM      8  N   UNL     1      -0.277  12.192  20.271  0.00  0.00    +0.000 N 
ATOM      9  C   UNL     1      -0.448  11.881  21.674  0.00  0.00    +0.000 C 
ATOM     10  O   UNL     1       0.309  11.106  22.261  0.00  0.00    +0.000 OA
BRANCH   9  11
ATOM     11  C   UNL     1      -1.498  12.552  22.545  0.00  0.00    +0.000 A 
ATOM     12  C   UNL     1      -2.844  12.187  22.634  0.00  0.00    +0.000 A 
ATOM     13  C   UNL     1      -3.769  12.943  23.355  0.00  0.00    +0.000 A 
ATOM     14  C   UNL     1      -3.298  14.013  24.082  0.00  0.00    +0.000 A 
ATOM     15  N   UNL     1      -2.000  14.355  24.126  0.00  0.00    +0.000 NA
ATOM     16  C   UNL     1      -1.131  13.624  23.358  0.00  0.00    +0.000 A 
BRANCH  14  17
ATOM     17  O   UNL     1      -4.145  14.776  24.829  0.00  0.00    +0.000 OA
ATOM     18  H   UNL     1      -3.648  15.152  25.579  0.00  0.00    +0.000 HD
ENDBRANCH  14  17
ENDBRANCH   9  11
ENDBRANCH   1   8
BRANCH   1  19
ATOM     19  C   UNL     1      -2.314  12.213  19.146  0.00  0.00    +0.000 C 
ATOM     20  O   UNL     1      -2.109  10.994  19.053  0.00  0.00    +0.000 OA
ATOM     21  N   UNL     1      -3.604  12.675  19.084  0.00  0.00    +0.000 N 
ATOM     22  H   UNL     1      -3.784  13.612  19.390  0.00  0.00    +0.000 HD
BRANCH  21  23
ATOM     23  C   UNL     1      -4.684  11.678  19.185  0.00  0.00    +0.000 C 
ATOM     24  C   UNL     1      -5.781  12.159  20.148  0.00  0.00    +0.000 C 
ATOM     25  C   UNL     1      -6.481  13.405  19.617  0.00  0.00    +0.000 C 
ATOM     26  C   UNL     1      -6.999  13.222  18.193  0.00  0.00    +0.000 C 
ATOM     27  C   UNL     1      -5.988  12.591  17.233  0.00  0.00    +0.000 C 
ATOM     28  C   UNL     1      -5.304  11.367  17.829  0.00  0.00    +0.000 C 
ENDBRANCH  21  23
ENDBRANCH   1  19
TORSDOF 5
ENDMDL
MODEL 6
REMARK VINA RESULT:      -5.8      9.311     12.407
REMARK  Name = 
REMARK  6 active torsions:
REMARK  status: ('A' for Active; 'I' for Inactive)
REMARK    1  A    between atoms: C_1  and  N_2
REMARK    2  A    between atoms: N_2  and  C_12
REMARK    3  A    between atoms: C_3  and  C_5
REMARK    4  A    between atoms: C_8  and  O_9
REMARK    5  A    between atoms: C_12  and  C_13
REMARK    6  A    between atoms: N_15  and  C_16
REMARK                            x       y       z     vdW  Elec       q    Type
REMARK                         _______ _______ _______ _____ _____    ______ ____
ROOT
ATOM      1  C   UNL     1      -4.139  13.824  21.990  0.00  0.00    +0.000 C 
ATOM      2  C   UNL     1      -3.089  14.196  23.104  0.00  0.00    +0.000 C 
ATOM      3  C   UNL     1      -3.399  14.037  24.595  0.00  0.00    +0.000 C 
ATOM      4  C   UNL     1      -4.209  12.809  24.921  0.00  0.00    +0.000 C 
ATOM      5  C   UNL     1      -5.399  12.757  24.001  0.00  0.00    +0.000 C 
ATOM      6  C   UNL     1      -4.949  12.627  22.535  0.00  0.00    +0.000 C 
ENDROOT
BRANCH   1   8
ATOM      7  C   UNL     1      -5.029  16.191  21.779  0.00  0.00    +0.000 C 
ATOM      8  N   UNL     1      -5.176  14.778  21.474  0.00  0.00    +0.000 N 
ATOM      9  C   UNL     1      -6.267  14.375  20.613  0.00  0.00    +0.000 C 
ATOM     10  O   UNL     1      -7.061  15.195  20.147  0.00  0.00    +0.000 OA
BRANCH   9  11
ATOM     11  C   UNL     1      -6.457  12.942  20.140  0.00  0.00    +0.000 A 
ATOM     12  C   UNL     1      -5.838  12.356  19.033  0.00  0.00    +0.000 A 
ATOM     13  C   UNL     1      -6.175  11.077  18.589  0.00  0.00    +0.000 A 
ATOM     14  C   UNL     1      -7.064  10.347  19.345  0.00  0.00    +0.000 A 
ATOM     15  N   UNL     1      -7.614  10.810  20.479  0.00  0.00    +0.000 NA
ATOM     16  C   UNL     1      -7.305  12.093  20.850  0.00  0.00    +0.000 A 
BRANCH  14  17
ATOM     17  O   UNL     1      -7.414   9.081  18.982  0.00  0.00    +0.000 OA
ATOM     18  H   UNL     1      -8.108   9.133  18.299  0.00  0.00    +0.000 HD
ENDBRANCH  14  17
ENDBRANCH   9  11
ENDBRANCH   1   8
BRANCH   1  19
ATOM     19  C   UNL     1      -3.138  13.918  20.755  0.00  0.00    +0.000 C 
ATOM     20  O   UNL     1      -2.554  14.984  20.508  0.00  0.00    +0.000 OA
ATOM     21  N   UNL     1      -2.770  12.788  20.069  0.00  0.00    +0.000 N 
ATOM     22  H   UNL     1      -3.070  11.902  20.428  0.00  0.00    +0.000 HD
BRANCH  21  23
ATOM     23  C   UNL     1      -1.528  12.850  19.281  0.00  0.00    +0.000 C 
ATOM     24  C   UNL     1      -0.323  12.414  20.130  0.00  0.00    +0.000 C 
ATOM     25  C   UNL     1      -0.427  10.949  20.535  0.00  0.00    +0.000 C 
ATOM     26  C   UNL     1      -0.657  10.027  19.340  0.00  0.00    +0.000 C 
ATOM     27  C   UNL     1      -1.743  10.510  18.375  0.00  0.00    +0.000 C 
ATOM     28  C   UNL     1      -1.600  11.987  18.029  0.00  0.00    +0.000 C 
ENDBRANCH  21  23
ENDBRANCH   1  19
TORSDOF 5
ENDMDL
MODEL 7
REMARK VINA RESULT:      -5.8      8.580     11.342
REMARK  Name = 
REMARK  6 active torsions:
REMARK  status: ('A' for Active; 'I' for Inactive)
REMARK    1  A    between atoms: C_1  and  N_2
REMARK    2  A    between atoms: N_2  and  C_12
REMARK    3  A    between atoms: C_3  and  C_5
REMARK    4  A    between atoms: C_8  and  O_9
REMARK    5  A    between atoms: C_12  and  C_13
REMARK    6  A    between atoms: N_15  and  C_16
REMARK                            x       y       z     vdW  Elec       q    Type
REMARK                         _______ _______ _______ _____ _____    ______ ____
ROOT
ATOM      1  C   UNL     1      -1.257  13.200  19.825  0.00  0.00    +0.000 C 
ATOM      2  C   UNL     1      -2.069  14.334  20.558  0.00  0.00    +0.000 C 
ATOM      3  C   UNL     1      -1.449  15.696  20.880  0.00  0.00    +0.000 C 
ATOM      4  C   UNL     1      -0.530  16.217  19.804  0.00  0.00    +0.000 C 
ATOM      5  C   UNL     1       0.443  15.131  19.433  0.00  0.00    +0.000 C 
ATOM      6  C   UNL     1      -0.295  13.913  18.849  0.00  0.00    +0.000 C 
ENDROOT
BRANCH   1   8
ATOM      7  C   UNL     1       0.660  11.537  19.793  0.00  0.00    +0.000 C 
ATOM      8  N   UNL     1      -0.397  12.200  20.539  0.00  0.00    +0.000 N 
ATOM      9  C   UNL     1      -0.508  11.927  21.956  0.00  0.00    +0.000 C 
ATOM     10  O   UNL     1       0.261  11.151  22.528  0.00  0.00    +0.000 OA
BRANCH   9  11
ATOM     11  C   UNL     1      -1.504  12.639  22.857  0.00  0.00    +0.000 A 
ATOM     12  C   UNL     1      -2.813  12.226  23.118  0.00  0.00    +0.000 A 
ATOM     13  C   UNL     1      -3.704  13.013  23.850  0.00  0.00    +0.000 A 
ATOM     14  C   UNL     1      -3.224  14.174  24.414  0.00  0.00    +0.000 A 
ATOM     15  N   UNL     1      -1.948  14.574  24.292  0.00  0.00    +0.000 NA
ATOM     16  C   UNL     1      -1.119  13.805  23.517  0.00  0.00    +0.000 A 
BRANCH  14  17
ATOM     17  O   UNL     1      -4.035  14.972  25.162  0.00  0.00    +0.000 OA
ATOM     18  H   UNL     1      -3.800  15.904  24.991  0.00  0.00    +0.000 HD
ENDBRANCH  14  17
ENDBRANCH   9  11
ENDBRANCH   1   8
BRANCH   1  19
ATOM     19  C   UNL     1      -2.497  12.242  19.539  0.00  0.00    +0.000 C 
ATOM     20  O   UNL     1      -3.588  12.459  20.084  0.00  0.00    +0.000 OA
ATOM     21  N   UNL     1      -2.425  11.286  18.558  0.00  0.00    +0.000 N 
ATOM     22  H   UNL     1      -1.615  11.277  17.967  0.00  0.00    +0.000 HD
BRANCH  21  23
ATOM     23  C   UNL     1      -3.697  10.770  18.023  0.00  0.00    +0.000 C 
ATOM     24  C   UNL     1      -4.188  11.638  16.853  0.00  0.00    +0.000 C 
ATOM     25  C   UNL     1      -3.234  11.563  15.666  0.00  0.00    +0.000 C 
ATOM     26  C   UNL     1      -2.943  10.126  15.240  0.00  0.00    +0.000 C 
ATOM     27  C   UNL     1      -2.609   9.184  16.399  0.00  0.00    +0.000 C 
ATOM     28  C   UNL     1      -3.580   9.324  17.563  0.00  0.00    +0.000 C 
ENDBRANCH  21  23
ENDBRANCH   1  19
TORSDOF 5
ENDMDL
MODEL 8
REMARK VINA RESULT:      -5.7     10.278     13.147
REMARK  Name = 
REMARK  6 active torsions:
REMARK  status: ('A' for Active; 'I' for Inactive)
REMARK    1  A    between atoms: C_1  and  N_2
REMARK    2  A    between atoms: N_2  and  C_12
REMARK    3  A    between atoms: C_3  and  C_5
REMARK    4  A    between atoms: C_8  and  O_9
REMARK    5  A    between atoms: C_12  and  C_13
REMARK    6  A    between atoms: N_15  and  C_16
REMARK                            x       y       z     vdW  Elec       q    Type
REMARK                         _______ _______ _______ _____ _____    ______ ____
ROOT
ATOM      1  C   UNL     1      -4.719  13.906  22.524  0.00  0.00    +0.000 C 
ATOM      2  C   UNL     1      -5.978  14.619  23.148  0.00  0.00    +0.000 C 
ATOM      3  C   UNL     1      -5.861  15.929  23.933  0.00  0.00    +0.000 C 
ATOM      4  C   UNL     1      -4.848  16.891  23.365  0.00  0.00    +0.000 C 
ATOM      5  C   UNL     1      -3.557  16.152  23.137  0.00  0.00    +0.000 C 
ATOM      6  C   UNL     1      -3.746  15.029  22.102  0.00  0.00    +0.000 C 
ENDROOT
BRANCH   1   8
ATOM      7  C   UNL     1      -4.260  12.545  24.616  0.00  0.00    +0.000 C 
ATOM      8  N   UNL     1      -3.863  12.926  23.271  0.00  0.00    +0.000 N 
ATOM      9  C   UNL     1      -2.712  12.272  22.687  0.00  0.00    +0.000 C 
ATOM     10  O   UNL     1      -2.072  11.417  23.303  0.00  0.00    +0.000 OA
BRANCH   9  11
ATOM     11  C   UNL     1      -2.267  12.510  21.253  0.00  0.00    +0.000 A 
ATOM     12  C   UNL     1      -2.749  11.842  20.124  0.00  0.00    +0.000 A 
ATOM     13  C   UNL     1      -2.188  12.027  18.860  0.00  0.00    +0.000 A 
ATOM     14  C   UNL     1      -1.206  12.983  18.726  0.00  0.00    +0.000 A 
ATOM     15  N   UNL     1      -0.772  13.736  19.748  0.00  0.00    +0.000 NA
ATOM     16  C   UNL     1      -1.306  13.484  20.986  0.00  0.00    +0.000 A 
BRANCH  14  17
ATOM     17  O   UNL     1      -0.636  13.231  17.514  0.00  0.00    +0.000 OA
ATOM     18  H   UNL     1      -0.754  12.447  16.946  0.00  0.00    +0.000 HD
ENDBRANCH  14  17
ENDBRANCH   9  11
ENDBRANCH   1   8
BRANCH   1  19
ATOM     19  C   UNL     1      -5.524  12.851  21.643  0.00  0.00    +0.000 C 
ATOM     20  O   UNL     1      -6.153  11.935  22.193  0.00  0.00    +0.000 OA
ATOM     21  N   UNL     1      -5.682  13.046  20.294  0.00  0.00    +0.000 N 
ATOM     22  H   UNL     1      -5.365  13.913  19.904  0.00  0.00    +0.000 HD
BRANCH  21  23
ATOM     23  C   UNL     1      -6.790  12.335  19.634  0.00  0.00    +0.000 C 
ATOM     24  C   UNL     1      -7.799  13.333  19.041  0.00  0.00    +0.000 C 
ATOM     25  C   UNL     1      -7.174  14.158  17.922  0.00  0.00    +0.000 C 
ATOM     26  C   UNL     1      -6.519  13.290  16.851  0.00  0.00    +0.000 C 
ATOM     27  C   UNL     1      -5.630  12.174  17.405  0.00  0.00    +0.000 C 
ATOM     28  C   UNL     1      -6.298  11.404  18.536  0.00  0.00    +0.000 C 
ENDBRANCH  21  23
ENDBRANCH   1  19
TORSDOF 5
ENDMDL
MODEL 9
REMARK VINA RESULT:      -5.6      6.403      9.839
REMARK  Name = 
REMARK  6 active torsions:
REMARK  status: ('A' for Active; 'I' for Inactive)
REMARK    1  A    between atoms: C_1  and  N_2
REMARK    2  A    between atoms: N_2  and  C_12
REMARK    3  A    between atoms: C_3  and  C_5
REMARK    4  A    between atoms: C_8  and  O_9
REMARK    5  A    between atoms: C_12  and  C_13
REMARK    6  A    between atoms: N_15  and  C_16
REMARK                            x       y       z     vdW  Elec       q    Type
REMARK                         _______ _______ _______ _____ _____    ______ ____
ROOT
ATOM      1  C   UNL     1      -1.481  11.425  19.257  0.00  0.00    +0.000 C 
ATOM      2  C   UNL     1      -2.954  11.884  18.938  0.00  0.00    +0.000 C 
ATOM      3  C   UNL     1      -3.651  11.517  17.625  0.00  0.00    +0.000 C 
ATOM      4  C   UNL     1      -3.338  10.125  17.138  0.00  0.00    +0.000 C 
ATOM      5  C   UNL     1      -1.846   9.930  17.159  0.00  0.00    +0.000 C 
ATOM      6  C   UNL     1      -1.301  10.042  18.594  0.00  0.00    +0.000 C 
ENDROOT
BRANCH   1   8
ATOM      7  C   UNL     1      -0.396  13.629  18.622  0.00  0.00    +0.000 C 
ATOM      8  N   UNL     1      -0.262  12.200  18.850  0.00  0.00    +0.000 N 
ATOM      9  C   UNL     1       1.057  11.614  18.760  0.00  0.00    +0.000 C 
ATOM     10  O   UNL     1       2.050  12.294  18.493  0.00  0.00    +0.000 OA
BRANCH   9  11
ATOM     11  C   UNL     1       1.335  10.154  19.082  0.00  0.00    +0.000 A 
ATOM     12  C   UNL     1       1.141   9.537  20.321  0.00  0.00    +0.000 A 
ATOM     13  C   UNL     1       1.551   8.226  20.566  0.00  0.00    +0.000 A 
ATOM     14  C   UNL     1       2.056   7.502  19.510  0.00  0.00    +0.000 A 
ATOM     15  N   UNL     1       2.169   7.999  18.268  0.00  0.00    +0.000 NA
ATOM     16  C   UNL     1       1.812   9.310  18.080  0.00  0.00    +0.000 A 
BRANCH  14  17
ATOM     17  O   UNL     1       2.449   6.208  19.676  0.00  0.00    +0.000 OA
ATOM     18  H   UNL     1       2.814   5.882  18.832  0.00  0.00    +0.000 HD
ENDBRANCH  14  17
ENDBRANCH   9  11
ENDBRANCH   1   8
BRANCH   1  19
ATOM     19  C   UNL     1      -1.488  11.842  20.795  0.00  0.00    +0.000 C 
ATOM     20  O   UNL     1      -0.432  11.840  21.444  0.00  0.00    +0.000 OA
ATOM     21  N   UNL     1      -2.615  12.377  21.365  0.00  0.00    +0.000 N 
ATOM     22  H   UNL     1      -3.391  12.588  20.766  0.00  0.00    +0.000 HD
BRANCH  21  23
ATOM     23  C   UNL     1      -2.440  13.160  22.600  0.00  0.00    +0.000 C 
ATOM     24  C   UNL     1      -2.631  14.661  22.325  0.00  0.00    +0.000 C 
ATOM     25  C   UNL     1      -4.060  14.970  21.894  0.00  0.00    +0.000 C 
ATOM     26  C   UNL     1      -5.097  14.424  22.872  0.00  0.00    +0.000 C 
ATOM     27  C   UNL     1      -4.851  12.976  23.303  0.00  0.00    +0.000 C 
ATOM     28  C   UNL     1      -3.402  12.723  23.696  0.00  0.00    +0.000 C 
ENDBRANCH  21  23
ENDBRANCH   1  19
TORSDOF 5
ENDMDL
