MODEL 1
REMARK VINA RESULT:      -6.8      0.000      0.000
REMARK  Name = 
REMARK  16 active torsions:
REMARK  status: ('A' for Active; 'I' for Inactive)
REMARK    1  A    between atoms: C_1  and  O_2
REMARK    2  A    between atoms: O_2  and  C_3
REMARK    3  A    between atoms: C_3  and  C_5
REMARK    4  A    between atoms: C_5  and  C_6
REMARK    5  A    between atoms: C_5  and  C_7
REMARK    6  A    between atoms: C_7  and  C_8
REMARK    7  A    between atoms: C_8  and  C_9
REMARK    8  A    between atoms: C_9  and  C_10
REMARK    9  A    between atoms: C_10  and  C_11
REMARK   10  A    between atoms: C_10  and  O_12
REMARK   11  A    between atoms: C_10  and  C_13
REMARK   12  A    between atoms: C_13  and  C_14
REMARK   13  A    between atoms: C_14  and  C_15
REMARK   14  A    between atoms: C_16  and  C_17
REMARK   15  A    between atoms: C_20  and  C_21
REMARK   16  A    between atoms: C_22  and  C_23
REMARK                            x       y       z     vdW  Elec       q    Type
REMARK                         _______ _______ _______ _____ _____    ______ ____
ROOT
ATOM      1  C   UNL     1       2.764   5.229  19.692  0.00  0.00    +0.000 C 
ATOM      2  C   UNL     1       1.653   4.355  19.050  0.00  0.00    +0.000 C 
ENDROOT
BRANCH   1   3
ATOM      3  O   UNL     1       2.525   5.292  21.106  0.00  0.00    +0.000 OA
ATOM      4  H   UNL     1       2.959   6.073  21.487  0.00  0.00    +0.000 HD
ENDBRANCH   1   3
BRANCH   1   5
ATOM      5  C   UNL     1       4.087   4.409  19.476  0.00  0.00    +0.000 C 
BRANCH   5   6
ATOM      6  C   UNL     1       4.161   3.440  18.283  0.00  0.00    +0.000 C 
BRANCH   6   7
ATOM      7  C   UNL     1       4.622   4.079  16.947  0.00  0.00    +0.000 C 
BRANCH   7   8
ATOM      8  C   UNL     1       5.583   5.269  17.097  0.00  0.00    +0.000 C 
ATOM      9  C   UNL     1       5.354   6.353  16.043  0.00  0.00    +0.000 C 
BRANCH   8  10
ATOM     10  C   UNL     1       7.007   4.765  16.976  0.00  0.00    +0.000 C 
ATOM     11  O   UNL     1       7.582   4.561  15.915  0.00  0.00    +0.000 OA
BRANCH  10  13
ATOM     12  C   UNL     1       7.637   5.674  19.032  0.00  0.00    +0.000 C 
ATOM     13  O   UNL     1       7.521   4.512  18.210  0.00  0.00    +0.000 OA
ENDBRANCH  10  13
ENDBRANCH   8  10
ENDBRANCH   7   8
ENDBRANCH   6   7
ENDBRANCH   5   6
ENDBRANCH   1   5
BRANCH   1  14
ATOM     14  C   UNL     1       2.615   6.715  19.139  0.00  0.00    +0.000 C 
BRANCH  14  15
ATOM     15  C   UNL     1       1.676   7.527  20.107  0.00  0.00    +0.000 C 
BRANCH  15  16
ATOM     16  C   UNL     1       1.137   8.961  20.125  0.00  0.00    +0.000 C 
ATOM     17  C   UNL     1       1.229  10.016  19.292  0.00  0.00    +0.000 C 
ATOM     18  C   UNL     1       1.857  10.118  17.924  0.00  0.00    +0.000 C 
ATOM     19  C   UNL     1       0.677  11.355  19.667  0.00  0.00    +0.000 C 
ATOM     20  O   UNL     1       0.703  12.305  18.881  0.00  0.00    +0.000 OA
ATOM     21  C   UNL     1       0.076  11.547  21.024  0.00  0.00    +0.000 C 
ATOM     22  C   UNL     1      -0.227  12.953  21.400  0.00  0.00    +0.000 C 
ATOM     23  C   UNL     1      -0.182  10.466  21.786  0.00  0.00    +0.000 C 
ATOM     24  C   UNL     1      -0.955  10.519  23.071  0.00  0.00    +0.000 C 
ATOM     25  C   UNL     1       0.267   9.120  21.370  0.00  0.00    +0.000 C 
ATOM     26  O   UNL     1      -0.064   8.160  22.047  0.00  0.00    +0.000 OA
ENDBRANCH  15  16
ENDBRANCH  14  15
ENDBRANCH   1  14
TORSDOF 10
ENDMDL
MODEL 2
REMARK VINA RESULT:      -6.7      1.569      2.340
REMARK  Name = 
REMARK  16 active torsions:
REMARK  status: ('A' for Active; 'I' for Inactive)
REMARK    1  A    between atoms: C_1  and  O_2
REMARK    2  A    between atoms: O_2  and  C_3
REMARK    3  A    between atoms: C_3  and  C_5
REMARK    4  A    between atoms: C_5  and  C_6
REMARK    5  A    between atoms: C_5  and  C_7
REMARK    6  A    between atoms: C_7  and  C_8
REMARK    7  A    between atoms: C_8  and  C_9
REMARK    8  A    between atoms: C_9  and  C_10
REMARK    9  A    between atoms: C_10  and  C_11
REMARK   10  A    between atoms: C_10  and  O_12
REMARK   11  A    between atoms: C_10  and  C_13
REMARK   12  A    between atoms: C_13  and  C_14
REMARK   13  A    between atoms: C_14  and  C_15
REMARK   14  A    between atoms: C_16  and  C_17
REMARK   15  A    between atoms: C_20  and  C_21
REMARK   16  A    between atoms: C_22  and  C_23
REMARK                            x       y       z     vdW  Elec       q    Type
REMARK                         _______ _______ _______ _____ _____    ______ ____
ROOT
ATOM      1  C   UNL     1       2.273   3.746  19.865  0.00  0.00    +0.000 C 
ATOM      2  C   UNL     1       1.325   2.727  19.177  0.00  0.00    +0.000 C 
ENDROOT
BRANCH   1   3
ATOM      3  O   UNL     1       3.004   3.056  20.890  0.00  0.00    +0.000 OA
ATOM      4  H   UNL     1       3.843   3.513  21.069  0.00  0.00    +0.000 HD
ENDBRANCH   1   3
BRANCH   1   5
ATOM      5  C   UNL     1       3.299   4.150  18.746  0.00  0.00    +0.000 C 
BRANCH   5   6
ATOM      6  C   UNL     1       4.795   4.182  19.102  0.00  0.00    +0.000 C 
BRANCH   6   7
ATOM      7  C   UNL     1       5.486   5.558  18.911  0.00  0.00    +0.000 C 
BRANCH   7   8
ATOM      8  C   UNL     1       6.849   5.504  18.204  0.00  0.00    +0.000 C 
ATOM      9  C   UNL     1       8.018   5.795  19.147  0.00  0.00    +0.000 C 
BRANCH   8  10
ATOM     10  C   UNL     1       6.860   6.525  17.085  0.00  0.00    +0.000 C 
ATOM     11  O   UNL     1       7.124   7.712  17.232  0.00  0.00    +0.000 OA
BRANCH  10  13
ATOM     12  C   UNL     1       6.935   4.604  15.760  0.00  0.00    +0.000 C 
ATOM     13  O   UNL     1       6.472   5.946  15.917  0.00  0.00    +0.000 OA
ENDBRANCH  10  13
ENDBRANCH   8  10
ENDBRANCH   7   8
ENDBRANCH   6   7
ENDBRANCH   5   6
ENDBRANCH   1   5
BRANCH   1  14
ATOM     14  C   UNL     1       1.381   4.841  20.601  0.00  0.00    +0.000 C 
BRANCH  14  15
ATOM     15  C   UNL     1       2.124   6.227  20.541  0.00  0.00    +0.000 C 
BRANCH  15  16
ATOM     16  C   UNL     1       1.836   7.570  19.865  0.00  0.00    +0.000 C 
ATOM     17  C   UNL     1       2.208   8.143  18.703  0.00  0.00    +0.000 C 
ATOM     18  C   UNL     1       3.012   7.577  17.558  0.00  0.00    +0.000 C 
ATOM     19  C   UNL     1       1.845   9.558  18.379  0.00  0.00    +0.000 C 
ATOM     20  O   UNL     1       2.129  10.063  17.291  0.00  0.00    +0.000 OA
ATOM     21  C   UNL     1       1.118  10.379  19.398  0.00  0.00    +0.000 C 
ATOM     22  C   UNL     1       1.010  11.831  19.094  0.00  0.00    +0.000 C 
ATOM     23  C   UNL     1       0.588   9.769  20.476  0.00  0.00    +0.000 C 
ATOM     24  C   UNL     1      -0.321  10.451  21.455  0.00  0.00    +0.000 C 
ATOM     25  C   UNL     1       0.854   8.340  20.745  0.00  0.00    +0.000 C 
ATOM     26  O   UNL     1       0.284   7.808  21.685  0.00  0.00    +0.000 OA
ENDBRANCH  15  16
ENDBRANCH  14  15
ENDBRANCH   1  14
TORSDOF 10
ENDMDL
MODEL 3
REMARK VINA RESULT:      -6.6      1.477      1.980
REMARK  Name = 
REMARK  16 active torsions:
REMARK  status: ('A' for Active; 'I' for Inactive)
REMARK    1  A    between atoms: C_1  and  O_2
REMARK    2  A    between atoms: O_2  and  C_3
REMARK    3  A    between atoms: C_3  and  C_5
REMARK    4  A    between atoms: C_5  and  C_6
REMARK    5  A    between atoms: C_5  and  C_7
REMARK    6  A    between atoms: C_7  and  C_8
REMARK    7  A    between atoms: C_8  and  C_9
REMARK    8  A    between atoms: C_9  and  C_10
REMARK    9  A    between atoms: C_10  and  C_11
REMARK   10  A    between atoms: C_10  and  O_12
REMARK   11  A    between atoms: C_10  and  C_13
REMARK   12  A    between atoms: C_13  and  C_14
REMARK   13  A    between atoms: C_14  and  C_15
REMARK   14  A    between atoms: C_16  and  C_17
REMARK   15  A    between atoms: C_20  and  C_21
REMARK   16  A    between atoms: C_22  and  C_23
REMARK                            x       y       z     vdW  Elec       q    Type
REMARK                         _______ _______ _______ _____ _____    ______ ____
ROOT
ATOM      1  C   UNL     1       2.329   3.678  20.617  0.00  0.00    +0.000 C 
ATOM      2  C   UNL     1       1.805   2.446  19.830  0.00  0.00    +0.000 C 
ENDROOT
BRANCH   1   3
ATOM      3  O   UNL     1       2.476   3.302  21.994  0.00  0.00    +0.000 OA
ATOM      4  H   UNL     1       3.132   3.870  22.430  0.00  0.00    +0.000 HD
ENDBRANCH   1   3
BRANCH   1   5
ATOM      5  C   UNL     1       3.770   3.931  20.043  0.00  0.00    +0.000 C 
BRANCH   5   6
ATOM      6  C   UNL     1       3.966   3.897  18.517  0.00  0.00    +0.000 C 
BRANCH   6   7
ATOM      7  C   UNL     1       5.389   4.280  18.030  0.00  0.00    +0.000 C 
BRANCH   7   8
ATOM      8  C   UNL     1       5.444   4.922  16.636  0.00  0.00    +0.000 C 
ATOM      9  C   UNL     1       5.607   3.894  15.515  0.00  0.00    +0.000 C 
BRANCH   8  10
ATOM     10  C   UNL     1       6.611   5.886  16.588  0.00  0.00    +0.000 C 
ATOM     11  O   UNL     1       7.493   5.865  15.739  0.00  0.00    +0.000 OA
BRANCH  10  13
ATOM     12  C   UNL     1       7.841   6.938  18.271  0.00  0.00    +0.000 C 
ATOM     13  O   UNL     1       6.570   6.728  17.656  0.00  0.00    +0.000 OA
ENDBRANCH  10  13
ENDBRANCH   8  10
ENDBRANCH   7   8
ENDBRANCH   6   7
ENDBRANCH   5   6
ENDBRANCH   1   5
BRANCH   1  14
ATOM     14  C   UNL     1       1.212   4.813  20.571  0.00  0.00    +0.000 C 
BRANCH  14  15
ATOM     15  C   UNL     1       1.912   6.221  20.653  0.00  0.00    +0.000 C 
BRANCH  15  16
ATOM     16  C   UNL     1       1.723   7.555  19.928  0.00  0.00    +0.000 C 
ATOM     17  C   UNL     1       2.175   8.073  18.768  0.00  0.00    +0.000 C 
ATOM     18  C   UNL     1       2.997   7.433  17.676  0.00  0.00    +0.000 C 
ATOM     19  C   UNL     1       1.901   9.495  18.390  0.00  0.00    +0.000 C 
ATOM     20  O   UNL     1       2.257   9.952  17.302  0.00  0.00    +0.000 OA
ATOM     21  C   UNL     1       1.174  10.382  19.352  0.00  0.00    +0.000 C 
ATOM     22  C   UNL     1       1.155  11.827  19.004  0.00  0.00    +0.000 C 
ATOM     23  C   UNL     1       0.567   9.832  20.422  0.00  0.00    +0.000 C 
ATOM     24  C   UNL     1      -0.347  10.589  21.340  0.00  0.00    +0.000 C 
ATOM     25  C   UNL     1       0.746   8.400  20.742  0.00  0.00    +0.000 C 
ATOM     26  O   UNL     1       0.109   7.926  21.670  0.00  0.00    +0.000 OA
ENDBRANCH  15  16
ENDBRANCH  14  15
ENDBRANCH   1  14
TORSDOF 10
ENDMDL
MODEL 4
REMARK VINA RESULT:      -6.6      3.369      9.149
REMARK  Name = 
REMARK  16 active torsions:
REMARK  status: ('A' for Active; 'I' for Inactive)
REMARK    1  A    between atoms: C_1  and  O_2
REMARK    2  A    between atoms: O_2  and  C_3
REMARK    3  A    between atoms: C_3  and  C_5
REMARK    4  A    between atoms: C_5  and  C_6
REMARK    5  A    between atoms: C_5  and  C_7
REMARK    6  A    between atoms: C_7  and  C_8
REMARK    7  A    between atoms: C_8  and  C_9
REMARK    8  A    between atoms: C_9  and  C_10
REMARK    9  A    between atoms: C_10  and  C_11
REMARK   10  A    between atoms: C_10  and  O_12
REMARK   11  A    between atoms: C_10  and  C_13
REMARK   12  A    between atoms: C_13  and  C_14
REMARK   13  A    between atoms: C_14  and  C_15
REMARK   14  A    between atoms: C_16  and  C_17
REMARK   15  A    between atoms: C_20  and  C_21
REMARK   16  A    between atoms: C_22  and  C_23
REMARK                            x       y       z     vdW  Elec       q    Type
REMARK                         _______ _______ _______ _____ _____    ______ ____
ROOT
ATOM      1  C   UNL     1       1.019   9.758  18.526  0.00  0.00    +0.000 C 
ATOM      2  C   UNL     1       1.494  11.225  18.711  0.00  0.00    +0.000 C 
ENDROOT
BRANCH   1   3
ATOM      3  O   UNL     1       1.043   9.114  19.809  0.00  0.00    +0.000 OA
ATOM      4  H   UNL     1       0.371   8.413  19.846  0.00  0.00    +0.000 HD
ENDBRANCH   1   3
BRANCH   1   5
ATOM      5  C   UNL     1      -0.487   9.882  18.091  0.00  0.00    +0.000 C 
BRANCH   5   6
ATOM      6  C   UNL     1      -1.398  10.842  18.873  0.00  0.00    +0.000 C 
BRANCH   6   7
ATOM      7  C   UNL     1      -2.322  11.729  17.998  0.00  0.00    +0.000 C 
BRANCH   7   8
ATOM      8  C   UNL     1      -3.680  11.101  17.649  0.00  0.00    +0.000 C 
ATOM      9  C   UNL     1      -3.913  10.989  16.142  0.00  0.00    +0.000 C 
BRANCH   8  10
ATOM     10  C   UNL     1      -4.780  11.951  18.251  0.00  0.00    +0.000 C 
ATOM     11  O   UNL     1      -4.835  12.281  19.429  0.00  0.00    +0.000 OA
BRANCH  10  13
ATOM     12  C   UNL     1      -7.061  12.181  17.807  0.00  0.00    +0.000 C 
ATOM     13  O   UNL     1      -5.723  12.234  17.312  0.00  0.00    +0.000 OA
ENDBRANCH  10  13
ENDBRANCH   8  10
ENDBRANCH   7   8
ENDBRANCH   6   7
ENDBRANCH   5   6
ENDBRANCH   1   5
BRANCH   1  14
ATOM     14  C   UNL     1       2.081   8.998  17.615  0.00  0.00    +0.000 C 
BRANCH  14  15
ATOM     15  C   UNL     1       2.786   7.884  18.475  0.00  0.00    +0.000 C 
BRANCH  15  16
ATOM     16  C   UNL     1       3.092   6.399  18.262  0.00  0.00    +0.000 C 
ATOM     17  C   UNL     1       3.903   5.710  17.436  0.00  0.00    +0.000 C 
ATOM     18  C   UNL     1       4.922   6.208  16.440  0.00  0.00    +0.000 C 
ATOM     19  C   UNL     1       3.881   4.214  17.390  0.00  0.00    +0.000 C 
ATOM     20  O   UNL     1       4.666   3.580  16.682  0.00  0.00    +0.000 OA
ATOM     21  C   UNL     1       2.885   3.470  18.223  0.00  0.00    +0.000 C 
ATOM     22  C   UNL     1       2.769   2.015  17.940  0.00  0.00    +0.000 C 
ATOM     23  C   UNL     1       2.202   4.133  19.177  0.00  0.00    +0.000 C 
ATOM     24  C   UNL     1       1.329   3.460  20.195  0.00  0.00    +0.000 C 
ATOM     25  C   UNL     1       2.303   5.603  19.299  0.00  0.00    +0.000 C 
ATOM     26  O   UNL     1       1.735   6.151  20.231  0.00  0.00    +0.000 OA
ENDBRANCH  15  16
ENDBRANCH  14  15
ENDBRANCH   1  14
TORSDOF 10
ENDMDL
MODEL 5
REMARK VINA RESULT:      -6.6      1.604      2.525
REMARK  Name = 
REMARK  16 active torsions:
REMARK  status: ('A' for Active; 'I' for Inactive)
REMARK    1  A    between atoms: C_1  and  O_2
REMARK    2  A    between atoms: O_2  and  C_3
REMARK    3  A    between atoms: C_3  and  C_5
REMARK    4  A    between atoms: C_5  and  C_6
REMARK    5  A    between atoms: C_5  and  C_7
REMARK    6  A    between atoms: C_7  and  C_8
REMARK    7  A    between atoms: C_8  and  C_9
REMARK    8  A    between atoms: C_9  and  C_10
REMARK    9  A    between atoms: C_10  and  C_11
REMARK   10  A    between atoms: C_10  and  O_12
REMARK   11  A    between atoms: C_10  and  C_13
REMARK   12  A    between atoms: C_13  and  C_14
REMARK   13  A    between atoms: C_14  and  C_15
REMARK   14  A    between atoms: C_16  and  C_17
REMARK   15  A    between atoms: C_20  and  C_21
REMARK   16  A    between atoms: C_22  and  C_23
REMARK                            x       y       z     vdW  Elec       q    Type
REMARK                         _______ _______ _______ _____ _____    ______ ____
ROOT
ATOM      1  C   UNL     1       2.398   3.478  19.267  0.00  0.00    +0.000 C 
ATOM      2  C   UNL     1       1.142   2.589  19.058  0.00  0.00    +0.000 C 
ENDROOT
BRANCH   1   3
ATOM      3  O   UNL     1       3.471   2.639  19.721  0.00  0.00    +0.000 OA
ATOM      4  H   UNL     1       3.162   1.723  19.819  0.00  0.00    +0.000 HD
ENDBRANCH   1   3
BRANCH   1   5
ATOM      5  C   UNL     1       2.772   3.980  17.826  0.00  0.00    +0.000 C 
BRANCH   5   6
ATOM      6  C   UNL     1       4.173   3.658  17.279  0.00  0.00    +0.000 C 
BRANCH   6   7
ATOM      7  C   UNL     1       5.270   4.697  17.631  0.00  0.00    +0.000 C 
BRANCH   7   8
ATOM      8  C   UNL     1       6.591   4.526  16.866  0.00  0.00    +0.000 C 
ATOM      9  C   UNL     1       7.815   4.543  17.784  0.00  0.00    +0.000 C 
BRANCH   8  10
ATOM     10  C   UNL     1       6.721   5.650  15.859  0.00  0.00    +0.000 C 
ATOM     11  O   UNL     1       6.063   6.682  15.883  0.00  0.00    +0.000 OA
BRANCH  10  13
ATOM     12  C   UNL     1       7.032   4.728  13.736  0.00  0.00    +0.000 C 
ATOM     13  O   UNL     1       7.623   5.316  14.896  0.00  0.00    +0.000 OA
ENDBRANCH  10  13
ENDBRANCH   8  10
ENDBRANCH   7   8
ENDBRANCH   6   7
ENDBRANCH   5   6
ENDBRANCH   1   5
BRANCH   1  14
ATOM     14  C   UNL     1       2.093   4.505  20.446  0.00  0.00    +0.000 C 
BRANCH  14  15
ATOM     15  C   UNL     1       2.757   5.890  20.099  0.00  0.00    +0.000 C 
BRANCH  15  16
ATOM     16  C   UNL     1       2.228   7.240  19.610  0.00  0.00    +0.000 C 
ATOM     17  C   UNL     1       2.408   7.980  18.498  0.00  0.00    +0.000 C 
ATOM     18  C   UNL     1       3.170   7.661  17.235  0.00  0.00    +0.000 C 
ATOM     19  C   UNL     1       1.828   9.354  18.373  0.00  0.00    +0.000 C 
ATOM     20  O   UNL     1       1.938  10.006  17.333  0.00  0.00    +0.000 OA
ATOM     21  C   UNL     1       1.096   9.949  19.535  0.00  0.00    +0.000 C 
ATOM     22  C   UNL     1       0.764  11.393  19.413  0.00  0.00    +0.000 C 
ATOM     23  C   UNL     1       0.757   9.158  20.571  0.00  0.00    +0.000 C 
ATOM     24  C   UNL     1      -0.140   9.593  21.692  0.00  0.00    +0.000 C 
ATOM     25  C   UNL     1       1.238   7.762  20.649  0.00  0.00    +0.000 C 
ATOM     26  O   UNL     1       0.835   7.057  21.561  0.00  0.00    +0.000 OA
ENDBRANCH  15  16
ENDBRANCH  14  15
ENDBRANCH   1  14
TORSDOF 10
ENDMDL
MODEL 6
REMARK VINA RESULT:      -6.5      1.041      1.212
REMARK  Name = 
REMARK  16 active torsions:
REMARK  status: ('A' for Active; 'I' for Inactive)
REMARK    1  A    between atoms: C_1  and  O_2
REMARK    2  A    between atoms: O_2  and  C_3
REMARK    3  A    between atoms: C_3  and  C_5
REMARK    4  A    between atoms: C_5  and  C_6
REMARK    5  A    between atoms: C_5  and  C_7
REMARK    6  A    between atoms: C_7  and  C_8
REMARK    7  A    between atoms: C_8  and  C_9
REMARK    8  A    between atoms: C_9  and  C_10
REMARK    9  A    between atoms: C_10  and  C_11
REMARK   10  A    between atoms: C_10  and  O_12
REMARK   11  A    between atoms: C_10  and  C_13
REMARK   12  A    between atoms: C_13  and  C_14
REMARK   13  A    between atoms: C_14  and  C_15
REMARK   14  A    between atoms: C_16  and  C_17
REMARK   15  A    between atoms: C_20  and  C_21
REMARK   16  A    between atoms: C_22  and  C_23
REMARK                            x       y       z     vdW  Elec       q    Type
REMARK                         _______ _______ _______ _____ _____    ______ ____
ROOT
ATOM      1  C   UNL     1       2.785   5.083  18.803  0.00  0.00    +0.000 C 
ATOM      2  C   UNL     1       1.615   4.236  18.233  0.00  0.00    +0.000 C 
ENDROOT
BRANCH   1   3
ATOM      3  O   UNL     1       2.717   5.034  20.236  0.00  0.00    +0.000 OA
ATOM      4  H   UNL     1       2.096   4.343  20.520  0.00  0.00    +0.000 HD
ENDBRANCH   1   3
BRANCH   1   5
ATOM      5  C   UNL     1       4.082   4.309  18.368  0.00  0.00    +0.000 C 
BRANCH   5   6
ATOM      6  C   UNL     1       4.345   4.106  16.866  0.00  0.00    +0.000 C 
BRANCH   6   7
ATOM      7  C   UNL     1       4.826   5.372  16.108  0.00  0.00    +0.000 C 
BRANCH   7   8
ATOM      8  C   UNL     1       6.142   5.199  15.333  0.00  0.00    +0.000 C 
ATOM      9  C   UNL     1       6.245   3.843  14.633  0.00  0.00    +0.000 C 
BRANCH   8  10
ATOM     10  C   UNL     1       7.300   5.338  16.299  0.00  0.00    +0.000 C 
ATOM     11  O   UNL     1       7.899   4.397  16.803  0.00  0.00    +0.000 OA
BRANCH  10  13
ATOM     12  C   UNL     1       7.614   6.942  17.967  0.00  0.00    +0.000 C 
ATOM     13  O   UNL     1       7.529   6.651  16.572  0.00  0.00    +0.000 OA
ENDBRANCH  10  13
ENDBRANCH   8  10
ENDBRANCH   7   8
ENDBRANCH   6   7
ENDBRANCH   5   6
ENDBRANCH   1   5
BRANCH   1  14
ATOM     14  C   UNL     1       2.553   6.602  18.387  0.00  0.00    +0.000 C 
BRANCH  14  15
ATOM     15  C   UNL     1       2.103   7.415  19.658  0.00  0.00    +0.000 C 
BRANCH  15  16
ATOM     16  C   UNL     1       1.435   8.775  19.879  0.00  0.00    +0.000 C 
ATOM     17  C   UNL     1       1.359   9.918  19.168  0.00  0.00    +0.000 C 
ATOM     18  C   UNL     1       1.859  10.230  17.779  0.00  0.00    +0.000 C 
ATOM     19  C   UNL     1       0.716  11.146  19.732  0.00  0.00    +0.000 C 
ATOM     20  O   UNL     1       0.588  12.171  19.061  0.00  0.00    +0.000 OA
ATOM     21  C   UNL     1       0.214  11.128  21.143  0.00  0.00    +0.000 C 
ATOM     22  C   UNL     1      -0.188  12.447  21.698  0.00  0.00    +0.000 C 
ATOM     23  C   UNL     1       0.122   9.951  21.792  0.00  0.00    +0.000 C 
ATOM     24  C   UNL     1      -0.544   9.786  23.126  0.00  0.00    +0.000 C 
ATOM     25  C   UNL     1       0.659   8.711  21.192  0.00  0.00    +0.000 C 
ATOM     26  O   UNL     1       0.477   7.654  21.777  0.00  0.00    +0.000 OA
ENDBRANCH  15  16
ENDBRANCH  14  15
ENDBRANCH   1  14
TORSDOF 10
ENDMDL
MODEL 7
REMARK VINA RESULT:      -6.5      1.873      3.170
REMARK  Name = 
REMARK  16 active torsions:
REMARK  status: ('A' for Active; 'I' for Inactive)
REMARK    1  A    between atoms: C_1  and  O_2
REMARK    2  A    between atoms: O_2  and  C_3
REMARK    3  A    between atoms: C_3  and  C_5
REMARK    4  A    between atoms: C_5  and  C_6
REMARK    5  A    between atoms: C_5  and  C_7
REMARK    6  A    between atoms: C_7  and  C_8
REMARK    7  A    between atoms: C_8  and  C_9
REMARK    8  A    between atoms: C_9  and  C_10
REMARK    9  A    between atoms: C_10  and  C_11
REMARK   10  A    between atoms: C_10  and  O_12
REMARK   11  A    between atoms: C_10  and  C_13
REMARK   12  A    between atoms: C_13  and  C_14
REMARK   13  A    between atoms: C_14  and  C_15
REMARK   14  A    between atoms: C_16  and  C_17
REMARK   15  A    between atoms: C_20  and  C_21
REMARK   16  A    between atoms: C_22  and  C_23
REMARK                            x       y       z     vdW  Elec       q    Type
REMARK                         _______ _______ _______ _____ _____    ______ ____
ROOT
ATOM      1  C   UNL     1       3.166   6.278  18.595  0.00  0.00    +0.000 C 
ATOM      2  C   UNL     1       2.035   5.377  18.028  0.00  0.00    +0.000 C 
ENDROOT
BRANCH   1   3
ATOM      3  O   UNL     1       2.883   6.535  19.979  0.00  0.00    +0.000 OA
ATOM      4  H   UNL     1       3.645   6.286  20.529  0.00  0.00    +0.000 HD
ENDBRANCH   1   3
BRANCH   1   5
ATOM      5  C   UNL     1       4.454   5.380  18.537  0.00  0.00    +0.000 C 
BRANCH   5   6
ATOM      6  C   UNL     1       4.462   4.172  17.584  0.00  0.00    +0.000 C 
BRANCH   6   7
ATOM      7  C   UNL     1       4.940   4.478  16.141  0.00  0.00    +0.000 C 
BRANCH   7   8
ATOM      8  C   UNL     1       6.382   4.047  15.833  0.00  0.00    +0.000 C 
ATOM      9  C   UNL     1       7.396   4.613  16.828  0.00  0.00    +0.000 C 
BRANCH   8  10
ATOM     10  C   UNL     1       6.748   4.522  14.441  0.00  0.00    +0.000 C 
ATOM     11  O   UNL     1       7.621   5.345  14.197  0.00  0.00    +0.000 OA
BRANCH  10  13
ATOM     12  C   UNL     1       6.580   3.612  12.298  0.00  0.00    +0.000 C 
ATOM     13  O   UNL     1       5.924   3.954  13.519  0.00  0.00    +0.000 OA
ENDBRANCH  10  13
ENDBRANCH   8  10
ENDBRANCH   7   8
ENDBRANCH   6   7
ENDBRANCH   5   6
ENDBRANCH   1   5
BRANCH   1  14
ATOM     14  C   UNL     1       3.107   7.684  17.850  0.00  0.00    +0.000 C 
BRANCH  14  15
ATOM     15  C   UNL     1       1.762   8.408  18.233  0.00  0.00    +0.000 C 
BRANCH  15  16
ATOM     16  C   UNL     1       1.393   9.555  19.178  0.00  0.00    +0.000 C 
ATOM     17  C   UNL     1       0.871   9.627  20.418  0.00  0.00    +0.000 C 
ATOM     18  C   UNL     1       0.539   8.526  21.395  0.00  0.00    +0.000 C 
ATOM     19  C   UNL     1       0.505  10.941  21.034  0.00  0.00    +0.000 C 
ATOM     20  O   UNL     1       0.087  11.014  22.192  0.00  0.00    +0.000 OA
ATOM     21  C   UNL     1       0.653  12.194  20.230  0.00  0.00    +0.000 C 
ATOM     22  C   UNL     1       0.047  13.415  20.826  0.00  0.00    +0.000 C 
ATOM     23  C   UNL     1       1.337  12.153  19.070  0.00  0.00    +0.000 C 
ATOM     24  C   UNL     1       1.714  13.373  18.282  0.00  0.00    +0.000 C 
ATOM     25  C   UNL     1       1.797  10.866  18.507  0.00  0.00    +0.000 C 
ATOM     26  O   UNL     1       2.487  10.884  17.499  0.00  0.00    +0.000 OA
ENDBRANCH  15  16
ENDBRANCH  14  15
ENDBRANCH   1  14
TORSDOF 10
ENDMDL
MODEL 8
REMARK VINA RESULT:      -6.4      1.863      2.584
REMARK  Name = 
REMARK  16 active torsions:
REMARK  status: ('A' for Active; 'I' for Inactive)
REMARK    1  A    between atoms: C_1  and  O_2
REMARK    2  A    between atoms: O_2  and  C_3
REMARK    3  A    between atoms: C_3  and  C_5
REMARK    4  A    between atoms: C_5  and  C_6
REMARK    5  A    between atoms: C_5  and  C_7
REMARK    6  A    between atoms: C_7  and  C_8
REMARK    7  A    between atoms: C_8  and  C_9
REMARK    8  A    between atoms: C_9  and  C_10
REMARK    9  A    between atoms: C_10  and  C_11
REMARK   10  A    between atoms: C_10  and  O_12
REMARK   11  A    between atoms: C_10  and  C_13
REMARK   12  A    between atoms: C_13  and  C_14
REMARK   13  A    between atoms: C_14  and  C_15
REMARK   14  A    between atoms: C_16  and  C_17
REMARK   15  A    between atoms: C_20  and  C_21
REMARK   16  A    between atoms: C_22  and  C_23
REMARK                            x       y       z     vdW  Elec       q    Type
REMARK                         _______ _______ _______ _____ _____    ______ ____
ROOT
ATOM      1  C   UNL     1       2.614   6.706  18.480  0.00  0.00    +0.000 C 
ATOM      2  C   UNL     1       1.831   5.401  18.168  0.00  0.00    +0.000 C 
ENDROOT
BRANCH   1   3
ATOM      3  O   UNL     1       2.725   6.831  19.906  0.00  0.00    +0.000 OA
ATOM      4  H   UNL     1       2.817   7.765  20.155  0.00  0.00    +0.000 HD
ENDBRANCH   1   3
BRANCH   1   5
ATOM      5  C   UNL     1       4.058   6.444  17.918  0.00  0.00    +0.000 C 
BRANCH   5   6
ATOM      6  C   UNL     1       4.272   5.242  16.982  0.00  0.00    +0.000 C 
BRANCH   6   7
ATOM      7  C   UNL     1       5.276   5.483  15.824  0.00  0.00    +0.000 C 
BRANCH   7   8
ATOM      8  C   UNL     1       6.394   4.436  15.710  0.00  0.00    +0.000 C 
ATOM      9  C   UNL     1       7.455   4.579  16.802  0.00  0.00    +0.000 C 
BRANCH   8  10
ATOM     10  C   UNL     1       7.064   4.582  14.358  0.00  0.00    +0.000 C 
ATOM     11  O   UNL     1       7.867   5.462  14.074  0.00  0.00    +0.000 OA
BRANCH  10  13
ATOM     12  C   UNL     1       6.758   3.987  12.121  0.00  0.00    +0.000 C 
ATOM     13  O   UNL     1       6.594   3.640  13.497  0.00  0.00    +0.000 OA
ENDBRANCH  10  13
ENDBRANCH   8  10
ENDBRANCH   7   8
ENDBRANCH   6   7
ENDBRANCH   5   6
ENDBRANCH   1   5
BRANCH   1  14
ATOM     14  C   UNL     1       1.745   7.943  17.981  0.00  0.00    +0.000 C 
BRANCH  14  15
ATOM     15  C   UNL     1       1.737   9.046  19.104  0.00  0.00    +0.000 C 
BRANCH  15  16
ATOM     16  C   UNL     1       0.638   9.804  19.854  0.00  0.00    +0.000 C 
ATOM     17  C   UNL     1      -0.288  10.719  19.505  0.00  0.00    +0.000 C 
ATOM     18  C   UNL     1      -0.638  11.272  18.145  0.00  0.00    +0.000 C 
ATOM     19  C   UNL     1      -1.160  11.376  20.528  0.00  0.00    +0.000 C 
ATOM     20  O   UNL     1      -2.049  12.165  20.204  0.00  0.00    +0.000 OA
ATOM     21  C   UNL     1      -0.950  11.066  21.977  0.00  0.00    +0.000 C 
ATOM     22  C   UNL     1      -1.689  11.933  22.933  0.00  0.00    +0.000 C 
ATOM     23  C   UNL     1      -0.161  10.029  22.320  0.00  0.00    +0.000 C 
ATOM     24  C   UNL     1      -0.034   9.506  23.720  0.00  0.00    +0.000 C 
ATOM     25  C   UNL     1       0.623   9.304  21.297  0.00  0.00    +0.000 C 
ATOM     26  O   UNL     1       1.256   8.317  21.640  0.00  0.00    +0.000 OA
ENDBRANCH  15  16
ENDBRANCH  14  15
ENDBRANCH   1  14
TORSDOF 10
ENDMDL
MODEL 9
REMARK VINA RESULT:      -6.4      1.583      2.677
REMARK  Name = 
REMARK  16 active torsions:
REMARK  status: ('A' for Active; 'I' for Inactive)
REMARK    1  A    between atoms: C_1  and  O_2
REMARK    2  A    between atoms: O_2  and  C_3
REMARK    3  A    between atoms: C_3  and  C_5
REMARK    4  A    between atoms: C_5  and  C_6
REMARK    5  A    between atoms: C_5  and  C_7
REMARK    6  A    between atoms: C_7  and  C_8
REMARK    7  A    between atoms: C_8  and  C_9
REMARK    8  A    between atoms: C_9  and  C_10
REMARK    9  A    between atoms: C_10  and  C_11
REMARK   10  A    between atoms: C_10  and  O_12
REMARK   11  A    between atoms: C_10  and  C_13
REMARK   12  A    between atoms: C_13  and  C_14
REMARK   13  A    between atoms: C_14  and  C_15
REMARK   14  A    between atoms: C_16  and  C_17
REMARK   15  A    between atoms: C_20  and  C_21
REMARK   16  A    between atoms: C_22  and  C_23
REMARK                            x       y       z     vdW  Elec       q    Type
REMARK                         _______ _______ _______ _____ _____    ______ ____
ROOT
ATOM      1  C   UNL     1       2.608   6.463  18.402  0.00  0.00    +0.000 C 
ATOM      2  C   UNL     1       1.834   5.137  18.173  0.00  0.00    +0.000 C 
ENDROOT
BRANCH   1   3
ATOM      3  O   UNL     1       2.690   6.695  19.817  0.00  0.00    +0.000 OA
ATOM      4  H   UNL     1       2.793   7.644  19.996  0.00  0.00    +0.000 HD
ENDBRANCH   1   3
BRANCH   1   5
ATOM      5  C   UNL     1       4.064   6.166  17.890  0.00  0.00    +0.000 C 
BRANCH   5   6
ATOM      6  C   UNL     1       4.636   4.752  18.092  0.00  0.00    +0.000 C 
BRANCH   6   7
ATOM      7  C   UNL     1       5.061   4.024  16.790  0.00  0.00    +0.000 C 
BRANCH   7   8
ATOM      8  C   UNL     1       5.825   4.895  15.781  0.00  0.00    +0.000 C 
ATOM      9  C   UNL     1       5.965   4.233  14.410  0.00  0.00    +0.000 C 
BRANCH   8  10
ATOM     10  C   UNL     1       7.209   5.176  16.330  0.00  0.00    +0.000 C 
ATOM     11  O   UNL     1       7.944   4.331  16.825  0.00  0.00    +0.000 OA
BRANCH  10  13
ATOM     12  C   UNL     1       7.539   7.157  17.522  0.00  0.00    +0.000 C 
ATOM     13  O   UNL     1       7.484   6.507  16.252  0.00  0.00    +0.000 OA
ENDBRANCH  10  13
ENDBRANCH   8  10
ENDBRANCH   7   8
ENDBRANCH   6   7
ENDBRANCH   5   6
ENDBRANCH   1   5
BRANCH   1  14
ATOM     14  C   UNL     1       1.748   7.657  17.794  0.00  0.00    +0.000 C 
BRANCH  14  15
ATOM     15  C   UNL     1       2.044   8.968  18.614  0.00  0.00    +0.000 C 
BRANCH  15  16
ATOM     16  C   UNL     1       1.188   9.929  19.444  0.00  0.00    +0.000 C 
ATOM     17  C   UNL     1       0.401   9.797  20.530  0.00  0.00    +0.000 C 
ATOM     18  C   UNL     1       0.155   8.595  21.408  0.00  0.00    +0.000 C 
ATOM     19  C   UNL     1      -0.421  10.939  21.040  0.00  0.00    +0.000 C 
ATOM     20  O   UNL     1      -1.092  10.839  22.069  0.00  0.00    +0.000 OA
ATOM     21  C   UNL     1      -0.427  12.232  20.286  0.00  0.00    +0.000 C 
ATOM     22  C   UNL     1      -1.446  13.224  20.722  0.00  0.00    +0.000 C 
ATOM     23  C   UNL     1       0.485  12.430  19.316  0.00  0.00    +0.000 C 
ATOM     24  C   UNL     1       0.700  13.748  18.632  0.00  0.00    +0.000 C 
ATOM     25  C   UNL     1       1.378  11.335  18.879  0.00  0.00    +0.000 C 
ATOM     26  O   UNL     1       2.247  11.584  18.058  0.00  0.00    +0.000 OA
ENDBRANCH  15  16
ENDBRANCH  14  15
ENDBRANCH   1  14
TORSDOF 10
ENDMDL
