MODEL 1
REMARK VINA RESULT:     -10.2      0.000      0.000
REMARK  Name = 
REMARK  7 active torsions:
REMARK  status: ('A' for Active; 'I' for Inactive)
REMARK    1  A    between atoms: C_2  and  C_3
REMARK    2  A    between atoms: C_4  and  C_5
REMARK    3  A    between atoms: C_8  and  N_9
REMARK    4  A    between atoms: N_14  and  C_15
REMARK    5  A    between atoms: C_15  and  C_16
REMARK    6  A    between atoms: C_16  and  N_17
REMARK    7  A    between atoms: C_22  and  C_23
REMARK                            x       y       z     vdW  Elec       q    Type
REMARK                         _______ _______ _______ _____ _____    ______ ____
ROOT
ATOM      1  C   UNL     1       7.748   5.845  19.153  0.00  0.00    +0.000 C 
ENDROOT
BRANCH   1   4
ATOM      2  O   UNL     1       6.854   7.794  17.271  0.00  0.00    +0.000 OA
ATOM      3  C   UNL     1       7.820   8.036  17.982  0.00  0.00    +0.000 C 
ATOM      4  N   UNL     1       8.325   7.164  18.918  0.00  0.00    +0.000 N 
ATOM      5  H   UNL     1       9.128   7.433  19.470  0.00  0.00    +0.000 HD
BRANCH   3   6
ATOM      6  C   UNL     1       8.583   9.313  17.892  0.00  0.00    +0.000 C 
ATOM      7  C   UNL     1       9.195   9.821  18.974  0.00  0.00    +0.000 C 
BRANCH   7   8
ATOM      8  C   UNL     1       9.881  11.116  18.934  0.00  0.00    +0.000 A 
ATOM      9  C   UNL     1      10.568  11.573  20.067  0.00  0.00    +0.000 A 
ATOM     10  C   UNL     1      11.202  12.821  20.062  0.00  0.00    +0.000 A 
ATOM     11  C   UNL     1      11.154  13.614  18.908  0.00  0.00    +0.000 A 
ATOM     12  C   UNL     1      10.477  13.165  17.768  0.00  0.00    +0.000 A 
ATOM     13  C   UNL     1       9.840  11.917  17.786  0.00  0.00    +0.000 A 
BRANCH  11  14
ATOM     14  N   UNL     1      11.814  14.926  18.896  0.00  0.00    +0.000 N 
ATOM     15  O   UNL     1      12.333  15.302  17.835  0.00  0.00    +0.000 OA
ATOM     16  O   UNL     1      11.817  15.580  19.949  0.00  0.00    +0.000 OA
ENDBRANCH  11  14
ENDBRANCH   7   8
ENDBRANCH   3   6
ENDBRANCH   1   4
BRANCH   1  17
ATOM     17  C   UNL     1       7.994   4.862  17.999  0.00  0.00    +0.000 C 
BRANCH  17  18
ATOM     18  N   UNL     1       6.799   4.642  17.188  0.00  0.00    +0.000 N 
ATOM     19  C   UNL     1       6.802   4.848  15.838  0.00  0.00    +0.000 C 
ATOM     20  O   UNL     1       7.733   5.226  15.149  0.00  0.00    +0.000 OA
ATOM     21  S   UNL     1       5.220   4.483  15.169  0.00  0.00    +0.000 S 
ATOM     22  C   UNL     1       4.553   4.121  16.720  0.00  0.00    +0.000 C 
ATOM     23  C   UNL     1       3.268   3.778  16.891  0.00  0.00    +0.000 C 
ATOM     24  C   UNL     1       5.607   4.264  17.766  0.00  0.00    +0.000 C 
ATOM     25  O   UNL     1       5.435   4.081  18.963  0.00  0.00    +0.000 OA
BRANCH  23  26
ATOM     26  C   UNL     1       2.634   3.494  18.179  0.00  0.00    +0.000 A 
ATOM     27  C   UNL     1       2.041   4.531  18.910  0.00  0.00    +0.000 A 
ATOM     28  C   UNL     1       1.400   4.255  20.119  0.00  0.00    +0.000 A 
ATOM     29  C   UNL     1       1.354   2.948  20.587  0.00  0.00    +0.000 A 
ATOM     30  F   UNL     1       0.714   2.680  21.733  0.00  0.00    +0.000 F 
ATOM     31  C   UNL     1       1.952   1.911  19.878  0.00  0.00    +0.000 A 
ATOM     32  C   UNL     1       2.601   2.184  18.674  0.00  0.00    +0.000 A 
ENDBRANCH  23  26
ENDBRANCH  17  18
ENDBRANCH   1  17
TORSDOF 7
ENDMDL
MODEL 2
REMARK VINA RESULT:      -8.9      1.730      2.550
REMARK  Name = 
REMARK  7 active torsions:
REMARK  status: ('A' for Active; 'I' for Inactive)
REMARK    1  A    between atoms: C_2  and  C_3
REMARK    2  A    between atoms: C_4  and  C_5
REMARK    3  A    between atoms: C_8  and  N_9
REMARK    4  A    between atoms: N_14  and  C_15
REMARK    5  A    between atoms: C_15  and  C_16
REMARK    6  A    between atoms: C_16  and  N_17
REMARK    7  A    between atoms: C_22  and  C_23
REMARK                            x       y       z     vdW  Elec       q    Type
REMARK                         _______ _______ _______ _____ _____    ______ ____
ROOT
ATOM      1  C   UNL     1       7.292   4.323  16.998  0.00  0.00    +0.000 C 
ENDROOT
BRANCH   1   4
ATOM      2  O   UNL     1       7.643   5.175  19.698  0.00  0.00    +0.000 OA
ATOM      3  C   UNL     1       7.881   5.951  18.782  0.00  0.00    +0.000 C 
ATOM      4  N   UNL     1       7.744   5.634  17.451  0.00  0.00    +0.000 N 
ATOM      5  H   UNL     1       7.959   6.328  16.747  0.00  0.00    +0.000 HD
BRANCH   3   6
ATOM      6  C   UNL     1       8.329   7.353  19.013  0.00  0.00    +0.000 C 
ATOM      7  C   UNL     1       8.027   8.320  18.132  0.00  0.00    +0.000 C 
BRANCH   7   8
ATOM      8  C   UNL     1       8.526   9.690  18.292  0.00  0.00    +0.000 A 
ATOM      9  C   UNL     1       8.035  10.708  17.464  0.00  0.00    +0.000 A 
ATOM     10  C   UNL     1       8.520  12.017  17.577  0.00  0.00    +0.000 A 
ATOM     11  C   UNL     1       9.500  12.307  18.535  0.00  0.00    +0.000 A 
ATOM     12  C   UNL     1       9.994  11.299  19.372  0.00  0.00    +0.000 A 
ATOM     13  C   UNL     1       9.506   9.993  19.246  0.00  0.00    +0.000 A 
BRANCH  11  14
ATOM     14  N   UNL     1      10.018  13.677  18.657  0.00  0.00    +0.000 N 
ATOM     15  O   UNL     1       9.640  14.514  17.824  0.00  0.00    +0.000 OA
ATOM     16  O   UNL     1      10.807  13.915  19.583  0.00  0.00    +0.000 OA
ENDBRANCH  11  14
ENDBRANCH   7   8
ENDBRANCH   3   6
ENDBRANCH   1   4
BRANCH   1  17
ATOM     17  C   UNL     1       6.025   4.386  16.132  0.00  0.00    +0.000 C 
BRANCH  17  18
ATOM     18  N   UNL     1       5.017   5.290  16.681  0.00  0.00    +0.000 N 
ATOM     19  C   UNL     1       4.904   6.582  16.252  0.00  0.00    +0.000 C 
ATOM     20  O   UNL     1       5.581   7.144  15.410  0.00  0.00    +0.000 OA
ATOM     21  S   UNL     1       3.594   7.386  17.102  0.00  0.00    +0.000 S 
ATOM     22  C   UNL     1       3.256   5.998  18.070  0.00  0.00    +0.000 C 
ATOM     23  C   UNL     1       2.303   5.991  19.014  0.00  0.00    +0.000 C 
ATOM     24  C   UNL     1       4.172   4.884  17.690  0.00  0.00    +0.000 C 
ATOM     25  O   UNL     1       4.178   3.775  18.206  0.00  0.00    +0.000 OA
BRANCH  23  26
ATOM     26  C   UNL     1       1.991   4.861  19.890  0.00  0.00    +0.000 A 
ATOM     27  C   UNL     1       1.116   3.858  19.453  0.00  0.00    +0.000 A 
ATOM     28  C   UNL     1       0.850   2.759  20.271  0.00  0.00    +0.000 A 
ATOM     29  C   UNL     1       1.460   2.668  21.517  0.00  0.00    +0.000 A 
ATOM     30  F   UNL     1       1.225   1.599  22.289  0.00  0.00    +0.000 F 
ATOM     31  C   UNL     1       2.319   3.664  21.969  0.00  0.00    +0.000 A 
ATOM     32  C   UNL     1       2.581   4.769  21.157  0.00  0.00    +0.000 A 
ENDBRANCH  23  26
ENDBRANCH  17  18
ENDBRANCH   1  17
TORSDOF 7
ENDMDL
MODEL 3
REMARK VINA RESULT:      -8.3      1.826      2.213
REMARK  Name = 
REMARK  7 active torsions:
REMARK  status: ('A' for Active; 'I' for Inactive)
REMARK    1  A    between atoms: C_2  and  C_3
REMARK    2  A    between atoms: C_4  and  C_5
REMARK    3  A    between atoms: C_8  and  N_9
REMARK    4  A    between atoms: N_14  and  C_15
REMARK    5  A    between atoms: C_15  and  C_16
REMARK    6  A    between atoms: C_16  and  N_17
REMARK    7  A    between atoms: C_22  and  C_23
REMARK                            x       y       z     vdW  Elec       q    Type
REMARK                         _______ _______ _______ _____ _____    ______ ____
ROOT
ATOM      1  C   UNL     1       7.457   7.468  17.392  0.00  0.00    +0.000 C 
ENDROOT
BRANCH   1   4
ATOM      2  O   UNL     1       9.004   8.938  19.286  0.00  0.00    +0.000 OA
ATOM      3  C   UNL     1       8.575   9.500  18.287  0.00  0.00    +0.000 C 
ATOM      4  N   UNL     1       7.822   8.878  17.318  0.00  0.00    +0.000 N 
ATOM      5  H   UNL     1       7.502   9.407  16.518  0.00  0.00    +0.000 HD
BRANCH   3   6
ATOM      6  C   UNL     1       8.804  10.948  18.020  0.00  0.00    +0.000 C 
ATOM      7  C   UNL     1       9.537  11.690  18.865  0.00  0.00    +0.000 C 
BRANCH   7   8
ATOM      8  C   UNL     1       9.708  13.134  18.672  0.00  0.00    +0.000 A 
ATOM      9  C   UNL     1       8.630  13.998  18.910  0.00  0.00    +0.000 A 
ATOM     10  C   UNL     1       8.761  15.376  18.701  0.00  0.00    +0.000 A 
ATOM     11  C   UNL     1       9.986  15.893  18.258  0.00  0.00    +0.000 A 
ATOM     12  C   UNL     1      11.071  15.040  18.024  0.00  0.00    +0.000 A 
ATOM     13  C   UNL     1      10.927  13.662  18.230  0.00  0.00    +0.000 A 
BRANCH  11  14
ATOM     14  N   UNL     1      10.130  17.337  18.033  0.00  0.00    +0.000 N 
ATOM     15  O   UNL     1       9.756  18.102  18.934  0.00  0.00    +0.000 OA
ATOM     16  O   UNL     1      10.612  17.707  16.953  0.00  0.00    +0.000 OA
ENDBRANCH  11  14
ENDBRANCH   7   8
ENDBRANCH   3   6
ENDBRANCH   1   4
BRANCH   1  17
ATOM     17  C   UNL     1       5.939   7.234  17.347  0.00  0.00    +0.000 C 
BRANCH  17  18
ATOM     18  N   UNL     1       5.596   5.861  16.984  0.00  0.00    +0.000 N 
ATOM     19  C   UNL     1       6.031   5.300  15.817  0.00  0.00    +0.000 C 
ATOM     20  O   UNL     1       6.717   5.821  14.956  0.00  0.00    +0.000 OA
ATOM     21  S   UNL     1       5.456   3.645  15.693  0.00  0.00    +0.000 S 
ATOM     22  C   UNL     1       4.583   3.747  17.180  0.00  0.00    +0.000 C 
ATOM     23  C   UNL     1       3.850   2.731  17.657  0.00  0.00    +0.000 C 
ATOM     24  C   UNL     1       4.779   5.096  17.786  0.00  0.00    +0.000 C 
ATOM     25  O   UNL     1       4.280   5.470  18.838  0.00  0.00    +0.000 OA
BRANCH  23  26
ATOM     26  C   UNL     1       3.061   2.766  18.889  0.00  0.00    +0.000 A 
ATOM     27  C   UNL     1       1.687   3.036  18.833  0.00  0.00    +0.000 A 
ATOM     28  C   UNL     1       0.926   3.029  20.002  0.00  0.00    +0.000 A 
ATOM     29  C   UNL     1       1.539   2.749  21.217  0.00  0.00    +0.000 A 
ATOM     30  F   UNL     1       0.802   2.714  22.335  0.00  0.00    +0.000 F 
ATOM     31  C   UNL     1       2.904   2.492  21.289  0.00  0.00    +0.000 A 
ATOM     32  C   UNL     1       3.671   2.508  20.123  0.00  0.00    +0.000 A 
ENDBRANCH  23  26
ENDBRANCH  17  18
ENDBRANCH   1  17
TORSDOF 7
ENDMDL
MODEL 4
REMARK VINA RESULT:      -8.2      7.319     10.368
REMARK  Name = 
REMARK  7 active torsions:
REMARK  status: ('A' for Active; 'I' for Inactive)
REMARK    1  A    between atoms: C_2  and  C_3
REMARK    2  A    between atoms: C_4  and  C_5
REMARK    3  A    between atoms: C_8  and  N_9
REMARK    4  A    between atoms: N_14  and  C_15
REMARK    5  A    between atoms: C_15  and  C_16
REMARK    6  A    between atoms: C_16  and  N_17
REMARK    7  A    between atoms: C_22  and  C_23
REMARK                            x       y       z     vdW  Elec       q    Type
REMARK                         _______ _______ _______ _____ _____    ______ ____
ROOT
ATOM      1  C   UNL     1       1.059   7.923  21.563  0.00  0.00    +0.000 C 
ENDROOT
BRANCH   1   4
ATOM      2  O   UNL     1       1.184   5.152  20.894  0.00  0.00    +0.000 OA
ATOM      3  C   UNL     1       1.913   5.948  20.318  0.00  0.00    +0.000 C 
ATOM      4  N   UNL     1       1.926   7.301  20.568  0.00  0.00    +0.000 N 
ATOM      5  H   UNL     1       2.557   7.899  20.052  0.00  0.00    +0.000 HD
BRANCH   3   6
ATOM      6  C   UNL     1       2.900   5.529  19.282  0.00  0.00    +0.000 C 
ATOM      7  C   UNL     1       3.204   6.344  18.259  0.00  0.00    +0.000 C 
BRANCH   7   8
ATOM      8  C   UNL     1       4.106   5.924  17.182  0.00  0.00    +0.000 A 
ATOM      9  C   UNL     1       4.387   4.562  17.005  0.00  0.00    +0.000 A 
ATOM     10  C   UNL     1       5.270   4.142  16.003  0.00  0.00    +0.000 A 
ATOM     11  C   UNL     1       5.869   5.093  15.168  0.00  0.00    +0.000 A 
ATOM     12  C   UNL     1       5.590   6.456  15.331  0.00  0.00    +0.000 A 
ATOM     13  C   UNL     1       4.710   6.866  16.341  0.00  0.00    +0.000 A 
BRANCH  11  14
ATOM     14  N   UNL     1       6.800   4.660  14.117  0.00  0.00    +0.000 N 
ATOM     15  O   UNL     1       6.465   3.699  13.409  0.00  0.00    +0.000 OA
ATOM     16  O   UNL     1       7.869   5.277  14.003  0.00  0.00    +0.000 OA
ENDBRANCH  11  14
ENDBRANCH   7   8
ENDBRANCH   3   6
ENDBRANCH   1   4
BRANCH   1  17
ATOM     17  C   UNL     1       1.316   9.428  21.733  0.00  0.00    +0.000 C 
BRANCH  17  18
ATOM     18  N   UNL     1       0.335  10.245  21.024  0.00  0.00    +0.000 N 
ATOM     19  C   UNL     1       0.182  10.167  19.669  0.00  0.00    +0.000 C 
ATOM     20  O   UNL     1       0.800   9.459  18.895  0.00  0.00    +0.000 OA
ATOM     21  S   UNL     1      -1.082  11.266  19.141  0.00  0.00    +0.000 S 
ATOM     22  C   UNL     1      -1.346  11.867  20.737  0.00  0.00    +0.000 C 
ATOM     23  C   UNL     1      -2.239  12.829  21.008  0.00  0.00    +0.000 C 
ATOM     24  C   UNL     1      -0.442  11.164  21.694  0.00  0.00    +0.000 C 
ATOM     25  O   UNL     1      -0.393  11.379  22.897  0.00  0.00    +0.000 OA
BRANCH  23  26
ATOM     26  C   UNL     1      -2.485  13.405  22.331  0.00  0.00    +0.000 A 
ATOM     27  C   UNL     1      -1.755  14.525  22.753  0.00  0.00    +0.000 A 
ATOM     28  C   UNL     1      -2.017  15.100  23.996  0.00  0.00    +0.000 A 
ATOM     29  C   UNL     1      -3.006  14.557  24.808  0.00  0.00    +0.000 A 
ATOM     30  F   UNL     1      -3.275  15.128  25.989  0.00  0.00    +0.000 F 
ATOM     31  C   UNL     1      -3.727  13.438  24.408  0.00  0.00    +0.000 A 
ATOM     32  C   UNL     1      -3.462  12.854  23.168  0.00  0.00    +0.000 A 
ENDBRANCH  23  26
ENDBRANCH  17  18
ENDBRANCH   1  17
TORSDOF 7
ENDMDL
MODEL 5
REMARK VINA RESULT:      -8.1      4.399      5.326
REMARK  Name = 
REMARK  7 active torsions:
REMARK  status: ('A' for Active; 'I' for Inactive)
REMARK    1  A    between atoms: C_2  and  C_3
REMARK    2  A    between atoms: C_4  and  C_5
REMARK    3  A    between atoms: C_8  and  N_9
REMARK    4  A    between atoms: N_14  and  C_15
REMARK    5  A    between atoms: C_15  and  C_16
REMARK    6  A    between atoms: C_16  and  N_17
REMARK    7  A    between atoms: C_22  and  C_23
REMARK                            x       y       z     vdW  Elec       q    Type
REMARK                         _______ _______ _______ _____ _____    ______ ____
ROOT
ATOM      1  C   UNL     1       5.658   6.546  17.044  0.00  0.00    +0.000 C 
ENDROOT
BRANCH   1   4
ATOM      2  O   UNL     1       8.094   6.806  18.507  0.00  0.00    +0.000 OA
ATOM      3  C   UNL     1       7.648   7.768  17.896  0.00  0.00    +0.000 C 
ATOM      4  N   UNL     1       6.484   7.741  17.163  0.00  0.00    +0.000 N 
ATOM      5  H   UNL     1       6.176   8.577  16.684  0.00  0.00    +0.000 HD
BRANCH   3   6
ATOM      6  C   UNL     1       8.314   9.101  17.901  0.00  0.00    +0.000 C 
ATOM      7  C   UNL     1       9.003   9.516  18.976  0.00  0.00    +0.000 C 
BRANCH   7   8
ATOM      8  C   UNL     1       9.596  10.855  19.040  0.00  0.00    +0.000 A 
ATOM      9  C   UNL     1      10.082  11.456  17.870  0.00  0.00    +0.000 A 
ATOM     10  C   UNL     1      10.681  12.720  17.913  0.00  0.00    +0.000 A 
ATOM     11  C   UNL     1      10.785  13.392  19.137  0.00  0.00    +0.000 A 
ATOM     12  C   UNL     1      10.296  12.806  20.311  0.00  0.00    +0.000 A 
ATOM     13  C   UNL     1       9.705  11.537  20.258  0.00  0.00    +0.000 A 
BRANCH  11  14
ATOM     14  N   UNL     1      11.415  14.718  19.191  0.00  0.00    +0.000 N 
ATOM     15  O   UNL     1      11.669  15.281  18.116  0.00  0.00    +0.000 OA
ATOM     16  O   UNL     1      11.662  15.195  20.309  0.00  0.00    +0.000 OA
ENDBRANCH  11  14
ENDBRANCH   7   8
ENDBRANCH   3   6
ENDBRANCH   1   4
BRANCH   1  17
ATOM     17  C   UNL     1       4.182   6.856  16.751  0.00  0.00    +0.000 C 
BRANCH  17  18
ATOM     18  N   UNL     1       3.382   6.968  17.968  0.00  0.00    +0.000 N 
ATOM     19  C   UNL     1       3.343   5.963  18.893  0.00  0.00    +0.000 C 
ATOM     20  O   UNL     1       3.921   4.892  18.848  0.00  0.00    +0.000 OA
ATOM     21  S   UNL     1       2.304   6.419  20.234  0.00  0.00    +0.000 S 
ATOM     22  C   UNL     1       1.882   7.927  19.506  0.00  0.00    +0.000 C 
ATOM     23  C   UNL     1       1.025   8.787  20.074  0.00  0.00    +0.000 C 
ATOM     24  C   UNL     1       2.598   8.074  18.206  0.00  0.00    +0.000 C 
ATOM     25  O   UNL     1       2.496   9.035  17.455  0.00  0.00    +0.000 OA
BRANCH  23  26
ATOM     26  C   UNL     1       0.600  10.062  19.493  0.00  0.00    +0.000 A 
ATOM     27  C   UNL     1      -0.554  10.119  18.701  0.00  0.00    +0.000 A 
ATOM     28  C   UNL     1      -0.983  11.341  18.181  0.00  0.00    +0.000 A 
ATOM     29  C   UNL     1      -0.261  12.496  18.458  0.00  0.00    +0.000 A 
ATOM     30  F   UNL     1      -0.690  13.671  17.982  0.00  0.00    +0.000 F 
ATOM     31  C   UNL     1       0.894  12.451  19.231  0.00  0.00    +0.000 A 
ATOM     32  C   UNL     1       1.332  11.229  19.746  0.00  0.00    +0.000 A 
ENDBRANCH  23  26
ENDBRANCH  17  18
ENDBRANCH   1  17
TORSDOF 7
ENDMDL
MODEL 6
REMARK VINA RESULT:      -8.1      4.365      5.228
REMARK  Name = 
REMARK  7 active torsions:
REMARK  status: ('A' for Active; 'I' for Inactive)
REMARK    1  A    between atoms: C_2  and  C_3
REMARK    2  A    between atoms: C_4  and  C_5
REMARK    3  A    between atoms: C_8  and  N_9
REMARK    4  A    between atoms: N_14  and  C_15
REMARK    5  A    between atoms: C_15  and  C_16
REMARK    6  A    between atoms: C_16  and  N_17
REMARK    7  A    between atoms: C_22  and  C_23
REMARK                            x       y       z     vdW  Elec       q    Type
REMARK                         _______ _______ _______ _____ _____    ______ ____
ROOT
ATOM      1  C   UNL     1       5.678   6.581  17.113  0.00  0.00    +0.000 C 
ENDROOT
BRANCH   1   4
ATOM      2  O   UNL     1       8.100   6.889  18.589  0.00  0.00    +0.000 OA
ATOM      3  C   UNL     1       7.683   7.816  17.908  0.00  0.00    +0.000 C 
ATOM      4  N   UNL     1       6.529   7.764  17.161  0.00  0.00    +0.000 N 
ATOM      5  H   UNL     1       6.246   8.571  16.622  0.00  0.00    +0.000 HD
BRANCH   3   6
ATOM      6  C   UNL     1       8.378   9.132  17.830  0.00  0.00    +0.000 C 
ATOM      7  C   UNL     1       8.982   9.650  18.912  0.00  0.00    +0.000 C 
BRANCH   7   8
ATOM      8  C   UNL     1       9.599  10.979  18.886  0.00  0.00    +0.000 A 
ATOM      9  C   UNL     1      10.550  11.322  19.858  0.00  0.00    +0.000 A 
ATOM     10  C   UNL     1      11.129  12.597  19.871  0.00  0.00    +0.000 A 
ATOM     11  C   UNL     1      10.758  13.532  18.897  0.00  0.00    +0.000 A 
ATOM     12  C   UNL     1       9.815  13.199  17.917  0.00  0.00    +0.000 A 
ATOM     13  C   UNL     1       9.237  11.923  17.917  0.00  0.00    +0.000 A 
BRANCH  11  14
ATOM     14  N   UNL     1      11.358  14.873  18.907  0.00  0.00    +0.000 N 
ATOM     15  O   UNL     1      12.102  15.166  19.854  0.00  0.00    +0.000 OA
ATOM     16  O   UNL     1      11.081  15.636  17.970  0.00  0.00    +0.000 OA
ENDBRANCH  11  14
ENDBRANCH   7   8
ENDBRANCH   3   6
ENDBRANCH   1   4
BRANCH   1  17
ATOM     17  C   UNL     1       4.205   6.906  16.817  0.00  0.00    +0.000 C 
BRANCH  17  18
ATOM     18  N   UNL     1       3.394   6.974  18.029  0.00  0.00    +0.000 N 
ATOM     19  C   UNL     1       3.365   5.947  18.930  0.00  0.00    +0.000 C 
ATOM     20  O   UNL     1       3.963   4.889  18.865  0.00  0.00    +0.000 OA
ATOM     21  S   UNL     1       2.307   6.353  20.272  0.00  0.00    +0.000 S 
ATOM     22  C   UNL     1       1.864   7.869  19.576  0.00  0.00    +0.000 C 
ATOM     23  C   UNL     1       0.986   8.700  20.156  0.00  0.00    +0.000 C 
ATOM     24  C   UNL     1       2.587   8.060  18.286  0.00  0.00    +0.000 C 
ATOM     25  O   UNL     1       2.474   9.036  17.557  0.00  0.00    +0.000 OA
BRANCH  23  26
ATOM     26  C   UNL     1       0.543   9.981  19.602  0.00  0.00    +0.000 A 
ATOM     27  C   UNL     1       1.259  11.151  19.886  0.00  0.00    +0.000 A 
ATOM     28  C   UNL     1       0.861  12.365  19.325  0.00  0.00    +0.000 A 
ATOM     29  C   UNL     1      -0.244  12.403  18.484  0.00  0.00    +0.000 A 
ATOM     30  F   UNL     1      -0.607  13.564  17.924  0.00  0.00    +0.000 F 
ATOM     31  C   UNL     1      -0.973  11.251  18.206  0.00  0.00    +0.000 A 
ATOM     32  C   UNL     1      -0.584  10.036  18.772  0.00  0.00    +0.000 A 
ENDBRANCH  23  26
ENDBRANCH  17  18
ENDBRANCH   1  17
TORSDOF 7
ENDMDL
MODEL 7
REMARK VINA RESULT:      -8.1      7.943     11.285
REMARK  Name = 
REMARK  7 active torsions:
REMARK  status: ('A' for Active; 'I' for Inactive)
REMARK    1  A    between atoms: C_2  and  C_3
REMARK    2  A    between atoms: C_4  and  C_5
REMARK    3  A    between atoms: C_8  and  N_9
REMARK    4  A    between atoms: N_14  and  C_15
REMARK    5  A    between atoms: C_15  and  C_16
REMARK    6  A    between atoms: C_16  and  N_17
REMARK    7  A    between atoms: C_22  and  C_23
REMARK                            x       y       z     vdW  Elec       q    Type
REMARK                         _______ _______ _______ _____ _____    ______ ____
ROOT
ATOM      1  C   UNL     1       0.944  13.055  21.335  0.00  0.00    +0.000 C 
ENDROOT
BRANCH   1   4
ATOM      2  O   UNL     1       0.308  10.499  22.433  0.00  0.00    +0.000 OA
ATOM      3  C   UNL     1       0.725  10.580  21.285  0.00  0.00    +0.000 C 
ATOM      4  N   UNL     1       1.057  11.763  20.668  0.00  0.00    +0.000 N 
ATOM      5  H   UNL     1       1.396  11.752  19.715  0.00  0.00    +0.000 HD
BRANCH   3   6
ATOM      6  C   UNL     1       0.945   9.382  20.425  0.00  0.00    +0.000 C 
ATOM      7  C   UNL     1       1.577   8.301  20.909  0.00  0.00    +0.000 C 
BRANCH   7   8
ATOM      8  C   UNL     1       1.882   7.144  20.062  0.00  0.00    +0.000 A 
ATOM      9  C   UNL     1       1.624   5.850  20.536  0.00  0.00    +0.000 A 
ATOM     10  C   UNL     1       1.937   4.730  19.756  0.00  0.00    +0.000 A 
ATOM     11  C   UNL     1       2.505   4.909  18.488  0.00  0.00    +0.000 A 
ATOM     12  C   UNL     1       2.759   6.197  18.002  0.00  0.00    +0.000 A 
ATOM     13  C   UNL     1       2.448   7.311  18.792  0.00  0.00    +0.000 A 
BRANCH  11  14
ATOM     14  N   UNL     1       2.839   3.738  17.666  0.00  0.00    +0.000 N 
ATOM     15  O   UNL     1       1.952   2.894  17.475  0.00  0.00    +0.000 OA
ATOM     16  O   UNL     1       3.991   3.661  17.215  0.00  0.00    +0.000 OA
ENDBRANCH  11  14
ENDBRANCH   7   8
ENDBRANCH   3   6
ENDBRANCH   1   4
BRANCH   1  17
ATOM     17  C   UNL     1      -0.043  14.009  20.644  0.00  0.00    +0.000 C 
BRANCH  17  18
ATOM     18  N   UNL     1      -1.404  13.480  20.616  0.00  0.00    +0.000 N 
ATOM     19  C   UNL     1      -2.254  13.635  21.674  0.00  0.00    +0.000 C 
ATOM     20  O   UNL     1      -2.024  14.193  22.732  0.00  0.00    +0.000 OA
ATOM     21  S   UNL     1      -3.806  12.898  21.313  0.00  0.00    +0.000 S 
ATOM     22  C   UNL     1      -3.275  12.332  19.771  0.00  0.00    +0.000 C 
ATOM     23  C   UNL     1      -4.059  11.610  18.957  0.00  0.00    +0.000 C 
ATOM     24  C   UNL     1      -1.866  12.761  19.536  0.00  0.00    +0.000 C 
ATOM     25  O   UNL     1      -1.213  12.503  18.535  0.00  0.00    +0.000 OA
BRANCH  23  26
ATOM     26  C   UNL     1      -3.659  11.072  17.656  0.00  0.00    +0.000 A 
ATOM     27  C   UNL     1      -2.766   9.994  17.591  0.00  0.00    +0.000 A 
ATOM     28  C   UNL     1      -2.415   9.454  16.353  0.00  0.00    +0.000 A 
ATOM     29  C   UNL     1      -2.959   9.989  15.192  0.00  0.00    +0.000 A 
ATOM     30  F   UNL     1      -2.643   9.451  14.007  0.00  0.00    +0.000 F 
ATOM     31  C   UNL     1      -3.835  11.069  15.242  0.00  0.00    +0.000 A 
ATOM     32  C   UNL     1      -4.182  11.618  16.478  0.00  0.00    +0.000 A 
ENDBRANCH  23  26
ENDBRANCH  17  18
ENDBRANCH   1  17
TORSDOF 7
ENDMDL
MODEL 8
REMARK VINA RESULT:      -8.1      8.240     11.633
REMARK  Name = 
REMARK  7 active torsions:
REMARK  status: ('A' for Active; 'I' for Inactive)
REMARK    1  A    between atoms: C_2  and  C_3
REMARK    2  A    between atoms: C_4  and  C_5
REMARK    3  A    between atoms: C_8  and  N_9
REMARK    4  A    between atoms: N_14  and  C_15
REMARK    5  A    between atoms: C_15  and  C_16
REMARK    6  A    between atoms: C_16  and  N_17
REMARK    7  A    between atoms: C_22  and  C_23
REMARK                            x       y       z     vdW  Elec       q    Type
REMARK                         _______ _______ _______ _____ _____    ______ ____
ROOT
ATOM      1  C   UNL     1       0.006  11.201  18.584  0.00  0.00    +0.000 C 
ENDROOT
BRANCH   1   4
ATOM      2  O   UNL     1       2.550  10.557  17.464  0.00  0.00    +0.000 OA
ATOM      3  C   UNL     1       1.876   9.677  17.983  0.00  0.00    +0.000 C 
ATOM      4  N   UNL     1       0.640   9.888  18.549  0.00  0.00    +0.000 N 
ATOM      5  H   UNL     1       0.140   9.112  18.960  0.00  0.00    +0.000 HD
BRANCH   3   6
ATOM      6  C   UNL     1       2.315   8.254  18.036  0.00  0.00    +0.000 C 
ATOM      7  C   UNL     1       2.205   7.547  19.172  0.00  0.00    +0.000 C 
BRANCH   7   8
ATOM      8  C   UNL     1       2.707   6.174  19.275  0.00  0.00    +0.000 A 
ATOM      9  C   UNL     1       3.637   5.702  18.339  0.00  0.00    +0.000 A 
ATOM     10  C   UNL     1       4.106   4.384  18.400  0.00  0.00    +0.000 A 
ATOM     11  C   UNL     1       3.644   3.535  19.414  0.00  0.00    +0.000 A 
ATOM     12  C   UNL     1       2.721   3.997  20.359  0.00  0.00    +0.000 A 
ATOM     13  C   UNL     1       2.253   5.315  20.285  0.00  0.00    +0.000 A 
BRANCH  11  14
ATOM     14  N   UNL     1       4.128   2.150  19.482  0.00  0.00    +0.000 N 
ATOM     15  O   UNL     1       3.693   1.344  18.646  0.00  0.00    +0.000 OA
ATOM     16  O   UNL     1       4.941   1.866  20.374  0.00  0.00    +0.000 OA
ENDBRANCH  11  14
ENDBRANCH   7   8
ENDBRANCH   3   6
ENDBRANCH   1   4
BRANCH   1  17
ATOM     17  C   UNL     1       0.433  12.048  19.793  0.00  0.00    +0.000 C 
BRANCH  17  18
ATOM     18  N   UNL     1      -0.253  11.653  21.021  0.00  0.00    +0.000 N 
ATOM     19  C   UNL     1       0.159  10.579  21.757  0.00  0.00    +0.000 C 
ATOM     20  O   UNL     1       1.091   9.833  21.520  0.00  0.00    +0.000 OA
ATOM     21  S   UNL     1      -0.868  10.388  23.169  0.00  0.00    +0.000 S 
ATOM     22  C   UNL     1      -1.879  11.713  22.720  0.00  0.00    +0.000 C 
ATOM     23  C   UNL     1      -2.949  12.080  23.439  0.00  0.00    +0.000 C 
ATOM     24  C   UNL     1      -1.374  12.324  21.456  0.00  0.00    +0.000 C 
ATOM     25  O   UNL     1      -1.887  13.276  20.885  0.00  0.00    +0.000 OA
BRANCH  23  26
ATOM     26  C   UNL     1      -3.865  13.168  23.094  0.00  0.00    +0.000 A 
ATOM     27  C   UNL     1      -3.632  14.460  23.584  0.00  0.00    +0.000 A 
ATOM     28  C   UNL     1      -4.481  15.507  23.222  0.00  0.00    +0.000 A 
ATOM     29  C   UNL     1      -5.553  15.259  22.373  0.00  0.00    +0.000 A 
ATOM     30  F   UNL     1      -6.349  16.270  22.005  0.00  0.00    +0.000 F 
ATOM     31  C   UNL     1      -5.804  13.978  21.891  0.00  0.00    +0.000 A 
ATOM     32  C   UNL     1      -4.962  12.927  22.258  0.00  0.00    +0.000 A 
ENDBRANCH  23  26
ENDBRANCH  17  18
ENDBRANCH   1  17
TORSDOF 7
ENDMDL
MODEL 9
REMARK VINA RESULT:      -8.0      7.887     11.270
REMARK  Name = 
REMARK  7 active torsions:
REMARK  status: ('A' for Active; 'I' for Inactive)
REMARK    1  A    between atoms: C_2  and  C_3
REMARK    2  A    between atoms: C_4  and  C_5
REMARK    3  A    between atoms: C_8  and  N_9
REMARK    4  A    between atoms: N_14  and  C_15
REMARK    5  A    between atoms: C_15  and  C_16
REMARK    6  A    between atoms: C_16  and  N_17
REMARK    7  A    between atoms: C_22  and  C_23
REMARK                            x       y       z     vdW  Elec       q    Type
REMARK                         _______ _______ _______ _____ _____    ______ ____
ROOT
ATOM      1  C   UNL     1       1.035  12.908  21.175  0.00  0.00    +0.000 C 
ENDROOT
BRANCH   1   4
ATOM      2  O   UNL     1      -0.101  10.463  22.109  0.00  0.00    +0.000 OA
ATOM      3  C   UNL     1       0.576  10.466  21.089  0.00  0.00    +0.000 C 
ATOM      4  N   UNL     1       1.163  11.592  20.560  0.00  0.00    +0.000 N 
ATOM      5  H   UNL     1       1.710  11.518  19.712  0.00  0.00    +0.000 HD
BRANCH   3   6
ATOM      6  C   UNL     1       0.862   9.228  20.312  0.00  0.00    +0.000 C 
ATOM      7  C   UNL     1       1.517   8.202  20.879  0.00  0.00    +0.000 C 
BRANCH   7   8
ATOM      8  C   UNL     1       1.886   7.007  20.113  0.00  0.00    +0.000 A 
ATOM      9  C   UNL     1       2.382   7.144  18.809  0.00  0.00    +0.000 A 
ATOM     10  C   UNL     1       2.711   6.016  18.048  0.00  0.00    +0.000 A 
ATOM     11  C   UNL     1       2.549   4.740  18.603  0.00  0.00    +0.000 A 
ATOM     12  C   UNL     1       2.061   4.591  19.907  0.00  0.00    +0.000 A 
ATOM     13  C   UNL     1       1.729   5.726  20.657  0.00  0.00    +0.000 A 
BRANCH  11  14
ATOM     14  N   UNL     1       2.888   3.551  17.810  0.00  0.00    +0.000 N 
ATOM     15  O   UNL     1       3.801   2.821  18.223  0.00  0.00    +0.000 OA
ATOM     16  O   UNL     1       2.244   3.348  16.770  0.00  0.00    +0.000 OA
ENDBRANCH  11  14
ENDBRANCH   7   8
ENDBRANCH   3   6
ENDBRANCH   1   4
BRANCH   1  17
ATOM     17  C   UNL     1       0.082  13.842  20.413  0.00  0.00    +0.000 C 
BRANCH  17  18
ATOM     18  N   UNL     1      -1.299  13.369  20.436  0.00  0.00    +0.000 N 
ATOM     19  C   UNL     1      -2.107  13.572  21.519  0.00  0.00    +0.000 C 
ATOM     20  O   UNL     1      -1.822  14.133  22.561  0.00  0.00    +0.000 OA
ATOM     21  S   UNL     1      -3.700  12.894  21.218  0.00  0.00    +0.000 S 
ATOM     22  C   UNL     1      -3.242  12.288  19.667  0.00  0.00    +0.000 C 
ATOM     23  C   UNL     1      -4.082  11.589  18.890  0.00  0.00    +0.000 C 
ATOM     24  C   UNL     1      -1.825  12.655  19.382  0.00  0.00    +0.000 C 
ATOM     25  O   UNL     1      -1.216  12.359  18.363  0.00  0.00    +0.000 OA
BRANCH  23  26
ATOM     26  C   UNL     1      -3.746  11.018  17.584  0.00  0.00    +0.000 A 
ATOM     27  C   UNL     1      -4.208  11.632  16.412  0.00  0.00    +0.000 A 
ATOM     28  C   UNL     1      -3.855  11.113  15.167  0.00  0.00    +0.000 A 
ATOM     29  C   UNL     1      -3.041   9.989  15.098  0.00  0.00    +0.000 A 
ATOM     30  F   UNL     1      -2.679   9.510  13.901  0.00  0.00    +0.000 F 
ATOM     31  C   UNL     1      -2.586   9.362  16.253  0.00  0.00    +0.000 A 
ATOM     32  C   UNL     1      -2.945   9.873  17.502  0.00  0.00    +0.000 A 
ENDBRANCH  23  26
ENDBRANCH  17  18
ENDBRANCH   1  17
TORSDOF 7
ENDMDL
