MODEL 1
REMARK VINA RESULT:      -8.1      0.000      0.000
REMARK  Name = 
REMARK  7 active torsions:
REMARK  status: ('A' for Active; 'I' for Inactive)
REMARK    1  A    between atoms: C_1  and  O_2
REMARK    2  A    between atoms: O_2  and  C_3
REMARK    3  A    between atoms: C_8  and  N_9
REMARK    4  A    between atoms: C_11  and  C_12
REMARK    5  A    between atoms: C_18  and  S_19
REMARK    6  A    between atoms: S_19  and  C_20
REMARK    7  A    between atoms: C_20  and  C_21
REMARK                            x       y       z     vdW  Elec       q    Type
REMARK                         _______ _______ _______ _____ _____    ______ ____
ROOT
ATOM      1  C   UNL     1       2.160   6.861  19.344  0.00  0.00    +0.000 C 
ATOM      2  O   UNL     1       2.293   7.592  18.365  0.00  0.00    +0.000 OA
ATOM      3  N   UNL     1       1.745   7.257  20.596  0.00  0.00    +0.000 N 
ATOM      4  C   UNL     1       1.354   8.528  20.954  0.00  0.00    +0.000 A 
ATOM      5  N   UNL     1       1.199   8.891  22.209  0.00  0.00    +0.000 NA
ATOM      6  N   UNL     1       0.829  10.220  22.324  0.00  0.00    +0.000 NA
ATOM      7  C   UNL     1       0.679  10.788  21.147  0.00  0.00    +0.000 A 
ATOM      8  S   UNL     1       0.963   9.743  19.823  0.00  0.00    +0.000 S 
ATOM      9  H   UNL     1       1.853   6.640  21.392  0.00  0.00    +0.000 HD
ENDROOT
BRANCH   1  12
ATOM     10  N   UNL     1       4.401   5.044  17.918  0.00  0.00    +0.000 N 
ATOM     11  C   UNL     1       2.959   4.989  17.814  0.00  0.00    +0.000 C 
ATOM     12  C   UNL     1       2.464   5.372  19.192  0.00  0.00    +0.000 C 
ATOM     13  C   UNL     1       3.569   4.914  20.125  0.00  0.00    +0.000 C 
ATOM     14  C   UNL     1       4.805   4.984  19.263  0.00  0.00    +0.000 C 
ATOM     15  O   UNL     1       5.930   4.962  19.739  0.00  0.00    +0.000 OA
BRANCH  10  21
ATOM     16  C   UNL     1       6.189   6.008  16.431  0.00  0.00    +0.000 A 
ATOM     17  C   UNL     1       7.011   5.865  15.296  0.00  0.00    +0.000 A 
ATOM     18  C   UNL     1       6.930   4.734  14.489  0.00  0.00    +0.000 A 
ATOM     19  C   UNL     1       6.049   3.720  14.821  0.00  0.00    +0.000 A 
ATOM     20  C   UNL     1       5.244   3.838  15.957  0.00  0.00    +0.000 A 
ATOM     21  C   UNL     1       5.278   4.976  16.784  0.00  0.00    +0.000 A 
BRANCH  16  23
ATOM     22  C   UNL     1       7.585   7.563  17.565  0.00  0.00    +0.000 C 
ATOM     23  O   UNL     1       6.271   7.127  17.224  0.00  0.00    +0.000 OA
ENDBRANCH  16  23
ENDBRANCH  10  21
ENDBRANCH   1  12
BRANCH   7  24
ATOM     24  S   UNL     1       0.200  12.457  20.956  0.00  0.00    +0.000 S 
BRANCH  24  25
ATOM     25  C   UNL     1      -0.270  12.450  19.198  0.00  0.00    +0.000 C 
BRANCH  25  26
ATOM     26  C   UNL     1      -1.753  12.228  19.016  0.00  0.00    +0.000 A 
ATOM     27  C   UNL     1      -2.234  11.591  17.870  0.00  0.00    +0.000 A 
ATOM     28  C   UNL     1      -3.607  11.400  17.731  0.00  0.00    +0.000 A 
ATOM     29  C   UNL     1      -4.464  11.858  18.722  0.00  0.00    +0.000 A 
ATOM     30  C   UNL     1      -3.908  12.489  19.822  0.00  0.00    +0.000 A 
ATOM     31  N   UNL     1      -2.580  12.679  19.993  0.00  0.00    +0.000 NA
ENDBRANCH  25  26
ENDBRANCH  24  25
ENDBRANCH   7  24
TORSDOF 6
ENDMDL
MODEL 2
REMARK VINA RESULT:      -7.9      1.852      2.319
REMARK  Name = 
REMARK  7 active torsions:
REMARK  status: ('A' for Active; 'I' for Inactive)
REMARK    1  A    between atoms: C_1  and  O_2
REMARK    2  A    between atoms: O_2  and  C_3
REMARK    3  A    between atoms: C_8  and  N_9
REMARK    4  A    between atoms: C_11  and  C_12
REMARK    5  A    between atoms: C_18  and  S_19
REMARK    6  A    between atoms: S_19  and  C_20
REMARK    7  A    between atoms: C_20  and  C_21
REMARK                            x       y       z     vdW  Elec       q    Type
REMARK                         _______ _______ _______ _____ _____    ______ ____
ROOT
ATOM      1  C   UNL     1       2.222   6.795  19.336  0.00  0.00    +0.000 C 
ATOM      2  O   UNL     1       2.308   7.516  18.344  0.00  0.00    +0.000 OA
ATOM      3  N   UNL     1       1.828   7.197  20.593  0.00  0.00    +0.000 N 
ATOM      4  C   UNL     1       1.409   8.460  20.944  0.00  0.00    +0.000 A 
ATOM      5  N   UNL     1       1.276   8.836  22.198  0.00  0.00    +0.000 NA
ATOM      6  N   UNL     1       0.869  10.155  22.305  0.00  0.00    +0.000 NA
ATOM      7  C   UNL     1       0.672  10.701  21.124  0.00  0.00    +0.000 A 
ATOM      8  S   UNL     1       0.953   9.647  19.808  0.00  0.00    +0.000 S 
ATOM      9  H   UNL     1       1.976   6.594  21.394  0.00  0.00    +0.000 HD
ENDROOT
BRANCH   1  12
ATOM     10  N   UNL     1       4.470   5.025  17.863  0.00  0.00    +0.000 N 
ATOM     11  C   UNL     1       3.028   4.924  17.808  0.00  0.00    +0.000 C 
ATOM     12  C   UNL     1       2.567   5.314  19.196  0.00  0.00    +0.000 C 
ATOM     13  C   UNL     1       3.716   4.904  20.097  0.00  0.00    +0.000 C 
ATOM     14  C   UNL     1       4.919   4.998  19.194  0.00  0.00    +0.000 C 
ATOM     15  O   UNL     1       6.060   5.017  19.632  0.00  0.00    +0.000 OA
BRANCH  10  21
ATOM     16  C   UNL     1       6.156   6.029  16.286  0.00  0.00    +0.000 A 
ATOM     17  C   UNL     1       6.945   5.892  15.128  0.00  0.00    +0.000 A 
ATOM     18  C   UNL     1       6.894   4.735  14.357  0.00  0.00    +0.000 A 
ATOM     19  C   UNL     1       6.077   3.689  14.749  0.00  0.00    +0.000 A 
ATOM     20  C   UNL     1       5.306   3.802  15.909  0.00  0.00    +0.000 A 
ATOM     21  C   UNL     1       5.310   4.965  16.701  0.00  0.00    +0.000 A 
BRANCH  16  23
ATOM     22  C   UNL     1       7.487   7.525  17.568  0.00  0.00    +0.000 C 
ATOM     23  O   UNL     1       6.209   7.175  17.044  0.00  0.00    +0.000 OA
ENDBRANCH  16  23
ENDBRANCH  10  21
ENDBRANCH   1  12
BRANCH   7  24
ATOM     24  S   UNL     1       0.138  12.352  20.924  0.00  0.00    +0.000 S 
BRANCH  24  25
ATOM     25  C   UNL     1      -1.663  12.115  21.018  0.00  0.00    +0.000 C 
BRANCH  25  26
ATOM     26  C   UNL     1      -2.249  12.748  22.257  0.00  0.00    +0.000 A 
ATOM     27  C   UNL     1      -1.557  13.759  22.926  0.00  0.00    +0.000 A 
ATOM     28  C   UNL     1      -2.124  14.325  24.067  0.00  0.00    +0.000 A 
ATOM     29  C   UNL     1      -3.352  13.862  24.518  0.00  0.00    +0.000 A 
ATOM     30  C   UNL     1      -3.970  12.849  23.804  0.00  0.00    +0.000 A 
ATOM     31  N   UNL     1      -3.452  12.288  22.688  0.00  0.00    +0.000 NA
ENDBRANCH  25  26
ENDBRANCH  24  25
ENDBRANCH   7  24
TORSDOF 6
ENDMDL
MODEL 3
REMARK VINA RESULT:      -7.9      5.805      9.101
REMARK  Name = 
REMARK  7 active torsions:
REMARK  status: ('A' for Active; 'I' for Inactive)
REMARK    1  A    between atoms: C_1  and  O_2
REMARK    2  A    between atoms: O_2  and  C_3
REMARK    3  A    between atoms: C_8  and  N_9
REMARK    4  A    between atoms: C_11  and  C_12
REMARK    5  A    between atoms: C_18  and  S_19
REMARK    6  A    between atoms: S_19  and  C_20
REMARK    7  A    between atoms: C_20  and  C_21
REMARK                            x       y       z     vdW  Elec       q    Type
REMARK                         _______ _______ _______ _____ _____    ______ ____
ROOT
ATOM      1  C   UNL     1       8.640   9.327  18.439  0.00  0.00    +0.000 C 
ATOM      2  O   UNL     1       7.718   9.803  17.780  0.00  0.00    +0.000 OA
ATOM      3  N   UNL     1       8.738   8.019  18.860  0.00  0.00    +0.000 N 
ATOM      4  C   UNL     1       7.850   7.007  18.568  0.00  0.00    +0.000 A 
ATOM      5  N   UNL     1       7.874   5.849  19.191  0.00  0.00    +0.000 NA
ATOM      6  N   UNL     1       6.872   5.001  18.750  0.00  0.00    +0.000 NA
ATOM      7  C   UNL     1       6.166   5.544  17.781  0.00  0.00    +0.000 A 
ATOM      8  S   UNL     1       6.679   7.113  17.334  0.00  0.00    +0.000 S 
ATOM      9  H   UNL     1       9.419   7.755  19.562  0.00  0.00    +0.000 HD
ENDROOT
BRANCH   1  12
ATOM     10  N   UNL     1       9.087  12.454  19.052  0.00  0.00    +0.000 N 
ATOM     11  C   UNL     1       9.790  11.578  18.140  0.00  0.00    +0.000 C 
ATOM     12  C   UNL     1       9.801  10.235  18.837  0.00  0.00    +0.000 C 
ATOM     13  C   UNL     1       9.779  10.582  20.313  0.00  0.00    +0.000 C 
ATOM     14  C   UNL     1       9.073  11.913  20.349  0.00  0.00    +0.000 C 
ATOM     15  O   UNL     1       8.616  12.378  21.383  0.00  0.00    +0.000 OA
BRANCH  10  21
ATOM     16  C   UNL     1       9.422  14.944  18.897  0.00  0.00    +0.000 A 
ATOM     17  C   UNL     1       8.910  16.202  18.527  0.00  0.00    +0.000 A 
ATOM     18  C   UNL     1       7.632  16.328  17.990  0.00  0.00    +0.000 A 
ATOM     19  C   UNL     1       6.862  15.196  17.789  0.00  0.00    +0.000 A 
ATOM     20  C   UNL     1       7.367  13.938  18.130  0.00  0.00    +0.000 A 
ATOM     21  C   UNL     1       8.643  13.772  18.698  0.00  0.00    +0.000 A 
BRANCH  16  23
ATOM     22  C   UNL     1      10.834  15.212  20.791  0.00  0.00    +0.000 C 
ATOM     23  O   UNL     1      10.684  14.826  19.427  0.00  0.00    +0.000 OA
ENDBRANCH  16  23
ENDBRANCH  10  21
ENDBRANCH   1  12
BRANCH   7  24
ATOM     24  S   UNL     1       4.839   4.718  17.001  0.00  0.00    +0.000 S 
BRANCH  24  25
ATOM     25  C   UNL     1       3.437   5.626  17.723  0.00  0.00    +0.000 C 
BRANCH  25  26
ATOM     26  C   UNL     1       2.503   4.709  18.477  0.00  0.00    +0.000 A 
ATOM     27  C   UNL     1       2.050   5.058  19.750  0.00  0.00    +0.000 A 
ATOM     28  C   UNL     1       1.189   4.191  20.421  0.00  0.00    +0.000 A 
ATOM     29  C   UNL     1       0.816   2.998  19.818  0.00  0.00    +0.000 A 
ATOM     30  C   UNL     1       1.317   2.721  18.557  0.00  0.00    +0.000 A 
ATOM     31  N   UNL     1       2.144   3.546  17.875  0.00  0.00    +0.000 NA
ENDBRANCH  25  26
ENDBRANCH  24  25
ENDBRANCH   7  24
TORSDOF 6
ENDMDL
MODEL 4
REMARK VINA RESULT:      -7.8      1.892      2.872
REMARK  Name = 
REMARK  7 active torsions:
REMARK  status: ('A' for Active; 'I' for Inactive)
REMARK    1  A    between atoms: C_1  and  O_2
REMARK    2  A    between atoms: O_2  and  C_3
REMARK    3  A    between atoms: C_8  and  N_9
REMARK    4  A    between atoms: C_11  and  C_12
REMARK    5  A    between atoms: C_18  and  S_19
REMARK    6  A    between atoms: S_19  and  C_20
REMARK    7  A    between atoms: C_20  and  C_21
REMARK                            x       y       z     vdW  Elec       q    Type
REMARK                         _______ _______ _______ _____ _____    ______ ____
ROOT
ATOM      1  C   UNL     1       2.209   6.895  19.345  0.00  0.00    +0.000 C 
ATOM      2  O   UNL     1       2.401   7.630  18.379  0.00  0.00    +0.000 OA
ATOM      3  N   UNL     1       1.750   7.294  20.582  0.00  0.00    +0.000 N 
ATOM      4  C   UNL     1       1.375   8.571  20.932  0.00  0.00    +0.000 A 
ATOM      5  N   UNL     1       1.176   8.930  22.182  0.00  0.00    +0.000 NA
ATOM      6  N   UNL     1       0.833  10.267  22.291  0.00  0.00    +0.000 NA
ATOM      7  C   UNL     1       0.747  10.845  21.113  0.00  0.00    +0.000 A 
ATOM      8  S   UNL     1       1.063   9.802  19.795  0.00  0.00    +0.000 S 
ATOM      9  H   UNL     1       1.810   6.669  21.377  0.00  0.00    +0.000 HD
ENDROOT
BRANCH   1  12
ATOM     10  N   UNL     1       4.407   5.032  17.912  0.00  0.00    +0.000 N 
ATOM     11  C   UNL     1       2.963   5.005  17.816  0.00  0.00    +0.000 C 
ATOM     12  C   UNL     1       2.484   5.401  19.196  0.00  0.00    +0.000 C 
ATOM     13  C   UNL     1       3.585   4.924  20.123  0.00  0.00    +0.000 C 
ATOM     14  C   UNL     1       4.816   4.967  19.255  0.00  0.00    +0.000 C 
ATOM     15  O   UNL     1       5.943   4.925  19.725  0.00  0.00    +0.000 OA
BRANCH  10  21
ATOM     16  C   UNL     1       6.186   5.969  16.398  0.00  0.00    +0.000 A 
ATOM     17  C   UNL     1       7.001   5.806  15.261  0.00  0.00    +0.000 A 
ATOM     18  C   UNL     1       6.912   4.663  14.472  0.00  0.00    +0.000 A 
ATOM     19  C   UNL     1       6.031   3.656  14.825  0.00  0.00    +0.000 A 
ATOM     20  C   UNL     1       5.234   3.794  15.965  0.00  0.00    +0.000 A 
ATOM     21  C   UNL     1       5.276   4.944  16.774  0.00  0.00    +0.000 A 
BRANCH  16  23
ATOM     22  C   UNL     1       7.584   7.462  17.611  0.00  0.00    +0.000 C 
ATOM     23  O   UNL     1       6.277   7.100  17.173  0.00  0.00    +0.000 OA
ENDBRANCH  16  23
ENDBRANCH  10  21
ENDBRANCH   1  12
BRANCH   7  24
ATOM     24  S   UNL     1       0.317  12.527  20.914  0.00  0.00    +0.000 S 
BRANCH  24  25
ATOM     25  C   UNL     1       0.530  12.695  19.115  0.00  0.00    +0.000 C 
BRANCH  25  26
ATOM     26  C   UNL     1       1.284  13.954  18.755  0.00  0.00    +0.000 A 
ATOM     27  C   UNL     1       0.684  15.204  18.913  0.00  0.00    +0.000 A 
ATOM     28  C   UNL     1       1.406  16.347  18.572  0.00  0.00    +0.000 A 
ATOM     29  C   UNL     1       2.693  16.216  18.071  0.00  0.00    +0.000 A 
ATOM     30  C   UNL     1       3.213  14.940  17.935  0.00  0.00    +0.000 A 
ATOM     31  N   UNL     1       2.544  13.812  18.268  0.00  0.00    +0.000 NA
ENDBRANCH  25  26
ENDBRANCH  24  25
ENDBRANCH   7  24
TORSDOF 6
ENDMDL
MODEL 5
REMARK VINA RESULT:      -7.8      6.070      9.236
REMARK  Name = 
REMARK  7 active torsions:
REMARK  status: ('A' for Active; 'I' for Inactive)
REMARK    1  A    between atoms: C_1  and  O_2
REMARK    2  A    between atoms: O_2  and  C_3
REMARK    3  A    between atoms: C_8  and  N_9
REMARK    4  A    between atoms: C_11  and  C_12
REMARK    5  A    between atoms: C_18  and  S_19
REMARK    6  A    between atoms: S_19  and  C_20
REMARK    7  A    between atoms: C_20  and  C_21
REMARK                            x       y       z     vdW  Elec       q    Type
REMARK                         _______ _______ _______ _____ _____    ______ ____
ROOT
ATOM      1  C   UNL     1       8.529   9.171  18.374  0.00  0.00    +0.000 C 
ATOM      2  O   UNL     1       7.594   9.676  17.756  0.00  0.00    +0.000 OA
ATOM      3  N   UNL     1       8.605   7.860  18.791  0.00  0.00    +0.000 N 
ATOM      4  C   UNL     1       7.675   6.876  18.538  0.00  0.00    +0.000 A 
ATOM      5  N   UNL     1       7.690   5.716  19.159  0.00  0.00    +0.000 NA
ATOM      6  N   UNL     1       6.645   4.900  18.761  0.00  0.00    +0.000 NA
ATOM      7  C   UNL     1       5.914   5.466  17.825  0.00  0.00    +0.000 A 
ATOM      8  S   UNL     1       6.455   7.018  17.355  0.00  0.00    +0.000 S 
ATOM      9  H   UNL     1       9.308   7.575  19.462  0.00  0.00    +0.000 HD
ENDROOT
BRANCH   1  12
ATOM     10  N   UNL     1       9.098  12.283  18.959  0.00  0.00    +0.000 N 
ATOM     11  C   UNL     1       9.736  11.384  18.022  0.00  0.00    +0.000 C 
ATOM     12  C   UNL     1       9.733  10.042  18.722  0.00  0.00    +0.000 C 
ATOM     13  C   UNL     1       9.782  10.392  20.197  0.00  0.00    +0.000 C 
ATOM     14  C   UNL     1       9.120  11.745  20.257  0.00  0.00    +0.000 C 
ATOM     15  O   UNL     1       8.721  12.226  21.307  0.00  0.00    +0.000 OA
BRANCH  10  21
ATOM     16  C   UNL     1       9.457  14.774  18.890  0.00  0.00    +0.000 A 
ATOM     17  C   UNL     1       8.973  16.046  18.529  0.00  0.00    +0.000 A 
ATOM     18  C   UNL     1       7.725  16.196  17.930  0.00  0.00    +0.000 A 
ATOM     19  C   UNL     1       6.959  15.076  17.658  0.00  0.00    +0.000 A 
ATOM     20  C   UNL     1       7.438  13.806  17.990  0.00  0.00    +0.000 A 
ATOM     21  C   UNL     1       8.682  13.614  18.618  0.00  0.00    +0.000 A 
BRANCH  16  23
ATOM     22  C   UNL     1      11.816  14.675  18.610  0.00  0.00    +0.000 C 
ATOM     23  O   UNL     1      10.689  14.631  19.481  0.00  0.00    +0.000 OA
ENDBRANCH  16  23
ENDBRANCH  10  21
ENDBRANCH   1  12
BRANCH   7  24
ATOM     24  S   UNL     1       4.530   4.682  17.103  0.00  0.00    +0.000 S 
BRANCH  24  25
ATOM     25  C   UNL     1       4.449   3.181  18.128  0.00  0.00    +0.000 C 
BRANCH  25  26
ATOM     26  C   UNL     1       3.327   3.249  19.136  0.00  0.00    +0.000 A 
ATOM     27  C   UNL     1       2.116   3.857  18.801  0.00  0.00    +0.000 A 
ATOM     28  C   UNL     1       1.098   3.904  19.753  0.00  0.00    +0.000 A 
ATOM     29  C   UNL     1       1.317   3.361  21.011  0.00  0.00    +0.000 A 
ATOM     30  C   UNL     1       2.549   2.785  21.268  0.00  0.00    +0.000 A 
ATOM     31  N   UNL     1       3.552   2.713  20.363  0.00  0.00    +0.000 NA
ENDBRANCH  25  26
ENDBRANCH  24  25
ENDBRANCH   7  24
TORSDOF 6
ENDMDL
MODEL 6
REMARK VINA RESULT:      -7.8      1.931      2.556
REMARK  Name = 
REMARK  7 active torsions:
REMARK  status: ('A' for Active; 'I' for Inactive)
REMARK    1  A    between atoms: C_1  and  O_2
REMARK    2  A    between atoms: O_2  and  C_3
REMARK    3  A    between atoms: C_8  and  N_9
REMARK    4  A    between atoms: C_11  and  C_12
REMARK    5  A    between atoms: C_18  and  S_19
REMARK    6  A    between atoms: S_19  and  C_20
REMARK    7  A    between atoms: C_20  and  C_21
REMARK                            x       y       z     vdW  Elec       q    Type
REMARK                         _______ _______ _______ _____ _____    ______ ____
ROOT
ATOM      1  C   UNL     1       2.214   6.833  19.294  0.00  0.00    +0.000 C 
ATOM      2  O   UNL     1       2.307   7.548  18.298  0.00  0.00    +0.000 OA
ATOM      3  N   UNL     1       1.830   7.248  20.550  0.00  0.00    +0.000 N 
ATOM      4  C   UNL     1       1.431   8.519  20.896  0.00  0.00    +0.000 A 
ATOM      5  N   UNL     1       1.308   8.903  22.148  0.00  0.00    +0.000 NA
ATOM      6  N   UNL     1       0.922  10.228  22.250  0.00  0.00    +0.000 NA
ATOM      7  C   UNL     1       0.728  10.772  21.068  0.00  0.00    +0.000 A 
ATOM      8  S   UNL     1       0.988   9.706  19.755  0.00  0.00    +0.000 S 
ATOM      9  H   UNL     1       1.971   6.647  21.354  0.00  0.00    +0.000 HD
ENDROOT
BRANCH   1  12
ATOM     10  N   UNL     1       4.450   5.024  17.851  0.00  0.00    +0.000 N 
ATOM     11  C   UNL     1       3.007   4.947  17.779  0.00  0.00    +0.000 C 
ATOM     12  C   UNL     1       2.536   5.347  19.161  0.00  0.00    +0.000 C 
ATOM     13  C   UNL     1       3.667   4.920  20.077  0.00  0.00    +0.000 C 
ATOM     14  C   UNL     1       4.882   4.992  19.188  0.00  0.00    +0.000 C 
ATOM     15  O   UNL     1       6.017   4.994  19.640  0.00  0.00    +0.000 OA
BRANCH  10  21
ATOM     16  C   UNL     1       6.166   6.001  16.290  0.00  0.00    +0.000 A 
ATOM     17  C   UNL     1       6.968   5.850  15.143  0.00  0.00    +0.000 A 
ATOM     18  C   UNL     1       6.913   4.689  14.377  0.00  0.00    +0.000 A 
ATOM     19  C   UNL     1       6.080   3.654  14.764  0.00  0.00    +0.000 A 
ATOM     20  C   UNL     1       5.296   3.782  15.914  0.00  0.00    +0.000 A 
ATOM     21  C   UNL     1       5.304   4.949  16.700  0.00  0.00    +0.000 A 
BRANCH  16  23
ATOM     22  C   UNL     1       7.505   7.505  17.556  0.00  0.00    +0.000 C 
ATOM     23  O   UNL     1       6.223   7.150  17.042  0.00  0.00    +0.000 OA
ENDBRANCH  16  23
ENDBRANCH  10  21
ENDBRANCH   1  12
BRANCH   7  24
ATOM     24  S   UNL     1       0.219  12.430  20.861  0.00  0.00    +0.000 S 
BRANCH  24  25
ATOM     25  C   UNL     1       0.911  12.768  19.212  0.00  0.00    +0.000 C 
BRANCH  25  26
ATOM     26  C   UNL     1       0.930  14.246  18.904  0.00  0.00    +0.000 A 
ATOM     27  C   UNL     1       2.138  14.899  18.657  0.00  0.00    +0.000 A 
ATOM     28  C   UNL     1       2.123  16.264  18.375  0.00  0.00    +0.000 A 
ATOM     29  C   UNL     1       0.914  16.943  18.361  0.00  0.00    +0.000 A 
ATOM     30  C   UNL     1      -0.240  16.226  18.627  0.00  0.00    +0.000 A 
ATOM     31  N   UNL     1      -0.261  14.900  18.892  0.00  0.00    +0.000 NA
ENDBRANCH  25  26
ENDBRANCH  24  25
ENDBRANCH   7  24
TORSDOF 6
ENDMDL
MODEL 7
REMARK VINA RESULT:      -7.7      5.853      8.440
REMARK  Name = 
REMARK  7 active torsions:
REMARK  status: ('A' for Active; 'I' for Inactive)
REMARK    1  A    between atoms: C_1  and  O_2
REMARK    2  A    between atoms: O_2  and  C_3
REMARK    3  A    between atoms: C_8  and  N_9
REMARK    4  A    between atoms: C_11  and  C_12
REMARK    5  A    between atoms: C_18  and  S_19
REMARK    6  A    between atoms: S_19  and  C_20
REMARK    7  A    between atoms: C_20  and  C_21
REMARK                            x       y       z     vdW  Elec       q    Type
REMARK                         _______ _______ _______ _____ _____    ______ ____
ROOT
ATOM      1  C   UNL     1       7.843   7.021  18.089  0.00  0.00    +0.000 C 
ATOM      2  O   UNL     1       7.343   7.352  17.016  0.00  0.00    +0.000 OA
ATOM      3  N   UNL     1       8.533   7.849  18.947  0.00  0.00    +0.000 N 
ATOM      4  C   UNL     1       8.733   9.201  18.779  0.00  0.00    +0.000 A 
ATOM      5  N   UNL     1       9.594   9.881  19.505  0.00  0.00    +0.000 NA
ATOM      6  N   UNL     1       9.642  11.215  19.139  0.00  0.00    +0.000 NA
ATOM      7  C   UNL     1       8.782  11.490  18.183  0.00  0.00    +0.000 A 
ATOM      8  S   UNL     1       7.848  10.151  17.674  0.00  0.00    +0.000 S 
ATOM      9  H   UNL     1       9.082   7.460  19.705  0.00  0.00    +0.000 HD
ENDROOT
BRANCH   1  12
ATOM     10  N   UNL     1       5.586   4.730  17.996  0.00  0.00    +0.000 N 
ATOM     11  C   UNL     1       6.337   5.246  19.120  0.00  0.00    +0.000 C 
ATOM     12  C   UNL     1       7.700   5.571  18.547  0.00  0.00    +0.000 C 
ATOM     13  C   UNL     1       7.868   4.588  17.405  0.00  0.00    +0.000 C 
ATOM     14  C   UNL     1       6.451   4.313  16.970  0.00  0.00    +0.000 C 
ATOM     15  O   UNL     1       6.192   3.790  15.897  0.00  0.00    +0.000 OA
BRANCH  10  21
ATOM     16  C   UNL     1       3.206   5.535  17.836  0.00  0.00    +0.000 A 
ATOM     17  C   UNL     1       1.832   5.234  17.890  0.00  0.00    +0.000 A 
ATOM     18  C   UNL     1       1.390   3.942  18.159  0.00  0.00    +0.000 A 
ATOM     19  C   UNL     1       2.315   2.930  18.347  0.00  0.00    +0.000 A 
ATOM     20  C   UNL     1       3.682   3.210  18.273  0.00  0.00    +0.000 A 
ATOM     21  C   UNL     1       4.168   4.507  18.029  0.00  0.00    +0.000 A 
BRANCH  16  23
ATOM     22  C   UNL     1       2.836   7.870  18.094  0.00  0.00    +0.000 C 
ATOM     23  O   UNL     1       3.637   6.813  17.572  0.00  0.00    +0.000 OA
ENDBRANCH  16  23
ENDBRANCH  10  21
ENDBRANCH   1  12
BRANCH   7  24
ATOM     24  S   UNL     1       8.590  13.092  17.515  0.00  0.00    +0.000 S 
BRANCH  24  25
ATOM     25  C   UNL     1      10.206  13.808  17.946  0.00  0.00    +0.000 C 
BRANCH  25  26
ATOM     26  C   UNL     1      10.196  15.316  17.850  0.00  0.00    +0.000 A 
ATOM     27  C   UNL     1       9.058  16.037  18.214  0.00  0.00    +0.000 A 
ATOM     28  C   UNL     1       9.080  17.427  18.115  0.00  0.00    +0.000 A 
ATOM     29  C   UNL     1      10.222  18.059  17.643  0.00  0.00    +0.000 A 
ATOM     30  C   UNL     1      11.305  17.271  17.293  0.00  0.00    +0.000 A 
ATOM     31  N   UNL     1      11.320  15.922  17.389  0.00  0.00    +0.000 NA
ENDBRANCH  25  26
ENDBRANCH  24  25
ENDBRANCH   7  24
TORSDOF 6
ENDMDL
MODEL 8
REMARK VINA RESULT:      -7.7      2.147      3.339
REMARK  Name = 
REMARK  7 active torsions:
REMARK  status: ('A' for Active; 'I' for Inactive)
REMARK    1  A    between atoms: C_1  and  O_2
REMARK    2  A    between atoms: O_2  and  C_3
REMARK    3  A    between atoms: C_8  and  N_9
REMARK    4  A    between atoms: C_11  and  C_12
REMARK    5  A    between atoms: C_18  and  S_19
REMARK    6  A    between atoms: S_19  and  C_20
REMARK    7  A    between atoms: C_20  and  C_21
REMARK                            x       y       z     vdW  Elec       q    Type
REMARK                         _______ _______ _______ _____ _____    ______ ____
ROOT
ATOM      1  C   UNL     1       2.194   6.889  19.393  0.00  0.00    +0.000 C 
ATOM      2  O   UNL     1       2.395   7.631  18.433  0.00  0.00    +0.000 OA
ATOM      3  N   UNL     1       1.718   7.277  20.626  0.00  0.00    +0.000 N 
ATOM      4  C   UNL     1       1.332   8.551  20.979  0.00  0.00    +0.000 A 
ATOM      5  N   UNL     1       1.114   8.900  22.229  0.00  0.00    +0.000 NA
ATOM      6  N   UNL     1       0.764  10.234  22.342  0.00  0.00    +0.000 NA
ATOM      7  C   UNL     1       0.690  10.820  21.167  0.00  0.00    +0.000 A 
ATOM      8  S   UNL     1       1.028   9.788  19.846  0.00  0.00    +0.000 S 
ATOM      9  H   UNL     1       1.770   6.647  21.418  0.00  0.00    +0.000 HD
ENDROOT
BRANCH   1  12
ATOM     10  N   UNL     1       4.394   5.046  17.938  0.00  0.00    +0.000 N 
ATOM     11  C   UNL     1       2.950   5.008  17.853  0.00  0.00    +0.000 C 
ATOM     12  C   UNL     1       2.478   5.397  19.237  0.00  0.00    +0.000 C 
ATOM     13  C   UNL     1       3.590   4.925  20.155  0.00  0.00    +0.000 C 
ATOM     14  C   UNL     1       4.814   4.980  19.277  0.00  0.00    +0.000 C 
ATOM     15  O   UNL     1       5.945   4.944  19.738  0.00  0.00    +0.000 OA
BRANCH  10  21
ATOM     16  C   UNL     1       6.177   5.985  16.430  0.00  0.00    +0.000 A 
ATOM     17  C   UNL     1       6.982   5.833  15.285  0.00  0.00    +0.000 A 
ATOM     18  C   UNL     1       6.873   4.706  14.476  0.00  0.00    +0.000 A 
ATOM     19  C   UNL     1       5.981   3.704  14.816  0.00  0.00    +0.000 A 
ATOM     20  C   UNL     1       5.192   3.832  15.962  0.00  0.00    +0.000 A 
ATOM     21  C   UNL     1       5.255   4.967  16.792  0.00  0.00    +0.000 A 
BRANCH  16  23
ATOM     22  C   UNL     1       7.610   7.476  17.604  0.00  0.00    +0.000 C 
ATOM     23  O   UNL     1       6.288   7.100  17.226  0.00  0.00    +0.000 OA
ENDBRANCH  16  23
ENDBRANCH  10  21
ENDBRANCH   1  12
BRANCH   7  24
ATOM     24  S   UNL     1       0.255  12.501  20.974  0.00  0.00    +0.000 S 
BRANCH  24  25
ATOM     25  C   UNL     1       0.984  12.829  19.340  0.00  0.00    +0.000 C 
BRANCH  25  26
ATOM     26  C   UNL     1       2.287  13.586  19.449  0.00  0.00    +0.000 A 
ATOM     27  C   UNL     1       2.866  13.815  20.698  0.00  0.00    +0.000 A 
ATOM     28  C   UNL     1       4.069  14.516  20.766  0.00  0.00    +0.000 A 
ATOM     29  C   UNL     1       4.653  14.981  19.596  0.00  0.00    +0.000 A 
ATOM     30  C   UNL     1       4.011  14.720  18.398  0.00  0.00    +0.000 A 
ATOM     31  N   UNL     1       2.850  14.034  18.297  0.00  0.00    +0.000 NA
ENDBRANCH  25  26
ENDBRANCH  24  25
ENDBRANCH   7  24
TORSDOF 6
ENDMDL
MODEL 9
REMARK VINA RESULT:      -7.6      4.992      7.284
REMARK  Name = 
REMARK  7 active torsions:
REMARK  status: ('A' for Active; 'I' for Inactive)
REMARK    1  A    between atoms: C_1  and  O_2
REMARK    2  A    between atoms: O_2  and  C_3
REMARK    3  A    between atoms: C_8  and  N_9
REMARK    4  A    between atoms: C_11  and  C_12
REMARK    5  A    between atoms: C_18  and  S_19
REMARK    6  A    between atoms: S_19  and  C_20
REMARK    7  A    between atoms: C_20  and  C_21
REMARK                            x       y       z     vdW  Elec       q    Type
REMARK                         _______ _______ _______ _____ _____    ______ ____
ROOT
ATOM      1  C   UNL     1       7.890   7.251  17.947  0.00  0.00    +0.000 C 
ATOM      2  O   UNL     1       7.439   7.681  16.887  0.00  0.00    +0.000 OA
ATOM      3  N   UNL     1       8.582   7.985  18.885  0.00  0.00    +0.000 N 
ATOM      4  C   UNL     1       8.840   9.336  18.825  0.00  0.00    +0.000 A 
ATOM      5  N   UNL     1       9.703   9.924  19.626  0.00  0.00    +0.000 NA
ATOM      6  N   UNL     1       9.815  11.279  19.363  0.00  0.00    +0.000 NA
ATOM      7  C   UNL     1       8.999  11.658  18.404  0.00  0.00    +0.000 A 
ATOM      8  S   UNL     1       8.031  10.400  17.767  0.00  0.00    +0.000 S 
ATOM      9  H   UNL     1       9.089   7.519  19.628  0.00  0.00    +0.000 HD
ENDROOT
BRANCH   1  12
ATOM     10  N   UNL     1       5.403   5.331  18.642  0.00  0.00    +0.000 N 
ATOM     11  C   UNL     1       6.635   5.552  19.368  0.00  0.00    +0.000 C 
ATOM     12  C   UNL     1       7.674   5.779  18.291  0.00  0.00    +0.000 C 
ATOM     13  C   UNL     1       7.163   4.981  17.107  0.00  0.00    +0.000 C 
ATOM     14  C   UNL     1       5.669   4.974  17.309  0.00  0.00    +0.000 C 
ATOM     15  O   UNL     1       4.895   4.672  16.413  0.00  0.00    +0.000 OA
BRANCH  10  21
ATOM     16  C   UNL     1       3.515   4.116  19.780  0.00  0.00    +0.000 A 
ATOM     17  C   UNL     1       2.239   4.169  20.374  0.00  0.00    +0.000 A 
ATOM     18  C   UNL     1       1.531   5.365  20.447  0.00  0.00    +0.000 A 
ATOM     19  C   UNL     1       2.100   6.527  19.954  0.00  0.00    +0.000 A 
ATOM     20  C   UNL     1       3.374   6.492  19.383  0.00  0.00    +0.000 A 
ATOM     21  C   UNL     1       4.112   5.299  19.268  0.00  0.00    +0.000 A 
BRANCH  16  23
ATOM     22  C   UNL     1       3.642   1.916  18.886  0.00  0.00    +0.000 C 
ATOM     23  O   UNL     1       4.210   2.932  19.709  0.00  0.00    +0.000 OA
ENDBRANCH  16  23
ENDBRANCH  10  21
ENDBRANCH   1  12
BRANCH   7  24
ATOM     24  S   UNL     1       8.893  13.312  17.851  0.00  0.00    +0.000 S 
BRANCH  24  25
ATOM     25  C   UNL     1       7.132  13.381  17.400  0.00  0.00    +0.000 C 
BRANCH  25  26
ATOM     26  C   UNL     1       6.473  14.645  17.901  0.00  0.00    +0.000 A 
ATOM     27  C   UNL     1       7.249  15.702  18.378  0.00  0.00    +0.000 A 
ATOM     28  C   UNL     1       6.612  16.855  18.833  0.00  0.00    +0.000 A 
ATOM     29  C   UNL     1       5.226  16.920  18.815  0.00  0.00    +0.000 A 
ATOM     30  C   UNL     1       4.528  15.824  18.336  0.00  0.00    +0.000 A 
ATOM     31  N   UNL     1       5.116  14.696  17.877  0.00  0.00    +0.000 NA
ENDBRANCH  25  26
ENDBRANCH  24  25
ENDBRANCH   7  24
TORSDOF 6
ENDMDL
