MODEL 1
REMARK VINA RESULT:      -7.0      0.000      0.000
REMARK  Name = 
REMARK  6 active torsions:
REMARK  status: ('A' for Active; 'I' for Inactive)
REMARK    1  A    between atoms: C_1  and  C_2
REMARK    2  A    between atoms: C_2  and  N_3
REMARK    3  A    between atoms: C_9  and  C_11
REMARK    4  A    between atoms: C_11  and  C_12
REMARK    5  A    between atoms: C_16  and  O_17
REMARK    6  A    between atoms: O_17  and  C_18
REMARK                            x       y       z     vdW  Elec       q    Type
REMARK                         _______ _______ _______ _____ _____    ______ ____
ROOT
ATOM      1  N   UNL     1       0.318  13.054  19.718  0.00  0.00    +0.000 NA
ATOM      2  C   UNL     1      -0.552  12.714  18.570  0.00  0.00    +0.000 C 
ATOM      3  C   UNL     1      -1.294  11.390  18.872  0.00  0.00    +0.000 C 
ATOM      4  C   UNL     1      -0.975  10.256  17.899  0.00  0.00    +0.000 C 
ATOM      5  C   UNL     1       0.494   9.885  17.778  0.00  0.00    +0.000 C 
ATOM      6  N   UNL     1       1.042   9.023  18.823  0.00  0.00    +0.000 N 
ATOM      7  C   UNL     1       2.186   8.309  18.404  0.00  0.00    +0.000 C 
ATOM      8  O   UNL     1       2.638   8.419  17.259  0.00  0.00    +0.000 OA
ATOM      9  C   UNL     1       0.876   9.380  20.240  0.00  0.00    +0.000 C 
ATOM     10  C   UNL     1      -0.544   9.675  20.715  0.00  0.00    +0.000 C 
ATOM     11  C   UNL     1      -1.158  11.027  20.356  0.00  0.00    +0.000 C 
ATOM     12  S   UNL     1      -0.393  12.435  21.144  0.00  0.00    +0.000 S 
ATOM     13  O   UNL     1      -1.457  13.340  21.526  0.00  0.00    +0.000 OA
ATOM     14  O   UNL     1       0.635  12.017  22.066  0.00  0.00    +0.000 OA
ENDROOT
BRANCH   1  16
ATOM     15  C   UNL     1       2.264  13.072  18.146  0.00  0.00    +0.000 C 
ATOM     16  C   UNL     1       1.780  12.862  19.569  0.00  0.00    +0.000 C 
ENDBRANCH   1  16
BRANCH   7  17
ATOM     17  C   UNL     1       2.851   7.346  19.372  0.00  0.00    +0.000 C 
BRANCH  17  18
ATOM     18  C   UNL     1       2.222   5.977  19.481  0.00  0.00    +0.000 A 
ATOM     19  C   UNL     1       1.672   5.489  20.675  0.00  0.00    +0.000 A 
ATOM     20  C   UNL     1       1.191   4.181  20.749  0.00  0.00    +0.000 A 
ATOM     21  C   UNL     1       1.276   3.341  19.639  0.00  0.00    +0.000 A 
ATOM     22  C   UNL     1       1.835   3.800  18.445  0.00  0.00    +0.000 A 
ATOM     23  C   UNL     1       2.301   5.114  18.372  0.00  0.00    +0.000 A 
BRANCH  22  24
ATOM     24  O   UNL     1       1.887   2.874  17.440  0.00  0.00    +0.000 OA
ATOM     25  C   UNL     1       2.997   1.984  17.444  0.00  0.00    +0.000 C 
ENDBRANCH  22  24
ENDBRANCH  17  18
ENDBRANCH   7  17
TORSDOF 4
ENDMDL
MODEL 2
REMARK VINA RESULT:      -6.9      4.019      8.045
REMARK  Name = 
REMARK  6 active torsions:
REMARK  status: ('A' for Active; 'I' for Inactive)
REMARK    1  A    between atoms: C_1  and  C_2
REMARK    2  A    between atoms: C_2  and  N_3
REMARK    3  A    between atoms: C_9  and  C_11
REMARK    4  A    between atoms: C_11  and  C_12
REMARK    5  A    between atoms: C_16  and  O_17
REMARK    6  A    between atoms: O_17  and  C_18
REMARK                            x       y       z     vdW  Elec       q    Type
REMARK                         _______ _______ _______ _____ _____    ______ ____
ROOT
ATOM      1  N   UNL     1       6.708   4.603  18.159  0.00  0.00    +0.000 NA
ATOM      2  C   UNL     1       5.620   3.615  17.994  0.00  0.00    +0.000 C 
ATOM      3  C   UNL     1       4.695   4.069  16.839  0.00  0.00    +0.000 C 
ATOM      4  C   UNL     1       3.253   4.348  17.262  0.00  0.00    +0.000 C 
ATOM      5  C   UNL     1       3.077   5.384  18.360  0.00  0.00    +0.000 C 
ATOM      6  N   UNL     1       3.136   6.787  17.954  0.00  0.00    +0.000 N 
ATOM      7  C   UNL     1       2.469   7.648  18.852  0.00  0.00    +0.000 C 
ATOM      8  O   UNL     1       1.894   7.219  19.859  0.00  0.00    +0.000 OA
ATOM      9  C   UNL     1       4.277   7.284  17.169  0.00  0.00    +0.000 C 
ATOM     10  C   UNL     1       4.621   6.518  15.895  0.00  0.00    +0.000 C 
ATOM     11  C   UNL     1       5.361   5.189  16.030  0.00  0.00    +0.000 C 
ATOM     12  S   UNL     1       7.034   5.315  16.640  0.00  0.00    +0.000 S 
ATOM     13  O   UNL     1       7.836   4.376  15.883  0.00  0.00    +0.000 OA
ATOM     14  O   UNL     1       7.418   6.695  16.814  0.00  0.00    +0.000 OA
ENDROOT
BRANCH   1  16
ATOM     15  C   UNL     1       8.014   5.778  19.941  0.00  0.00    +0.000 C 
ATOM     16  C   UNL     1       6.652   5.520  19.322  0.00  0.00    +0.000 C 
ENDBRANCH   1  16
BRANCH   7  17
ATOM     17  C   UNL     1       2.416   9.135  18.549  0.00  0.00    +0.000 C 
BRANCH  17  18
ATOM     18  C   UNL     1       1.051   9.779  18.623  0.00  0.00    +0.000 A 
ATOM     19  C   UNL     1       0.631  10.538  19.724  0.00  0.00    +0.000 A 
ATOM     20  C   UNL     1      -0.673  11.030  19.787  0.00  0.00    +0.000 A 
ATOM     21  C   UNL     1      -1.576  10.749  18.762  0.00  0.00    +0.000 A 
ATOM     22  C   UNL     1      -1.185   9.982  17.664  0.00  0.00    +0.000 A 
ATOM     23  C   UNL     1       0.126   9.505  17.599  0.00  0.00    +0.000 A 
BRANCH  22  24
ATOM     24  O   UNL     1      -2.167   9.753  16.740  0.00  0.00    +0.000 OA
ATOM     25  C   UNL     1      -2.729  10.896  16.105  0.00  0.00    +0.000 C 
ENDBRANCH  22  24
ENDBRANCH  17  18
ENDBRANCH   7  17
TORSDOF 4
ENDMDL
MODEL 3
REMARK VINA RESULT:      -6.7      3.892      8.237
REMARK  Name = 
REMARK  6 active torsions:
REMARK  status: ('A' for Active; 'I' for Inactive)
REMARK    1  A    between atoms: C_1  and  C_2
REMARK    2  A    between atoms: C_2  and  N_3
REMARK    3  A    between atoms: C_9  and  C_11
REMARK    4  A    between atoms: C_11  and  C_12
REMARK    5  A    between atoms: C_16  and  O_17
REMARK    6  A    between atoms: O_17  and  C_18
REMARK                            x       y       z     vdW  Elec       q    Type
REMARK                         _______ _______ _______ _____ _____    ______ ____
ROOT
ATOM      1  N   UNL     1       6.734   4.674  18.109  0.00  0.00    +0.000 NA
ATOM      2  C   UNL     1       5.682   3.648  17.944  0.00  0.00    +0.000 C 
ATOM      3  C   UNL     1       4.722   4.084  16.810  0.00  0.00    +0.000 C 
ATOM      4  C   UNL     1       3.278   4.301  17.259  0.00  0.00    +0.000 C 
ATOM      5  C   UNL     1       3.079   5.312  18.376  0.00  0.00    +0.000 C 
ATOM      6  N   UNL     1       3.079   6.723  17.993  0.00  0.00    +0.000 N 
ATOM      7  C   UNL     1       2.393   7.543  18.915  0.00  0.00    +0.000 C 
ATOM      8  O   UNL     1       1.851   7.076  19.923  0.00  0.00    +0.000 OA
ATOM      9  C   UNL     1       4.187   7.275  17.199  0.00  0.00    +0.000 C 
ATOM     10  C   UNL     1       4.541   6.544  15.907  0.00  0.00    +0.000 C 
ATOM     11  C   UNL     1       5.333   5.241  16.009  0.00  0.00    +0.000 C 
ATOM     12  S   UNL     1       7.009   5.422  16.596  0.00  0.00    +0.000 S 
ATOM     13  O   UNL     1       7.834   4.526  15.813  0.00  0.00    +0.000 OA
ATOM     14  O   UNL     1       7.343   6.813  16.788  0.00  0.00    +0.000 OA
ENDROOT
BRANCH   1  16
ATOM     15  C   UNL     1       8.008   5.785  19.953  0.00  0.00    +0.000 C 
ATOM     16  C   UNL     1       6.661   5.569  19.287  0.00  0.00    +0.000 C 
ENDBRANCH   1  16
BRANCH   7  17
ATOM     17  C   UNL     1       2.280   9.032  18.637  0.00  0.00    +0.000 C 
BRANCH  17  18
ATOM     18  C   UNL     1       1.057   9.720  19.198  0.00  0.00    +0.000 A 
ATOM     19  C   UNL     1      -0.031  10.101  18.401  0.00  0.00    +0.000 A 
ATOM     20  C   UNL     1      -1.093  10.820  18.951  0.00  0.00    +0.000 A 
ATOM     21  C   UNL     1      -1.066  11.185  20.298  0.00  0.00    +0.000 A 
ATOM     22  C   UNL     1       0.014  10.830  21.106  0.00  0.00    +0.000 A 
ATOM     23  C   UNL     1       1.066  10.097  20.554  0.00  0.00    +0.000 A 
BRANCH  22  24
ATOM     24  O   UNL     1      -0.065  11.269  22.399  0.00  0.00    +0.000 OA
ATOM     25  C   UNL     1      -1.366  11.555  22.901  0.00  0.00    +0.000 C 
ENDBRANCH  22  24
ENDBRANCH  17  18
ENDBRANCH   7  17
TORSDOF 4
ENDMDL
MODEL 4
REMARK VINA RESULT:      -6.7      5.538      7.877
REMARK  Name = 
REMARK  6 active torsions:
REMARK  status: ('A' for Active; 'I' for Inactive)
REMARK    1  A    between atoms: C_1  and  C_2
REMARK    2  A    between atoms: C_2  and  N_3
REMARK    3  A    between atoms: C_9  and  C_11
REMARK    4  A    between atoms: C_11  and  C_12
REMARK    5  A    between atoms: C_16  and  O_17
REMARK    6  A    between atoms: O_17  and  C_18
REMARK                            x       y       z     vdW  Elec       q    Type
REMARK                         _______ _______ _______ _____ _____    ______ ____
ROOT
ATOM      1  N   UNL     1       1.842   4.226  21.125  0.00  0.00    +0.000 NA
ATOM      2  C   UNL     1       0.753   4.335  20.130  0.00  0.00    +0.000 C 
ATOM      3  C   UNL     1       0.915   3.213  19.076  0.00  0.00    +0.000 C 
ATOM      4  C   UNL     1       1.143   3.717  17.652  0.00  0.00    +0.000 C 
ATOM      5  C   UNL     1       2.339   4.635  17.462  0.00  0.00    +0.000 C 
ATOM      6  N   UNL     1       3.649   3.995  17.349  0.00  0.00    +0.000 N 
ATOM      7  C   UNL     1       4.597   4.793  16.673  0.00  0.00    +0.000 C 
ATOM      8  O   UNL     1       4.306   5.908  16.225  0.00  0.00    +0.000 OA
ATOM      9  C   UNL     1       4.091   3.032  18.370  0.00  0.00    +0.000 C 
ATOM     10  C   UNL     1       3.144   1.878  18.686  0.00  0.00    +0.000 C 
ATOM     11  C   UNL     1       1.926   2.166  19.562  0.00  0.00    +0.000 C 
ATOM     12  S   UNL     1       2.298   2.584  21.258  0.00  0.00    +0.000 S 
ATOM     13  O   UNL     1       1.309   1.924  22.086  0.00  0.00    +0.000 OA
ATOM     14  O   UNL     1       3.714   2.485  21.516  0.00  0.00    +0.000 OA
ENDROOT
BRANCH   1  16
ATOM     15  C   UNL     1       2.596   6.443  20.245  0.00  0.00    +0.000 C 
ATOM     16  C   UNL     1       2.942   5.217  21.070  0.00  0.00    +0.000 C 
ENDBRANCH   1  16
BRANCH   7  17
ATOM     17  C   UNL     1       5.996   4.249  16.450  0.00  0.00    +0.000 C 
BRANCH  17  18
ATOM     18  C   UNL     1       6.510   4.302  15.030  0.00  0.00    +0.000 A 
ATOM     19  C   UNL     1       7.528   5.176  14.625  0.00  0.00    +0.000 A 
ATOM     20  C   UNL     1       7.900   5.255  13.282  0.00  0.00    +0.000 A 
ATOM     21  C   UNL     1       7.241   4.479  12.329  0.00  0.00    +0.000 A 
ATOM     22  C   UNL     1       6.213   3.614  12.706  0.00  0.00    +0.000 A 
ATOM     23  C   UNL     1       5.856   3.527  14.054  0.00  0.00    +0.000 A 
BRANCH  22  24
ATOM     24  O   UNL     1       5.628   2.929  11.677  0.00  0.00    +0.000 OA
ATOM     25  C   UNL     1       4.230   3.121  11.492  0.00  0.00    +0.000 C 
ENDBRANCH  22  24
ENDBRANCH  17  18
ENDBRANCH   7  17
TORSDOF 4
ENDMDL
MODEL 5
REMARK VINA RESULT:      -6.7      5.641      8.438
REMARK  Name = 
REMARK  6 active torsions:
REMARK  status: ('A' for Active; 'I' for Inactive)
REMARK    1  A    between atoms: C_1  and  C_2
REMARK    2  A    between atoms: C_2  and  N_3
REMARK    3  A    between atoms: C_9  and  C_11
REMARK    4  A    between atoms: C_11  and  C_12
REMARK    5  A    between atoms: C_16  and  O_17
REMARK    6  A    between atoms: O_17  and  C_18
REMARK                            x       y       z     vdW  Elec       q    Type
REMARK                         _______ _______ _______ _____ _____    ______ ____
ROOT
ATOM      1  N   UNL     1       2.395   2.485  19.358  0.00  0.00    +0.000 NA
ATOM      2  C   UNL     1       3.354   2.936  20.390  0.00  0.00    +0.000 C 
ATOM      3  C   UNL     1       3.513   4.473  20.297  0.00  0.00    +0.000 C 
ATOM      4  C   UNL     1       4.929   4.938  19.963  0.00  0.00    +0.000 C 
ATOM      5  C   UNL     1       5.519   4.386  18.675  0.00  0.00    +0.000 C 
ATOM      6  N   UNL     1       5.108   5.036  17.433  0.00  0.00    +0.000 N 
ATOM      7  C   UNL     1       6.036   4.858  16.384  0.00  0.00    +0.000 C 
ATOM      8  O   UNL     1       7.084   4.222  16.545  0.00  0.00    +0.000 OA
ATOM      9  C   UNL     1       3.680   5.216  17.128  0.00  0.00    +0.000 C 
ATOM     10  C   UNL     1       2.827   5.893  18.197  0.00  0.00    +0.000 C 
ATOM     11  C   UNL     1       2.410   5.071  19.415  0.00  0.00    +0.000 C 
ATOM     12  S   UNL     1       1.271   3.740  19.072  0.00  0.00    +0.000 S 
ATOM     13  O   UNL     1       0.307   3.714  20.152  0.00  0.00    +0.000 OA
ATOM     14  O   UNL     1       0.876   3.741  17.684  0.00  0.00    +0.000 OA
ENDROOT
BRANCH   1  16
ATOM     15  C   UNL     1       4.117   0.898  18.477  0.00  0.00    +0.000 C 
ATOM     16  C   UNL     1       2.928   1.788  18.163  0.00  0.00    +0.000 C 
ENDBRANCH   1  16
BRANCH   7  17
ATOM     17  C   UNL     1       5.763   5.503  15.037  0.00  0.00    +0.000 C 
BRANCH  17  18
ATOM     18  C   UNL     1       6.307   4.774  13.830  0.00  0.00    +0.000 A 
ATOM     19  C   UNL     1       7.434   5.216  13.123  0.00  0.00    +0.000 A 
ATOM     20  C   UNL     1       7.838   4.563  11.958  0.00  0.00    +0.000 A 
ATOM     21  C   UNL     1       7.108   3.476  11.477  0.00  0.00    +0.000 A 
ATOM     22  C   UNL     1       5.973   3.029  12.156  0.00  0.00    +0.000 A 
ATOM     23  C   UNL     1       5.582   3.677  13.329  0.00  0.00    +0.000 A 
BRANCH  22  24
ATOM     24  O   UNL     1       5.329   1.975  11.569  0.00  0.00    +0.000 OA
ATOM     25  C   UNL     1       6.147   0.935  11.044  0.00  0.00    +0.000 C 
ENDBRANCH  22  24
ENDBRANCH  17  18
ENDBRANCH   7  17
TORSDOF 4
ENDMDL
MODEL 6
REMARK VINA RESULT:      -6.7      5.695      8.461
REMARK  Name = 
REMARK  6 active torsions:
REMARK  status: ('A' for Active; 'I' for Inactive)
REMARK    1  A    between atoms: C_1  and  C_2
REMARK    2  A    between atoms: C_2  and  N_3
REMARK    3  A    between atoms: C_9  and  C_11
REMARK    4  A    between atoms: C_11  and  C_12
REMARK    5  A    between atoms: C_16  and  O_17
REMARK    6  A    between atoms: O_17  and  C_18
REMARK                            x       y       z     vdW  Elec       q    Type
REMARK                         _______ _______ _______ _____ _____    ______ ____
ROOT
ATOM      1  N   UNL     1       2.680   2.824  19.057  0.00  0.00    +0.000 NA
ATOM      2  C   UNL     1       3.678   3.225  20.072  0.00  0.00    +0.000 C 
ATOM      3  C   UNL     1       3.991   4.732  19.907  0.00  0.00    +0.000 C 
ATOM      4  C   UNL     1       5.448   5.036  19.561  0.00  0.00    +0.000 C 
ATOM      5  C   UNL     1       5.980   4.366  18.304  0.00  0.00    +0.000 C 
ATOM      6  N   UNL     1       5.638   4.995  17.030  0.00  0.00    +0.000 N 
ATOM      7  C   UNL     1       6.545   4.674  15.996  0.00  0.00    +0.000 C 
ATOM      8  O   UNL     1       7.523   3.944  16.194  0.00  0.00    +0.000 OA
ATOM      9  C   UNL     1       4.236   5.302  16.708  0.00  0.00    +0.000 C 
ATOM     10  C   UNL     1       3.454   6.113  17.739  0.00  0.00    +0.000 C 
ATOM     11  C   UNL     1       2.955   5.396  18.992  0.00  0.00    +0.000 C 
ATOM     12  S   UNL     1       1.688   4.171  18.705  0.00  0.00    +0.000 S 
ATOM     13  O   UNL     1       0.725   4.294  19.780  0.00  0.00    +0.000 OA
ATOM     14  O   UNL     1       1.297   4.146  17.316  0.00  0.00    +0.000 OA
ENDROOT
BRANCH   1  16
ATOM     15  C   UNL     1       4.178   0.978  18.277  0.00  0.00    +0.000 C 
ATOM     16  C   UNL     1       3.141   2.021  17.900  0.00  0.00    +0.000 C 
ENDBRANCH   1  16
BRANCH   7  17
ATOM     17  C   UNL     1       6.340   5.278  14.619  0.00  0.00    +0.000 C 
BRANCH  17  18
ATOM     18  C   UNL     1       6.194   4.296  13.479  0.00  0.00    +0.000 A 
ATOM     19  C   UNL     1       7.294   3.737  12.815  0.00  0.00    +0.000 A 
ATOM     20  C   UNL     1       7.106   2.911  11.706  0.00  0.00    +0.000 A 
ATOM     21  C   UNL     1       5.818   2.655  11.237  0.00  0.00    +0.000 A 
ATOM     22  C   UNL     1       4.708   3.214  11.872  0.00  0.00    +0.000 A 
ATOM     23  C   UNL     1       4.901   4.027  12.991  0.00  0.00    +0.000 A 
BRANCH  22  24
ATOM     24  O   UNL     1       3.503   2.910  11.301  0.00  0.00    +0.000 OA
ATOM     25  C   UNL     1       3.197   3.554  10.069  0.00  0.00    +0.000 C 
ENDBRANCH  22  24
ENDBRANCH  17  18
ENDBRANCH   7  17
TORSDOF 4
ENDMDL
MODEL 7
REMARK VINA RESULT:      -6.6      3.910      8.382
REMARK  Name = 
REMARK  6 active torsions:
REMARK  status: ('A' for Active; 'I' for Inactive)
REMARK    1  A    between atoms: C_1  and  C_2
REMARK    2  A    between atoms: C_2  and  N_3
REMARK    3  A    between atoms: C_9  and  C_11
REMARK    4  A    between atoms: C_11  and  C_12
REMARK    5  A    between atoms: C_16  and  O_17
REMARK    6  A    between atoms: O_17  and  C_18
REMARK                            x       y       z     vdW  Elec       q    Type
REMARK                         _______ _______ _______ _____ _____    ______ ____
ROOT
ATOM      1  N   UNL     1       6.712   4.633  18.156  0.00  0.00    +0.000 NA
ATOM      2  C   UNL     1       5.623   3.639  18.027  0.00  0.00    +0.000 C 
ATOM      3  C   UNL     1       4.702   4.047  16.853  0.00  0.00    +0.000 C 
ATOM      4  C   UNL     1       3.259   4.343  17.260  0.00  0.00    +0.000 C 
ATOM      5  C   UNL     1       3.080   5.422  18.316  0.00  0.00    +0.000 C 
ATOM      6  N   UNL     1       3.141   6.808  17.856  0.00  0.00    +0.000 N 
ATOM      7  C   UNL     1       2.472   7.704  18.717  0.00  0.00    +0.000 C 
ATOM      8  O   UNL     1       1.894   7.315  19.738  0.00  0.00    +0.000 OA
ATOM      9  C   UNL     1       4.284   7.273  17.054  0.00  0.00    +0.000 C 
ATOM     10  C   UNL     1       4.632   6.458  15.812  0.00  0.00    +0.000 C 
ATOM     11  C   UNL     1       5.371   5.134  16.002  0.00  0.00    +0.000 C 
ATOM     12  S   UNL     1       7.042   5.284  16.611  0.00  0.00    +0.000 S 
ATOM     13  O   UNL     1       7.845   4.315  15.894  0.00  0.00    +0.000 OA
ATOM     14  O   UNL     1       7.426   6.669  16.732  0.00  0.00    +0.000 OA
ENDROOT
BRANCH   1  16
ATOM     15  C   UNL     1       7.990   5.778  19.976  0.00  0.00    +0.000 C 
ATOM     16  C   UNL     1       6.653   5.595  19.282  0.00  0.00    +0.000 C 
ENDBRANCH   1  16
BRANCH   7  17
ATOM     17  C   UNL     1       2.421   9.178  18.355  0.00  0.00    +0.000 C 
BRANCH  17  18
ATOM     18  C   UNL     1       1.094   9.868  18.570  0.00  0.00    +0.000 A 
ATOM     19  C   UNL     1      -0.049   9.564  17.817  0.00  0.00    +0.000 A 
ATOM     20  C   UNL     1      -1.224  10.297  17.987  0.00  0.00    +0.000 A 
ATOM     21  C   UNL     1      -1.261  11.355  18.895  0.00  0.00    +0.000 A 
ATOM     22  C   UNL     1      -0.131  11.687  19.643  0.00  0.00    +0.000 A 
ATOM     23  C   UNL     1       1.037  10.940  19.480  0.00  0.00    +0.000 A 
BRANCH  22  24
ATOM     24  O   UNL     1      -0.286  12.760  20.477  0.00  0.00    +0.000 OA
ATOM     25  C   UNL     1      -1.467  13.537  20.309  0.00  0.00    +0.000 C 
ENDBRANCH  22  24
ENDBRANCH  17  18
ENDBRANCH   7  17
TORSDOF 4
ENDMDL
MODEL 8
REMARK VINA RESULT:      -6.6      3.203      8.234
REMARK  Name = 
REMARK  6 active torsions:
REMARK  status: ('A' for Active; 'I' for Inactive)
REMARK    1  A    between atoms: C_1  and  C_2
REMARK    2  A    between atoms: C_2  and  N_3
REMARK    3  A    between atoms: C_9  and  C_11
REMARK    4  A    between atoms: C_11  and  C_12
REMARK    5  A    between atoms: C_16  and  O_17
REMARK    6  A    between atoms: O_17  and  C_18
REMARK                            x       y       z     vdW  Elec       q    Type
REMARK                         _______ _______ _______ _____ _____    ______ ____
ROOT
ATOM      1  N   UNL     1       4.496   3.339  19.346  0.00  0.00    +0.000 NA
ATOM      2  C   UNL     1       3.531   3.101  20.441  0.00  0.00    +0.000 C 
ATOM      3  C   UNL     1       2.093   3.264  19.893  0.00  0.00    +0.000 C 
ATOM      4  C   UNL     1       1.294   4.389  20.551  0.00  0.00    +0.000 C 
ATOM      5  C   UNL     1       1.921   5.772  20.478  0.00  0.00    +0.000 C 
ATOM      6  N   UNL     1       1.751   6.504  19.224  0.00  0.00    +0.000 N 
ATOM      7  C   UNL     1       1.870   7.902  19.383  0.00  0.00    +0.000 C 
ATOM      8  O   UNL     1       2.081   8.416  20.487  0.00  0.00    +0.000 OA
ATOM      9  C   UNL     1       2.113   5.876  17.944  0.00  0.00    +0.000 C 
ATOM     10  C   UNL     1       1.508   4.506  17.654  0.00  0.00    +0.000 C 
ATOM     11  C   UNL     1       2.105   3.289  18.360  0.00  0.00    +0.000 C 
ATOM     12  S   UNL     1       3.771   2.875  17.869  0.00  0.00    +0.000 S 
ATOM     13  O   UNL     1       3.844   1.431  17.784  0.00  0.00    +0.000 OA
ATOM     14  O   UNL     1       4.226   3.736  16.805  0.00  0.00    +0.000 OA
ENDROOT
BRANCH   1  16
ATOM     15  C   UNL     1       6.536   4.540  18.536  0.00  0.00    +0.000 C 
ATOM     16  C   UNL     1       5.251   4.614  19.341  0.00  0.00    +0.000 C 
ENDBRANCH   1  16
BRANCH   7  17
ATOM     17  C   UNL     1       1.686   8.801  18.173  0.00  0.00    +0.000 C 
BRANCH  17  18
ATOM     18  C   UNL     1       0.950  10.098  18.417  0.00  0.00    +0.000 A 
ATOM     19  C   UNL     1      -0.449  10.186  18.420  0.00  0.00    +0.000 A 
ATOM     20  C   UNL     1      -1.080  11.424  18.552  0.00  0.00    +0.000 A 
ATOM     21  C   UNL     1      -0.318  12.588  18.660  0.00  0.00    +0.000 A 
ATOM     22  C   UNL     1       1.076  12.526  18.643  0.00  0.00    +0.000 A 
ATOM     23  C   UNL     1       1.701  11.283  18.526  0.00  0.00    +0.000 A 
BRANCH  22  24
ATOM     24  O   UNL     1       1.708  13.736  18.729  0.00  0.00    +0.000 OA
ATOM     25  C   UNL     1       3.092  13.761  18.399  0.00  0.00    +0.000 C 
ENDBRANCH  22  24
ENDBRANCH  17  18
ENDBRANCH   7  17
TORSDOF 4
ENDMDL
MODEL 9
REMARK VINA RESULT:      -6.6      3.346      7.991
REMARK  Name = 
REMARK  6 active torsions:
REMARK  status: ('A' for Active; 'I' for Inactive)
REMARK    1  A    between atoms: C_1  and  C_2
REMARK    2  A    between atoms: C_2  and  N_3
REMARK    3  A    between atoms: C_9  and  C_11
REMARK    4  A    between atoms: C_11  and  C_12
REMARK    5  A    between atoms: C_16  and  O_17
REMARK    6  A    between atoms: O_17  and  C_18
REMARK                            x       y       z     vdW  Elec       q    Type
REMARK                         _______ _______ _______ _____ _____    ______ ____
ROOT
ATOM      1  N   UNL     1       4.542   3.419  19.281  0.00  0.00    +0.000 NA
ATOM      2  C   UNL     1       3.581   3.107  20.361  0.00  0.00    +0.000 C 
ATOM      3  C   UNL     1       2.140   3.281  19.822  0.00  0.00    +0.000 C 
ATOM      4  C   UNL     1       1.327   4.355  20.542  0.00  0.00    +0.000 C 
ATOM      5  C   UNL     1       1.934   5.749  20.547  0.00  0.00    +0.000 C 
ATOM      6  N   UNL     1       1.754   6.549  19.337  0.00  0.00    +0.000 N 
ATOM      7  C   UNL     1       1.853   7.937  19.574  0.00  0.00    +0.000 C 
ATOM      8  O   UNL     1       2.058   8.390  20.706  0.00  0.00    +0.000 OA
ATOM      9  C   UNL     1       2.125   5.999  18.024  0.00  0.00    +0.000 C 
ATOM     10  C   UNL     1       1.538   4.639  17.656  0.00  0.00    +0.000 C 
ATOM     11  C   UNL     1       2.152   3.393  18.292  0.00  0.00    +0.000 C 
ATOM     12  S   UNL     1       3.823   3.030  17.780  0.00  0.00    +0.000 S 
ATOM     13  O   UNL     1       3.916   1.594  17.614  0.00  0.00    +0.000 OA
ATOM     14  O   UNL     1       4.266   3.956  16.766  0.00  0.00    +0.000 OA
ENDROOT
BRANCH   1  16
ATOM     15  C   UNL     1       6.651   4.635  18.700  0.00  0.00    +0.000 C 
ATOM     16  C   UNL     1       5.280   4.703  19.349  0.00  0.00    +0.000 C 
ENDBRANCH   1  16
BRANCH   7  17
ATOM     17  C   UNL     1       1.657   8.900  18.418  0.00  0.00    +0.000 C 
BRANCH  17  18
ATOM     18  C   UNL     1       0.500   9.864  18.546  0.00  0.00    +0.000 A 
ATOM     19  C   UNL     1       0.476  10.897  19.494  0.00  0.00    +0.000 A 
ATOM     20  C   UNL     1      -0.656  11.699  19.637  0.00  0.00    +0.000 A 
ATOM     21  C   UNL     1      -1.784  11.462  18.851  0.00  0.00    +0.000 A 
ATOM     22  C   UNL     1      -1.789  10.430  17.912  0.00  0.00    +0.000 A 
ATOM     23  C   UNL     1      -0.647   9.640  17.762  0.00  0.00    +0.000 A 
BRANCH  22  24
ATOM     24  O   UNL     1      -2.961  10.282  17.224  0.00  0.00    +0.000 OA
ATOM     25  C   UNL     1      -3.829  11.409  17.186  0.00  0.00    +0.000 C 
ENDBRANCH  22  24
ENDBRANCH  17  18
ENDBRANCH   7  17
TORSDOF 4
ENDMDL
