MODEL 1
REMARK VINA RESULT:      -7.7      0.000      0.000
REMARK  Name = 
REMARK  8 active torsions:
REMARK  status: ('A' for Active; 'I' for Inactive)
REMARK    1  A    between atoms: C_2  and  C_3
REMARK    2  A    between atoms: C_3  and  C_4
REMARK    3  A    between atoms: C_4  and  C_5
REMARK    4  A    between atoms: C_5  and  N_6
REMARK    5  A    between atoms: N_17  and  C_18
REMARK    6  A    between atoms: C_18  and  C_19
REMARK    7  A    between atoms: C_19  and  N_20
REMARK    8  A    between atoms: C_25  and  C_26
REMARK                            x       y       z     vdW  Elec       q    Type
REMARK                         _______ _______ _______ _____ _____    ______ ____
ROOT
ATOM      1  O   UNL     1       2.645   7.494  17.653  0.00  0.00    +0.000 OA
ATOM      2  C   UNL     1       2.258   7.670  18.802  0.00  0.00    +0.000 C 
ATOM      3  N   UNL     1       1.478   8.739  19.187  0.00  0.00    +0.000 N 
ATOM      4  H   UNL     1       1.150   8.802  20.143  0.00  0.00    +0.000 HD
ENDROOT
BRANCH   2   5
ATOM      5  C   UNL     1       2.646   6.748  19.939  0.00  0.00    +0.000 C 
BRANCH   5   6
ATOM      6  C   UNL     1       1.934   5.400  19.856  0.00  0.00    +0.000 C 
BRANCH   6   7
ATOM      7  C   UNL     1       2.899   4.216  19.798  0.00  0.00    +0.000 C 
BRANCH   7   8
ATOM      8  N   UNL     1       3.825   4.335  18.694  0.00  0.00    +0.000 N 
ATOM      9  C   UNL     1       5.145   4.663  18.825  0.00  0.00    +0.000 C 
ATOM     10  O   UNL     1       5.776   4.922  19.831  0.00  0.00    +0.000 OA
ATOM     11  C   UNL     1       5.710   4.639  17.476  0.00  0.00    +0.000 A 
ATOM     12  C   UNL     1       6.993   4.896  17.039  0.00  0.00    +0.000 A 
ATOM     13  C   UNL     1       7.237   4.764  15.668  0.00  0.00    +0.000 A 
ATOM     14  C   UNL     1       6.208   4.385  14.781  0.00  0.00    +0.000 A 
ATOM     15  C   UNL     1       4.915   4.133  15.248  0.00  0.00    +0.000 A 
ATOM     16  C   UNL     1       4.700   4.271  16.605  0.00  0.00    +0.000 A 
ATOM     17  C   UNL     1       3.488   4.071  17.395  0.00  0.00    +0.000 C 
ATOM     18  O   UNL     1       2.418   3.729  16.932  0.00  0.00    +0.000 OA
ENDBRANCH   7   8
ENDBRANCH   6   7
ENDBRANCH   5   6
ENDBRANCH   2   5
BRANCH   3  19
ATOM     19  C   UNL     1       1.050   9.756  18.244  0.00  0.00    +0.000 C 
BRANCH  19  20
ATOM     20  C   UNL     1       1.416  11.168  18.711  0.00  0.00    +0.000 C 
BRANCH  20  21
ATOM     21  N   UNL     1       0.382  11.755  19.546  0.00  0.00    +0.000 N 
ATOM     22  C   UNL     1      -0.605  12.532  19.006  0.00  0.00    +0.000 C 
ATOM     23  O   UNL     1      -0.748  12.839  17.834  0.00  0.00    +0.000 OA
ATOM     24  S   UNL     1      -1.689  13.086  20.264  0.00  0.00    +0.000 S 
ATOM     25  C   UNL     1      -0.765  12.334  21.507  0.00  0.00    +0.000 C 
ATOM     26  C   UNL     1      -1.020  12.292  22.821  0.00  0.00    +0.000 C 
ATOM     27  C   UNL     1       0.422  11.659  20.917  0.00  0.00    +0.000 C 
ATOM     28  O   UNL     1       1.302  11.115  21.575  0.00  0.00    +0.000 OA
BRANCH  26  29
ATOM     29  C   UNL     1      -2.184  12.864  23.400  0.00  0.00    +0.000 A 
ATOM     30  C   UNL     1      -3.436  12.307  23.588  0.00  0.00    +0.000 A 
ATOM     31  C   UNL     1      -4.360  13.216  24.183  0.00  0.00    +0.000 A 
ATOM     32  C   UNL     1      -3.787  14.441  24.435  0.00  0.00    +0.000 A 
ATOM     33  S   UNL     1      -2.150  14.495  23.947  0.00  0.00    +0.000 S 
ENDBRANCH  26  29
ENDBRANCH  20  21
ENDBRANCH  19  20
ENDBRANCH   3  19
TORSDOF 8
ENDMDL
MODEL 2
REMARK VINA RESULT:      -7.5      1.733      2.491
REMARK  Name = 
REMARK  8 active torsions:
REMARK  status: ('A' for Active; 'I' for Inactive)
REMARK    1  A    between atoms: C_2  and  C_3
REMARK    2  A    between atoms: C_3  and  C_4
REMARK    3  A    between atoms: C_4  and  C_5
REMARK    4  A    between atoms: C_5  and  N_6
REMARK    5  A    between atoms: N_17  and  C_18
REMARK    6  A    between atoms: C_18  and  C_19
REMARK    7  A    between atoms: C_19  and  N_20
REMARK    8  A    between atoms: C_25  and  C_26
REMARK                            x       y       z     vdW  Elec       q    Type
REMARK                         _______ _______ _______ _____ _____    ______ ____
ROOT
ATOM      1  O   UNL     1       2.250   8.401  18.848  0.00  0.00    +0.000 OA
ATOM      2  C   UNL     1       2.182   7.367  19.501  0.00  0.00    +0.000 C 
ATOM      3  N   UNL     1       1.741   7.317  20.805  0.00  0.00    +0.000 N 
ATOM      4  H   UNL     1       1.661   6.424  21.275  0.00  0.00    +0.000 HD
ENDROOT
BRANCH   2   5
ATOM      5  C   UNL     1       2.630   6.030  18.950  0.00  0.00    +0.000 C 
BRANCH   5   6
ATOM      6  C   UNL     1       2.414   4.894  19.947  0.00  0.00    +0.000 C 
BRANCH   6   7
ATOM      7  C   UNL     1       3.455   3.781  19.823  0.00  0.00    +0.000 C 
BRANCH   7   8
ATOM      8  N   UNL     1       4.294   3.963  18.658  0.00  0.00    +0.000 N 
ATOM      9  C   UNL     1       3.918   3.653  17.381  0.00  0.00    +0.000 C 
ATOM     10  O   UNL     1       2.874   3.176  16.981  0.00  0.00    +0.000 OA
ATOM     11  C   UNL     1       5.043   4.022  16.522  0.00  0.00    +0.000 A 
ATOM     12  C   UNL     1       5.196   3.918  15.155  0.00  0.00    +0.000 A 
ATOM     13  C   UNL     1       6.397   4.387  14.611  0.00  0.00    +0.000 A 
ATOM     14  C   UNL     1       7.400   4.939  15.435  0.00  0.00    +0.000 A 
ATOM     15  C   UNL     1       7.223   5.029  16.819  0.00  0.00    +0.000 A 
ATOM     16  C   UNL     1       6.030   4.560  17.330  0.00  0.00    +0.000 A 
ATOM     17  C   UNL     1       5.539   4.524  18.706  0.00  0.00    +0.000 C 
ATOM     18  O   UNL     1       6.163   4.935  19.665  0.00  0.00    +0.000 OA
ENDBRANCH   7   8
ENDBRANCH   6   7
ENDBRANCH   5   6
ENDBRANCH   2   5
BRANCH   3  19
ATOM     19  C   UNL     1       1.317   8.509  21.518  0.00  0.00    +0.000 C 
BRANCH  19  20
ATOM     20  C   UNL     1      -0.189   8.755  21.388  0.00  0.00    +0.000 C 
BRANCH  20  21
ATOM     21  N   UNL     1      -0.513  10.172  21.357  0.00  0.00    +0.000 N 
ATOM     22  C   UNL     1      -0.623  10.844  20.172  0.00  0.00    +0.000 C 
ATOM     23  O   UNL     1      -0.463  10.396  19.048  0.00  0.00    +0.000 OA
ATOM     24  S   UNL     1      -1.020  12.523  20.469  0.00  0.00    +0.000 S 
ATOM     25  C   UNL     1      -0.958  12.322  22.178  0.00  0.00    +0.000 C 
ATOM     26  C   UNL     1      -1.209  13.230  23.130  0.00  0.00    +0.000 C 
ATOM     27  C   UNL     1      -0.599  10.917  22.509  0.00  0.00    +0.000 C 
ATOM     28  O   UNL     1      -0.400  10.508  23.647  0.00  0.00    +0.000 OA
BRANCH  26  29
ATOM     29  C   UNL     1      -1.626  14.557  22.841  0.00  0.00    +0.000 A 
ATOM     30  C   UNL     1      -2.901  15.052  22.639  0.00  0.00    +0.000 A 
ATOM     31  C   UNL     1      -2.910  16.447  22.340  0.00  0.00    +0.000 A 
ATOM     32  C   UNL     1      -1.640  16.977  22.326  0.00  0.00    +0.000 A 
ATOM     33  S   UNL     1      -0.449  15.799  22.659  0.00  0.00    +0.000 S 
ENDBRANCH  26  29
ENDBRANCH  20  21
ENDBRANCH  19  20
ENDBRANCH   3  19
TORSDOF 8
ENDMDL
MODEL 3
REMARK VINA RESULT:      -7.5      1.866      2.102
REMARK  Name = 
REMARK  8 active torsions:
REMARK  status: ('A' for Active; 'I' for Inactive)
REMARK    1  A    between atoms: C_2  and  C_3
REMARK    2  A    between atoms: C_3  and  C_4
REMARK    3  A    between atoms: C_4  and  C_5
REMARK    4  A    between atoms: C_5  and  N_6
REMARK    5  A    between atoms: N_17  and  C_18
REMARK    6  A    between atoms: C_18  and  C_19
REMARK    7  A    between atoms: C_19  and  N_20
REMARK    8  A    between atoms: C_25  and  C_26
REMARK                            x       y       z     vdW  Elec       q    Type
REMARK                         _______ _______ _______ _____ _____    ______ ____
ROOT
ATOM      1  O   UNL     1       2.604   6.675  19.271  0.00  0.00    +0.000 OA
ATOM      2  C   UNL     1       2.152   6.319  20.353  0.00  0.00    +0.000 C 
ATOM      3  N   UNL     1       1.488   7.163  21.215  0.00  0.00    +0.000 N 
ATOM      4  H   UNL     1       1.094   6.797  22.073  0.00  0.00    +0.000 HD
ENDROOT
BRANCH   2   5
ATOM      5  C   UNL     1       2.325   4.910  20.880  0.00  0.00    +0.000 C 
BRANCH   5   6
ATOM      6  C   UNL     1       1.612   3.878  20.010  0.00  0.00    +0.000 C 
BRANCH   6   7
ATOM      7  C   UNL     1       2.550   2.799  19.468  0.00  0.00    +0.000 C 
BRANCH   7   8
ATOM      8  N   UNL     1       3.531   3.352  18.561  0.00  0.00    +0.000 N 
ATOM      9  C   UNL     1       4.823   3.640  18.903  0.00  0.00    +0.000 C 
ATOM     10  O   UNL     1       5.380   3.514  19.976  0.00  0.00    +0.000 OA
ATOM     11  C   UNL     1       5.466   4.144  17.689  0.00  0.00    +0.000 A 
ATOM     12  C   UNL     1       6.756   4.581  17.476  0.00  0.00    +0.000 A 
ATOM     13  C   UNL     1       7.087   4.985  16.178  0.00  0.00    +0.000 A 
ATOM     14  C   UNL     1       6.131   4.944  15.141  0.00  0.00    +0.000 A 
ATOM     15  C   UNL     1       4.828   4.501  15.383  0.00  0.00    +0.000 A 
ATOM     16  C   UNL     1       4.528   4.108  16.672  0.00  0.00    +0.000 A 
ATOM     17  C   UNL     1       3.285   3.592  17.238  0.00  0.00    +0.000 C 
ATOM     18  O   UNL     1       2.261   3.424  16.603  0.00  0.00    +0.000 OA
ENDBRANCH   7   8
ENDBRANCH   6   7
ENDBRANCH   5   6
ENDBRANCH   2   5
BRANCH   3  19
ATOM     19  C   UNL     1       1.271   8.564  20.903  0.00  0.00    +0.000 C 
BRANCH  19  20
ATOM     20  C   UNL     1      -0.208   8.953  20.990  0.00  0.00    +0.000 C 
BRANCH  20  21
ATOM     21  N   UNL     1      -0.394  10.394  21.048  0.00  0.00    +0.000 N 
ATOM     22  C   UNL     1      -0.382  11.153  19.911  0.00  0.00    +0.000 C 
ATOM     23  O   UNL     1      -0.212  10.769  18.766  0.00  0.00    +0.000 OA
ATOM     24  S   UNL     1      -0.631  12.839  20.313  0.00  0.00    +0.000 S 
ATOM     25  C   UNL     1      -0.672  12.517  22.004  0.00  0.00    +0.000 C 
ATOM     26  C   UNL     1      -0.881  13.377  23.009  0.00  0.00    +0.000 C 
ATOM     27  C   UNL     1      -0.464  11.063  22.247  0.00  0.00    +0.000 C 
ATOM     28  O   UNL     1      -0.360  10.560  23.359  0.00  0.00    +0.000 OA
BRANCH  26  29
ATOM     29  C   UNL     1      -1.155  14.755  22.800  0.00  0.00    +0.000 A 
ATOM     30  C   UNL     1      -2.370  15.391  22.626  0.00  0.00    +0.000 A 
ATOM     31  C   UNL     1      -2.231  16.795  22.413  0.00  0.00    +0.000 A 
ATOM     32  C   UNL     1      -0.914  17.190  22.433  0.00  0.00    +0.000 A 
ATOM     33  S   UNL     1       0.146  15.876  22.697  0.00  0.00    +0.000 S 
ENDBRANCH  26  29
ENDBRANCH  20  21
ENDBRANCH  19  20
ENDBRANCH   3  19
TORSDOF 8
ENDMDL
MODEL 4
REMARK VINA RESULT:      -7.5      0.660      1.746
REMARK  Name = 
REMARK  8 active torsions:
REMARK  status: ('A' for Active; 'I' for Inactive)
REMARK    1  A    between atoms: C_2  and  C_3
REMARK    2  A    between atoms: C_3  and  C_4
REMARK    3  A    between atoms: C_4  and  C_5
REMARK    4  A    between atoms: C_5  and  N_6
REMARK    5  A    between atoms: N_17  and  C_18
REMARK    6  A    between atoms: C_18  and  C_19
REMARK    7  A    between atoms: C_19  and  N_20
REMARK    8  A    between atoms: C_25  and  C_26
REMARK                            x       y       z     vdW  Elec       q    Type
REMARK                         _______ _______ _______ _____ _____    ______ ____
ROOT
ATOM      1  O   UNL     1       2.722   7.918  17.759  0.00  0.00    +0.000 OA
ATOM      2  C   UNL     1       2.177   7.910  18.855  0.00  0.00    +0.000 C 
ATOM      3  N   UNL     1       1.221   8.827  19.237  0.00  0.00    +0.000 N 
ATOM      4  H   UNL     1       0.772   8.737  20.139  0.00  0.00    +0.000 HD
ENDROOT
BRANCH   2   5
ATOM      5  C   UNL     1       2.540   6.912  19.934  0.00  0.00    +0.000 C 
BRANCH   5   6
ATOM      6  C   UNL     1       2.081   5.498  19.589  0.00  0.00    +0.000 C 
BRANCH   6   7
ATOM      7  C   UNL     1       3.183   4.452  19.756  0.00  0.00    +0.000 C 
BRANCH   7   8
ATOM      8  N   UNL     1       4.088   4.446  18.628  0.00  0.00    +0.000 N 
ATOM      9  C   UNL     1       3.749   4.035  17.369  0.00  0.00    +0.000 C 
ATOM     10  O   UNL     1       2.688   3.603  16.962  0.00  0.00    +0.000 OA
ATOM     11  C   UNL     1       4.940   4.224  16.542  0.00  0.00    +0.000 A 
ATOM     12  C   UNL     1       5.148   3.966  15.203  0.00  0.00    +0.000 A 
ATOM     13  C   UNL     1       6.408   4.281  14.682  0.00  0.00    +0.000 A 
ATOM     14  C   UNL     1       7.414   4.835  15.501  0.00  0.00    +0.000 A 
ATOM     15  C   UNL     1       7.179   5.083  16.857  0.00  0.00    +0.000 A 
ATOM     16  C   UNL     1       5.928   4.764  17.346  0.00  0.00    +0.000 A 
ATOM     17  C   UNL     1       5.373   4.910  18.688  0.00  0.00    +0.000 C 
ATOM     18  O   UNL     1       5.982   5.369  19.635  0.00  0.00    +0.000 OA
ENDBRANCH   7   8
ENDBRANCH   6   7
ENDBRANCH   5   6
ENDBRANCH   2   5
BRANCH   3  19
ATOM     19  C   UNL     1       0.781   9.891  18.352  0.00  0.00    +0.000 C 
BRANCH  19  20
ATOM     20  C   UNL     1       1.344  11.254  18.765  0.00  0.00    +0.000 C 
BRANCH  20  21
ATOM     21  N   UNL     1       0.421  11.996  19.609  0.00  0.00    +0.000 N 
ATOM     22  C   UNL     1      -0.310  13.038  19.109  0.00  0.00    +0.000 C 
ATOM     23  O   UNL     1      -0.288  13.479  17.972  0.00  0.00    +0.000 OA
ATOM     24  S   UNL     1      -1.319  13.720  20.366  0.00  0.00    +0.000 S 
ATOM     25  C   UNL     1      -0.695  12.651  21.563  0.00  0.00    +0.000 C 
ATOM     26  C   UNL     1      -1.049  12.549  22.851  0.00  0.00    +0.000 C 
ATOM     27  C   UNL     1       0.336  11.764  20.961  0.00  0.00    +0.000 C 
ATOM     28  O   UNL     1       1.010  10.962  21.597  0.00  0.00    +0.000 OA
BRANCH  26  29
ATOM     29  C   UNL     1      -2.082  13.332  23.432  0.00  0.00    +0.000 A 
ATOM     30  C   UNL     1      -1.988  14.489  24.184  0.00  0.00    +0.000 A 
ATOM     31  C   UNL     1      -3.259  14.968  24.618  0.00  0.00    +0.000 A 
ATOM     32  C   UNL     1      -4.288  14.166  24.182  0.00  0.00    +0.000 A 
ATOM     33  S   UNL     1      -3.722  12.839  23.266  0.00  0.00    +0.000 S 
ENDBRANCH  26  29
ENDBRANCH  20  21
ENDBRANCH  19  20
ENDBRANCH   3  19
TORSDOF 8
ENDMDL
MODEL 5
REMARK VINA RESULT:      -7.4      3.197      4.289
REMARK  Name = 
REMARK  8 active torsions:
REMARK  status: ('A' for Active; 'I' for Inactive)
REMARK    1  A    between atoms: C_2  and  C_3
REMARK    2  A    between atoms: C_3  and  C_4
REMARK    3  A    between atoms: C_4  and  C_5
REMARK    4  A    between atoms: C_5  and  N_6
REMARK    5  A    between atoms: N_17  and  C_18
REMARK    6  A    between atoms: C_18  and  C_19
REMARK    7  A    between atoms: C_19  and  N_20
REMARK    8  A    between atoms: C_25  and  C_26
REMARK                            x       y       z     vdW  Elec       q    Type
REMARK                         _______ _______ _______ _____ _____    ______ ____
ROOT
ATOM      1  O   UNL     1       1.653   5.398  20.890  0.00  0.00    +0.000 OA
ATOM      2  C   UNL     1       2.224   6.011  19.997  0.00  0.00    +0.000 C 
ATOM      3  N   UNL     1       2.220   7.385  19.894  0.00  0.00    +0.000 N 
ATOM      4  H   UNL     1       2.753   7.835  19.160  0.00  0.00    +0.000 HD
ENDROOT
BRANCH   2   5
ATOM      5  C   UNL     1       2.958   5.311  18.873  0.00  0.00    +0.000 C 
BRANCH   5   6
ATOM      6  C   UNL     1       4.086   6.165  18.300  0.00  0.00    +0.000 C 
BRANCH   6   7
ATOM      7  C   UNL     1       5.411   5.411  18.187  0.00  0.00    +0.000 C 
BRANCH   7   8
ATOM      8  N   UNL     1       5.749   5.132  16.809  0.00  0.00    +0.000 N 
ATOM      9  C   UNL     1       6.800   5.699  16.142  0.00  0.00    +0.000 C 
ATOM     10  O   UNL     1       7.609   6.515  16.536  0.00  0.00    +0.000 OA
ATOM     11  C   UNL     1       6.795   5.117  14.800  0.00  0.00    +0.000 A 
ATOM     12  C   UNL     1       7.631   5.340  13.726  0.00  0.00    +0.000 A 
ATOM     13  C   UNL     1       7.386   4.601  12.564  0.00  0.00    +0.000 A 
ATOM     14  C   UNL     1       6.325   3.673  12.504  0.00  0.00    +0.000 A 
ATOM     15  C   UNL     1       5.490   3.467  13.606  0.00  0.00    +0.000 A 
ATOM     16  C   UNL     1       5.753   4.209  14.740  0.00  0.00    +0.000 A 
ATOM     17  C   UNL     1       5.085   4.218  16.039  0.00  0.00    +0.000 C 
ATOM     18  O   UNL     1       4.131   3.520  16.323  0.00  0.00    +0.000 OA
ENDBRANCH   7   8
ENDBRANCH   6   7
ENDBRANCH   5   6
ENDBRANCH   2   5
BRANCH   3  19
ATOM     19  C   UNL     1       1.525   8.225  20.852  0.00  0.00    +0.000 C 
BRANCH  19  20
ATOM     20  C   UNL     1       0.479   9.122  20.183  0.00  0.00    +0.000 C 
BRANCH  20  21
ATOM     21  N   UNL     1       1.056  10.358  19.682  0.00  0.00    +0.000 N 
ATOM     22  C   UNL     1       1.644  10.414  18.449  0.00  0.00    +0.000 C 
ATOM     23  O   UNL     1       1.778   9.501  17.651  0.00  0.00    +0.000 OA
ATOM     24  S   UNL     1       2.238  12.031  18.140  0.00  0.00    +0.000 S 
ATOM     25  C   UNL     1       1.759  12.595  19.695  0.00  0.00    +0.000 C 
ATOM     26  C   UNL     1       1.861  13.832  20.197  0.00  0.00    +0.000 C 
ATOM     27  C   UNL     1       1.144  11.483  20.469  0.00  0.00    +0.000 C 
ATOM     28  O   UNL     1       0.788  11.572  21.638  0.00  0.00    +0.000 OA
BRANCH  26  29
ATOM     29  C   UNL     1       2.376  14.927  19.454  0.00  0.00    +0.000 A 
ATOM     30  C   UNL     1       1.716  15.803  18.612  0.00  0.00    +0.000 A 
ATOM     31  C   UNL     1       2.590  16.762  18.019  0.00  0.00    +0.000 A 
ATOM     32  C   UNL     1       3.892  16.592  18.428  0.00  0.00    +0.000 A 
ATOM     33  S   UNL     1       4.059  15.279  19.509  0.00  0.00    +0.000 S 
ENDBRANCH  26  29
ENDBRANCH  20  21
ENDBRANCH  19  20
ENDBRANCH   3  19
TORSDOF 8
ENDMDL
MODEL 6
REMARK VINA RESULT:      -7.4      1.976      4.226
REMARK  Name = 
REMARK  8 active torsions:
REMARK  status: ('A' for Active; 'I' for Inactive)
REMARK    1  A    between atoms: C_2  and  C_3
REMARK    2  A    between atoms: C_3  and  C_4
REMARK    3  A    between atoms: C_4  and  C_5
REMARK    4  A    between atoms: C_5  and  N_6
REMARK    5  A    between atoms: N_17  and  C_18
REMARK    6  A    between atoms: C_18  and  C_19
REMARK    7  A    between atoms: C_19  and  N_20
REMARK    8  A    between atoms: C_25  and  C_26
REMARK                            x       y       z     vdW  Elec       q    Type
REMARK                         _______ _______ _______ _____ _____    ______ ____
ROOT
ATOM      1  O   UNL     1       6.537   7.634  17.506  0.00  0.00    +0.000 OA
ATOM      2  C   UNL     1       5.776   6.840  16.967  0.00  0.00    +0.000 C 
ATOM      3  N   UNL     1       4.410   6.859  17.138  0.00  0.00    +0.000 N 
ATOM      4  H   UNL     1       3.830   6.206  16.626  0.00  0.00    +0.000 HD
ENDROOT
BRANCH   2   5
ATOM      5  C   UNL     1       6.272   5.710  16.090  0.00  0.00    +0.000 C 
BRANCH   5   6
ATOM      6  C   UNL     1       5.147   4.766  15.675  0.00  0.00    +0.000 C 
BRANCH   6   7
ATOM      7  C   UNL     1       5.195   3.421  16.402  0.00  0.00    +0.000 C 
BRANCH   7   8
ATOM      8  N   UNL     1       4.269   3.382  17.512  0.00  0.00    +0.000 N 
ATOM      9  C   UNL     1       4.606   3.658  18.808  0.00  0.00    +0.000 C 
ATOM     10  O   UNL     1       5.688   3.961  19.273  0.00  0.00    +0.000 OA
ATOM     11  C   UNL     1       3.375   3.533  19.588  0.00  0.00    +0.000 A 
ATOM     12  C   UNL     1       3.151   3.698  20.938  0.00  0.00    +0.000 A 
ATOM     13  C   UNL     1       1.838   3.533  21.392  0.00  0.00    +0.000 A 
ATOM     14  C   UNL     1       0.797   3.208  20.497  0.00  0.00    +0.000 A 
ATOM     15  C   UNL     1       1.050   3.041  19.132  0.00  0.00    +0.000 A 
ATOM     16  C   UNL     1       2.354   3.210  18.711  0.00  0.00    +0.000 A 
ATOM     17  C   UNL     1       2.934   3.119  17.374  0.00  0.00    +0.000 C 
ATOM     18  O   UNL     1       2.301   2.862  16.368  0.00  0.00    +0.000 OA
ENDBRANCH   7   8
ENDBRANCH   6   7
ENDBRANCH   5   6
ENDBRANCH   2   5
BRANCH   3  19
ATOM     19  C   UNL     1       3.756   7.840  17.986  0.00  0.00    +0.000 C 
BRANCH  19  20
ATOM     20  C   UNL     1       2.264   7.543  18.169  0.00  0.00    +0.000 C 
BRANCH  20  21
ATOM     21  N   UNL     1       1.651   8.405  19.166  0.00  0.00    +0.000 N 
ATOM     22  C   UNL     1       1.596   8.034  20.480  0.00  0.00    +0.000 C 
ATOM     23  O   UNL     1       2.007   6.997  20.975  0.00  0.00    +0.000 OA
ATOM     24  S   UNL     1       0.802   9.278  21.422  0.00  0.00    +0.000 S 
ATOM     25  C   UNL     1       0.486  10.245  20.033  0.00  0.00    +0.000 C 
ATOM     26  C   UNL     1      -0.097  11.449  19.974  0.00  0.00    +0.000 C 
ATOM     27  C   UNL     1       0.996   9.561  18.814  0.00  0.00    +0.000 C 
ATOM     28  O   UNL     1       0.835   9.978  17.673  0.00  0.00    +0.000 OA
BRANCH  26  29
ATOM     29  C   UNL     1      -0.527  12.155  21.129  0.00  0.00    +0.000 A 
ATOM     30  C   UNL     1      -1.562  11.867  22.000  0.00  0.00    +0.000 A 
ATOM     31  C   UNL     1      -1.700  12.840  23.034  0.00  0.00    +0.000 A 
ATOM     32  C   UNL     1      -0.763  13.842  22.925  0.00  0.00    +0.000 A 
ATOM     33  S   UNL     1       0.266  13.615  21.580  0.00  0.00    +0.000 S 
ENDBRANCH  26  29
ENDBRANCH  20  21
ENDBRANCH  19  20
ENDBRANCH   3  19
TORSDOF 8
ENDMDL
MODEL 7
REMARK VINA RESULT:      -7.3      6.606      8.861
REMARK  Name = 
REMARK  8 active torsions:
REMARK  status: ('A' for Active; 'I' for Inactive)
REMARK    1  A    between atoms: C_2  and  C_3
REMARK    2  A    between atoms: C_3  and  C_4
REMARK    3  A    between atoms: C_4  and  C_5
REMARK    4  A    between atoms: C_5  and  N_6
REMARK    5  A    between atoms: N_17  and  C_18
REMARK    6  A    between atoms: C_18  and  C_19
REMARK    7  A    between atoms: C_19  and  N_20
REMARK    8  A    between atoms: C_25  and  C_26
REMARK                            x       y       z     vdW  Elec       q    Type
REMARK                         _______ _______ _______ _____ _____    ______ ____
ROOT
ATOM      1  O   UNL     1       8.255   6.928  19.020  0.00  0.00    +0.000 OA
ATOM      2  C   UNL     1       7.799   7.480  18.026  0.00  0.00    +0.000 C 
ATOM      3  N   UNL     1       7.941   8.826  17.771  0.00  0.00    +0.000 N 
ATOM      4  H   UNL     1       7.584   9.214  16.906  0.00  0.00    +0.000 HD
ENDROOT
BRANCH   2   5
ATOM      5  C   UNL     1       6.981   6.739  16.990  0.00  0.00    +0.000 C 
BRANCH   5   6
ATOM      6  C   UNL     1       5.481   6.937  17.191  0.00  0.00    +0.000 C 
BRANCH   6   7
ATOM      7  C   UNL     1       4.650   5.744  16.718  0.00  0.00    +0.000 C 
BRANCH   7   8
ATOM      8  N   UNL     1       4.002   5.073  17.823  0.00  0.00    +0.000 N 
ATOM      9  C   UNL     1       4.579   4.087  18.573  0.00  0.00    +0.000 C 
ATOM     10  O   UNL     1       5.683   3.587  18.467  0.00  0.00    +0.000 OA
ATOM     11  C   UNL     1       3.597   3.718  19.591  0.00  0.00    +0.000 A 
ATOM     12  C   UNL     1       3.663   2.776  20.598  0.00  0.00    +0.000 A 
ATOM     13  C   UNL     1       2.555   2.671  21.445  0.00  0.00    +0.000 A 
ATOM     14  C   UNL     1       1.424   3.495  21.266  0.00  0.00    +0.000 A 
ATOM     15  C   UNL     1       1.379   4.439  20.236  0.00  0.00    +0.000 A 
ATOM     16  C   UNL     1       2.486   4.523  19.414  0.00  0.00    +0.000 A 
ATOM     17  C   UNL     1       2.754   5.399  18.277  0.00  0.00    +0.000 C 
ATOM     18  O   UNL     1       1.980   6.240  17.863  0.00  0.00    +0.000 OA
ENDBRANCH   7   8
ENDBRANCH   6   7
ENDBRANCH   5   6
ENDBRANCH   2   5
BRANCH   3  19
ATOM     19  C   UNL     1       8.652   9.709  18.678  0.00  0.00    +0.000 C 
BRANCH  19  20
ATOM     20  C   UNL     1       9.876  10.352  18.019  0.00  0.00    +0.000 C 
BRANCH  20  21
ATOM     21  N   UNL     1       9.957  11.778  18.284  0.00  0.00    +0.000 N 
ATOM     22  C   UNL     1      10.924  12.289  19.105  0.00  0.00    +0.000 C 
ATOM     23  O   UNL     1      11.788  11.671  19.705  0.00  0.00    +0.000 OA
ATOM     24  S   UNL     1      10.755  14.027  19.222  0.00  0.00    +0.000 S 
ATOM     25  C   UNL     1       9.347  14.041  18.231  0.00  0.00    +0.000 C 
ATOM     26  C   UNL     1       8.632  15.096  17.819  0.00  0.00    +0.000 C 
ATOM     27  C   UNL     1       9.000  12.653  17.826  0.00  0.00    +0.000 C 
ATOM     28  O   UNL     1       7.997  12.352  17.189  0.00  0.00    +0.000 OA
BRANCH  26  29
ATOM     29  C   UNL     1       8.984  16.436  18.130  0.00  0.00    +0.000 A 
ATOM     30  C   UNL     1       8.327  17.353  18.931  0.00  0.00    +0.000 A 
ATOM     31  C   UNL     1       8.984  18.618  18.974  0.00  0.00    +0.000 A 
ATOM     32  C   UNL     1      10.126  18.631  18.207  0.00  0.00    +0.000 A 
ATOM     33  S   UNL     1      10.395  17.131  17.434  0.00  0.00    +0.000 S 
ENDBRANCH  26  29
ENDBRANCH  20  21
ENDBRANCH  19  20
ENDBRANCH   3  19
TORSDOF 8
ENDMDL
MODEL 8
REMARK VINA RESULT:      -7.3      2.405      3.386
REMARK  Name = 
REMARK  8 active torsions:
REMARK  status: ('A' for Active; 'I' for Inactive)
REMARK    1  A    between atoms: C_2  and  C_3
REMARK    2  A    between atoms: C_3  and  C_4
REMARK    3  A    between atoms: C_4  and  C_5
REMARK    4  A    between atoms: C_5  and  N_6
REMARK    5  A    between atoms: N_17  and  C_18
REMARK    6  A    between atoms: C_18  and  C_19
REMARK    7  A    between atoms: C_19  and  N_20
REMARK    8  A    between atoms: C_25  and  C_26
REMARK                            x       y       z     vdW  Elec       q    Type
REMARK                         _______ _______ _______ _____ _____    ______ ____
ROOT
ATOM      1  O   UNL     1       2.229   7.694  19.524  0.00  0.00    +0.000 OA
ATOM      2  C   UNL     1       1.753   7.249  20.561  0.00  0.00    +0.000 C 
ATOM      3  N   UNL     1       1.294   8.043  21.589  0.00  0.00    +0.000 N 
ATOM      4  H   UNL     1       0.866   7.615  22.401  0.00  0.00    +0.000 HD
ENDROOT
BRANCH   2   5
ATOM      5  C   UNL     1       1.669   5.764  20.843  0.00  0.00    +0.000 C 
BRANCH   5   6
ATOM      6  C   UNL     1       1.816   4.928  19.575  0.00  0.00    +0.000 C 
BRANCH   6   7
ATOM      7  C   UNL     1       3.003   3.966  19.626  0.00  0.00    +0.000 C 
BRANCH   7   8
ATOM      8  N   UNL     1       3.917   4.187  18.528  0.00  0.00    +0.000 N 
ATOM      9  C   UNL     1       5.149   4.765  18.654  0.00  0.00    +0.000 C 
ATOM     10  O   UNL     1       5.695   5.201  19.649  0.00  0.00    +0.000 OA
ATOM     11  C   UNL     1       5.742   4.762  17.317  0.00  0.00    +0.000 A 
ATOM     12  C   UNL     1       6.964   5.229  16.880  0.00  0.00    +0.000 A 
ATOM     13  C   UNL     1       7.263   5.059  15.524  0.00  0.00    +0.000 A 
ATOM     14  C   UNL     1       6.345   4.438  14.651  0.00  0.00    +0.000 A 
ATOM     15  C   UNL     1       5.110   3.978  15.117  0.00  0.00    +0.000 A 
ATOM     16  C   UNL     1       4.840   4.158  16.459  0.00  0.00    +0.000 A 
ATOM     17  C   UNL     1       3.668   3.783  17.246  0.00  0.00    +0.000 C 
ATOM     18  O   UNL     1       2.692   3.218  16.792  0.00  0.00    +0.000 OA
ENDBRANCH   7   8
ENDBRANCH   6   7
ENDBRANCH   5   6
ENDBRANCH   2   5
BRANCH   3  19
ATOM     19  C   UNL     1       1.341   9.492  21.521  0.00  0.00    +0.000 C 
BRANCH  19  20
ATOM     20  C   UNL     1      -0.013  10.098  21.140  0.00  0.00    +0.000 C 
BRANCH  20  21
ATOM     21  N   UNL     1       0.130  11.330  20.383  0.00  0.00    +0.000 N 
ATOM     22  C   UNL     1       0.360  11.308  19.035  0.00  0.00    +0.000 C 
ATOM     23  O   UNL     1       0.486  10.326  18.321  0.00  0.00    +0.000 OA
ATOM     24  S   UNL     1       0.483  12.942  18.420  0.00  0.00    +0.000 S 
ATOM     25  C   UNL     1       0.301  13.635  19.986  0.00  0.00    +0.000 C 
ATOM     26  C   UNL     1       0.251  14.930  20.320  0.00  0.00    +0.000 C 
ATOM     27  C   UNL     1       0.164  12.557  21.003  0.00  0.00    +0.000 C 
ATOM     28  O   UNL     1       0.105  12.754  22.211  0.00  0.00    +0.000 OA
BRANCH  26  29
ATOM     29  C   UNL     1       0.305  15.977  19.362  0.00  0.00    +0.000 A 
ATOM     30  C   UNL     1      -0.727  16.609  18.693  0.00  0.00    +0.000 A 
ATOM     31  C   UNL     1      -0.266  17.601  17.778  0.00  0.00    +0.000 A 
ATOM     32  C   UNL     1       1.107  17.701  17.777  0.00  0.00    +0.000 A 
ATOM     33  S   UNL     1       1.830  16.598  18.863  0.00  0.00    +0.000 S 
ENDBRANCH  26  29
ENDBRANCH  20  21
ENDBRANCH  19  20
ENDBRANCH   3  19
TORSDOF 8
ENDMDL
MODEL 9
REMARK VINA RESULT:      -7.3      2.161      4.366
REMARK  Name = 
REMARK  8 active torsions:
REMARK  status: ('A' for Active; 'I' for Inactive)
REMARK    1  A    between atoms: C_2  and  C_3
REMARK    2  A    between atoms: C_3  and  C_4
REMARK    3  A    between atoms: C_4  and  C_5
REMARK    4  A    between atoms: C_5  and  N_6
REMARK    5  A    between atoms: N_17  and  C_18
REMARK    6  A    between atoms: C_18  and  C_19
REMARK    7  A    between atoms: C_19  and  N_20
REMARK    8  A    between atoms: C_25  and  C_26
REMARK                            x       y       z     vdW  Elec       q    Type
REMARK                         _______ _______ _______ _____ _____    ______ ____
ROOT
ATOM      1  O   UNL     1       6.264   6.772  17.802  0.00  0.00    +0.000 OA
ATOM      2  C   UNL     1       5.296   6.537  17.091  0.00  0.00    +0.000 C 
ATOM      3  N   UNL     1       3.991   6.688  17.507  0.00  0.00    +0.000 N 
ATOM      4  H   UNL     1       3.234   6.524  16.855  0.00  0.00    +0.000 HD
ENDROOT
BRANCH   2   5
ATOM      5  C   UNL     1       5.436   5.999  15.682  0.00  0.00    +0.000 C 
BRANCH   5   6
ATOM      6  C   UNL     1       4.742   4.650  15.509  0.00  0.00    +0.000 C 
BRANCH   6   7
ATOM      7  C   UNL     1       5.181   3.614  16.544  0.00  0.00    +0.000 C 
BRANCH   7   8
ATOM      8  N   UNL     1       4.228   3.506  17.626  0.00  0.00    +0.000 N 
ATOM      9  C   UNL     1       2.889   3.288  17.458  0.00  0.00    +0.000 C 
ATOM     10  O   UNL     1       2.255   3.162  16.429  0.00  0.00    +0.000 OA
ATOM     11  C   UNL     1       2.314   3.215  18.801  0.00  0.00    +0.000 A 
ATOM     12  C   UNL     1       1.010   3.016  19.205  0.00  0.00    +0.000 A 
ATOM     13  C   UNL     1       0.770   2.969  20.582  0.00  0.00    +0.000 A 
ATOM     14  C   UNL     1       1.824   3.122  21.508  0.00  0.00    +0.000 A 
ATOM     15  C   UNL     1       3.137   3.327  21.073  0.00  0.00    +0.000 A 
ATOM     16  C   UNL     1       3.346   3.369  19.709  0.00  0.00    +0.000 A 
ATOM     17  C   UNL     1       4.579   3.550  18.947  0.00  0.00    +0.000 C 
ATOM     18  O   UNL     1       5.677   3.702  19.448  0.00  0.00    +0.000 OA
ENDBRANCH   7   8
ENDBRANCH   6   7
ENDBRANCH   5   6
ENDBRANCH   2   5
BRANCH   3  19
ATOM     19  C   UNL     1       3.660   7.145  18.844  0.00  0.00    +0.000 C 
BRANCH  19  20
ATOM     20  C   UNL     1       2.149   7.138  19.100  0.00  0.00    +0.000 C 
BRANCH  20  21
ATOM     21  N   UNL     1       1.623   8.475  19.313  0.00  0.00    +0.000 N 
ATOM     22  C   UNL     1       1.640   9.408  18.313  0.00  0.00    +0.000 C 
ATOM     23  O   UNL     1       2.081   9.274  17.183  0.00  0.00    +0.000 OA
ATOM     24  S   UNL     1       0.939  10.908  18.879  0.00  0.00    +0.000 S 
ATOM     25  C   UNL     1       0.700  10.294  20.470  0.00  0.00    +0.000 C 
ATOM     26  C   UNL     1       0.133  10.903  21.519  0.00  0.00    +0.000 C 
ATOM     27  C   UNL     1       1.201   8.895  20.552  0.00  0.00    +0.000 C 
ATOM     28  O   UNL     1       1.238   8.237  21.585  0.00  0.00    +0.000 OA
BRANCH  26  29
ATOM     29  C   UNL     1      -0.420  12.209  21.447  0.00  0.00    +0.000 A 
ATOM     30  C   UNL     1       0.171  13.428  21.722  0.00  0.00    +0.000 A 
ATOM     31  C   UNL     1      -0.726  14.525  21.560  0.00  0.00    +0.000 A 
ATOM     32  C   UNL     1      -1.976  14.112  21.162  0.00  0.00    +0.000 A 
ATOM     33  S   UNL     1      -2.068  12.414  20.997  0.00  0.00    +0.000 S 
ENDBRANCH  26  29
ENDBRANCH  20  21
ENDBRANCH  19  20
ENDBRANCH   3  19
TORSDOF 8
ENDMDL
