MODEL 1
REMARK VINA RESULT:     -10.1      0.000      0.000
REMARK  Name = 
REMARK  7 active torsions:
REMARK  status: ('A' for Active; 'I' for Inactive)
REMARK    1  A    between atoms: C_1  and  O_2
REMARK    2  A    between atoms: O_2  and  C_3
REMARK    3  A    between atoms: C_7  and  C_8
REMARK    4  A    between atoms: C_8  and  N_9
REMARK    5  A    between atoms: C_10  and  C_12
REMARK    6  A    between atoms: C_12  and  N_13
REMARK    7  A    between atoms: C_17  and  C_18
REMARK                            x       y       z     vdW  Elec       q    Type
REMARK                         _______ _______ _______ _____ _____    ______ ____
ROOT
ATOM      1  N   UNL     1       5.135   5.080  18.412  0.00  0.00    +0.000 N 
ATOM      2  C   UNL     1       4.567   5.426  17.198  0.00  0.00    +0.000 C 
ATOM      3  O   UNL     1       5.008   5.104  16.095  0.00  0.00    +0.000 OA
ATOM      4  C   UNL     1       3.531   6.468  17.388  0.00  0.00    +0.000 C 
ATOM      5  C   UNL     1       2.838   6.611  18.746  0.00  0.00    +0.000 C 
ATOM      6  N   UNL     1       2.582   5.705  19.584  0.00  0.00    +0.000 NA
ATOM      7  C   UNL     1       2.910   4.368  19.220  0.00  0.00    +0.000 A 
ATOM      8  C   UNL     1       1.742   3.565  19.040  0.00  0.00    +0.000 A 
ATOM      9  C   UNL     1       1.865   2.227  18.743  0.00  0.00    +0.000 A 
ATOM     10  C   UNL     1       3.163   1.731  18.667  0.00  0.00    +0.000 A 
ATOM     11  C   UNL     1       4.336   2.597  18.768  0.00  0.00    +0.000 A 
ATOM     12  C   UNL     1       4.259   3.982  19.021  0.00  0.00    +0.000 A 
ENDROOT
BRANCH   5  13
ATOM     13  C   UNL     1       2.224   7.934  19.024  0.00  0.00    +0.000 A 
ATOM     14  C   UNL     1       2.020   8.856  17.990  0.00  0.00    +0.000 A 
ATOM     15  C   UNL     1       1.207   9.940  18.180  0.00  0.00    +0.000 A 
ATOM     16  C   UNL     1       0.599  10.144  19.418  0.00  0.00    +0.000 A 
ATOM     17  C   UNL     1       0.852   9.284  20.481  0.00  0.00    +0.000 A 
ATOM     18  C   UNL     1       1.680   8.173  20.297  0.00  0.00    +0.000 A 
ENDBRANCH   5  13
BRANCH   1  19
ATOM     19  C   UNL     1       6.578   5.652  18.612  0.00  0.00    +0.000 C 
BRANCH  19  21
ATOM     20  N   UNL     1       7.691   8.246  18.315  0.00  0.00    +0.000 N 
ATOM     21  C   UNL     1       7.373   6.958  17.675  0.00  0.00    +0.000 C 
ATOM     22  O   UNL     1       7.622   6.798  16.478  0.00  0.00    +0.000 OA
ATOM     23  H   UNL     1       7.847   8.191  19.308  0.00  0.00    +0.000 HD
BRANCH  20  24
ATOM     24  C   UNL     1       8.419   9.511  17.663  0.00  0.00    +0.000 C 
BRANCH  24  29
ATOM     25  C   UNL     1       9.930  11.721  20.578  0.00  0.00    +0.000 A 
ATOM     26  C   UNL     1      11.025  12.358  19.997  0.00  0.00    +0.000 A 
ATOM     27  C   UNL     1      11.305  12.097  18.665  0.00  0.00    +0.000 A 
ATOM     28  C   UNL     1      10.497  11.175  17.930  0.00  0.00    +0.000 A 
ATOM     29  C   UNL     1       9.393  10.457  18.511  0.00  0.00    +0.000 A 
ATOM     30  C   UNL     1       9.138  10.784  19.850  0.00  0.00    +0.000 A 
BRANCH  25  32
ATOM     31  C   UNL     1       8.403  11.830  22.358  0.00  0.00    +0.000 C 
ATOM     32  O   UNL     1       9.718  12.083  21.885  0.00  0.00    +0.000 OA
ENDBRANCH  25  32
ENDBRANCH  24  29
ENDBRANCH  20  24
ENDBRANCH  19  21
ENDBRANCH   1  19
TORSDOF 6
ENDMDL
MODEL 2
REMARK VINA RESULT:     -10.0      1.048      1.598
REMARK  Name = 
REMARK  7 active torsions:
REMARK  status: ('A' for Active; 'I' for Inactive)
REMARK    1  A    between atoms: C_1  and  O_2
REMARK    2  A    between atoms: O_2  and  C_3
REMARK    3  A    between atoms: C_7  and  C_8
REMARK    4  A    between atoms: C_8  and  N_9
REMARK    5  A    between atoms: C_10  and  C_12
REMARK    6  A    between atoms: C_12  and  N_13
REMARK    7  A    between atoms: C_17  and  C_18
REMARK                            x       y       z     vdW  Elec       q    Type
REMARK                         _______ _______ _______ _____ _____    ______ ____
ROOT
ATOM      1  N   UNL     1       5.106   5.167  18.216  0.00  0.00    +0.000 N 
ATOM      2  C   UNL     1       4.574   5.632  17.024  0.00  0.00    +0.000 C 
ATOM      3  O   UNL     1       5.041   5.407  15.908  0.00  0.00    +0.000 OA
ATOM      4  C   UNL     1       3.544   6.665  17.284  0.00  0.00    +0.000 C 
ATOM      5  C   UNL     1       2.816   6.690  18.631  0.00  0.00    +0.000 C 
ATOM      6  N   UNL     1       2.528   5.714  19.374  0.00  0.00    +0.000 NA
ATOM      7  C   UNL     1       2.852   4.412  18.896  0.00  0.00    +0.000 A 
ATOM      8  C   UNL     1       1.681   3.644  18.613  0.00  0.00    +0.000 A 
ATOM      9  C   UNL     1       1.799   2.338  18.196  0.00  0.00    +0.000 A 
ATOM     10  C   UNL     1       3.093   1.835  18.108  0.00  0.00    +0.000 A 
ATOM     11  C   UNL     1       4.271   2.672  18.319  0.00  0.00    +0.000 A 
ATOM     12  C   UNL     1       4.202   4.029  18.697  0.00  0.00    +0.000 A 
ENDROOT
BRANCH   5  13
ATOM     13  C   UNL     1       2.208   7.990  19.014  0.00  0.00    +0.000 A 
ATOM     14  C   UNL     1       1.933   8.961  18.044  0.00  0.00    +0.000 A 
ATOM     15  C   UNL     1       1.123  10.024  18.340  0.00  0.00    +0.000 A 
ATOM     16  C   UNL     1       0.592  10.157  19.622  0.00  0.00    +0.000 A 
ATOM     17  C   UNL     1       0.918   9.246  20.621  0.00  0.00    +0.000 A 
ATOM     18  C   UNL     1       1.742   8.157  20.329  0.00  0.00    +0.000 A 
ENDBRANCH   5  13
BRANCH   1  19
ATOM     19  C   UNL     1       6.549   5.700  18.505  0.00  0.00    +0.000 C 
BRANCH  19  21
ATOM     20  N   UNL     1       7.824   8.228  18.314  0.00  0.00    +0.000 N 
ATOM     21  C   UNL     1       7.434   6.986  17.624  0.00  0.00    +0.000 C 
ATOM     22  O   UNL     1       7.684   6.855  16.423  0.00  0.00    +0.000 OA
ATOM     23  H   UNL     1       7.967   8.127  19.305  0.00  0.00    +0.000 HD
BRANCH  20  24
ATOM     24  C   UNL     1       8.637   9.468  17.715  0.00  0.00    +0.000 C 
BRANCH  24  29
ATOM     25  C   UNL     1       9.734  13.088  18.879  0.00  0.00    +0.000 A 
ATOM     26  C   UNL     1      10.115  12.922  20.209  0.00  0.00    +0.000 A 
ATOM     27  C   UNL     1      10.031  11.655  20.763  0.00  0.00    +0.000 A 
ATOM     28  C   UNL     1       9.538  10.564  19.984  0.00  0.00    +0.000 A 
ATOM     29  C   UNL     1       9.083  10.706  18.626  0.00  0.00    +0.000 A 
ATOM     30  C   UNL     1       9.220  12.003  18.109  0.00  0.00    +0.000 A 
BRANCH  25  32
ATOM     31  C   UNL     1      10.933  14.523  17.460  0.00  0.00    +0.000 C 
ATOM     32  O   UNL     1       9.898  14.371  18.420  0.00  0.00    +0.000 OA
ENDBRANCH  25  32
ENDBRANCH  24  29
ENDBRANCH  20  24
ENDBRANCH  19  21
ENDBRANCH   1  19
TORSDOF 6
ENDMDL
MODEL 3
REMARK VINA RESULT:      -9.9      4.638      8.402
REMARK  Name = 
REMARK  7 active torsions:
REMARK  status: ('A' for Active; 'I' for Inactive)
REMARK    1  A    between atoms: C_1  and  O_2
REMARK    2  A    between atoms: O_2  and  C_3
REMARK    3  A    between atoms: C_7  and  C_8
REMARK    4  A    between atoms: C_8  and  N_9
REMARK    5  A    between atoms: C_10  and  C_12
REMARK    6  A    between atoms: C_12  and  N_13
REMARK    7  A    between atoms: C_17  and  C_18
REMARK                            x       y       z     vdW  Elec       q    Type
REMARK                         _______ _______ _______ _____ _____    ______ ____
ROOT
ATOM      1  N   UNL     1       3.316   5.826  18.078  0.00  0.00    +0.000 N 
ATOM      2  C   UNL     1       4.527   5.438  18.628  0.00  0.00    +0.000 C 
ATOM      3  O   UNL     1       4.918   5.738  19.755  0.00  0.00    +0.000 OA
ATOM      4  C   UNL     1       5.408   4.862  17.584  0.00  0.00    +0.000 C 
ATOM      5  C   UNL     1       4.792   4.259  16.319  0.00  0.00    +0.000 C 
ATOM      6  N   UNL     1       3.682   3.677  16.199  0.00  0.00    +0.000 NA
ATOM      7  C   UNL     1       2.913   3.488  17.383  0.00  0.00    +0.000 A 
ATOM      8  C   UNL     1       2.810   2.107  17.735  0.00  0.00    +0.000 A 
ATOM      9  C   UNL     1       2.055   1.727  18.820  0.00  0.00    +0.000 A 
ATOM     10  C   UNL     1       1.399   2.748  19.500  0.00  0.00    +0.000 A 
ATOM     11  C   UNL     1       1.595   4.157  19.169  0.00  0.00    +0.000 A 
ATOM     12  C   UNL     1       2.401   4.599  18.099  0.00  0.00    +0.000 A 
ENDROOT
BRANCH   5  13
ATOM     13  C   UNL     1       5.689   4.178  15.138  0.00  0.00    +0.000 A 
ATOM     14  C   UNL     1       5.289   3.491  13.985  0.00  0.00    +0.000 A 
ATOM     15  C   UNL     1       5.972   3.654  12.811  0.00  0.00    +0.000 A 
ATOM     16  C   UNL     1       7.091   4.485  12.767  0.00  0.00    +0.000 A 
ATOM     17  C   UNL     1       7.552   5.113  13.919  0.00  0.00    +0.000 A 
ATOM     18  C   UNL     1       6.859   4.955  15.123  0.00  0.00    +0.000 A 
ENDBRANCH   5  13
BRANCH   1  19
ATOM     19  C   UNL     1       3.168   7.376  17.923  0.00  0.00    +0.000 C 
BRANCH  19  21
ATOM     20  N   UNL     1       1.551   9.697  18.160  0.00  0.00    +0.000 N 
ATOM     21  C   UNL     1       2.032   8.456  18.793  0.00  0.00    +0.000 C 
ATOM     22  O   UNL     1       1.678   8.187  19.944  0.00  0.00    +0.000 OA
ATOM     23  H   UNL     1       1.527   9.669  17.154  0.00  0.00    +0.000 HD
BRANCH  20  24
ATOM     24  C   UNL     1       0.521  10.766  18.755  0.00  0.00    +0.000 C 
BRANCH  24  29
ATOM     25  C   UNL     1      -2.868  10.162  16.803  0.00  0.00    +0.000 A 
ATOM     26  C   UNL     1      -3.808  10.918  17.501  0.00  0.00    +0.000 A 
ATOM     27  C   UNL     1      -3.382  11.636  18.607  0.00  0.00    +0.000 A 
ATOM     28  C   UNL     1      -2.017  11.569  19.023  0.00  0.00    +0.000 A 
ATOM     29  C   UNL     1      -1.030  10.756  18.362  0.00  0.00    +0.000 A 
ATOM     30  C   UNL     1      -1.510  10.077  17.232  0.00  0.00    +0.000 A 
BRANCH  25  32
ATOM     31  C   UNL     1      -3.028  10.116  14.462  0.00  0.00    +0.000 C 
ATOM     32  O   UNL     1      -3.387   9.527  15.702  0.00  0.00    +0.000 OA
ENDBRANCH  25  32
ENDBRANCH  24  29
ENDBRANCH  20  24
ENDBRANCH  19  21
ENDBRANCH   1  19
TORSDOF 6
ENDMDL
MODEL 4
REMARK VINA RESULT:      -9.8      4.349      7.170
REMARK  Name = 
REMARK  7 active torsions:
REMARK  status: ('A' for Active; 'I' for Inactive)
REMARK    1  A    between atoms: C_1  and  O_2
REMARK    2  A    between atoms: O_2  and  C_3
REMARK    3  A    between atoms: C_7  and  C_8
REMARK    4  A    between atoms: C_8  and  N_9
REMARK    5  A    between atoms: C_10  and  C_12
REMARK    6  A    between atoms: C_12  and  N_13
REMARK    7  A    between atoms: C_17  and  C_18
REMARK                            x       y       z     vdW  Elec       q    Type
REMARK                         _______ _______ _______ _____ _____    ______ ____
ROOT
ATOM      1  N   UNL     1       4.485   4.953  18.711  0.00  0.00    +0.000 N 
ATOM      2  C   UNL     1       3.567   4.967  17.674  0.00  0.00    +0.000 C 
ATOM      3  O   UNL     1       3.617   4.247  16.678  0.00  0.00    +0.000 OA
ATOM      4  C   UNL     1       2.685   6.153  17.780  0.00  0.00    +0.000 C 
ATOM      5  C   UNL     1       2.474   6.824  19.139  0.00  0.00    +0.000 C 
ATOM      6  N   UNL     1       2.471   6.284  20.278  0.00  0.00    +0.000 NA
ATOM      7  C   UNL     1       2.618   4.868  20.328  0.00  0.00    +0.000 A 
ATOM      8  C   UNL     1       1.428   4.228  20.791  0.00  0.00    +0.000 A 
ATOM      9  C   UNL     1       1.402   2.863  20.960  0.00  0.00    +0.000 A 
ATOM     10  C   UNL     1       2.587   2.187  20.689  0.00  0.00    +0.000 A 
ATOM     11  C   UNL     1       3.759   2.860  20.133  0.00  0.00    +0.000 A 
ATOM     12  C   UNL     1       3.816   4.248  19.893  0.00  0.00    +0.000 A 
ENDROOT
BRANCH   5  13
ATOM     13  C   UNL     1       2.029   8.241  19.101  0.00  0.00    +0.000 A 
ATOM     14  C   UNL     1       2.213   9.014  17.947  0.00  0.00    +0.000 A 
ATOM     15  C   UNL     1       1.558  10.206  17.803  0.00  0.00    +0.000 A 
ATOM     16  C   UNL     1       0.725  10.670  18.821  0.00  0.00    +0.000 A 
ATOM     17  C   UNL     1       0.593   9.956  20.007  0.00  0.00    +0.000 A 
ATOM     18  C   UNL     1       1.256   8.736  20.163  0.00  0.00    +0.000 A 
ENDBRANCH   5  13
BRANCH   1  19
ATOM     19  C   UNL     1       5.935   5.344  18.267  0.00  0.00    +0.000 C 
BRANCH  19  21
ATOM     20  N   UNL     1       6.212   4.895  15.478  0.00  0.00    +0.000 N 
ATOM     21  C   UNL     1       6.821   4.777  16.815  0.00  0.00    +0.000 C 
ATOM     22  O   UNL     1       7.929   4.248  16.932  0.00  0.00    +0.000 OA
ATOM     23  H   UNL     1       5.552   5.650  15.386  0.00  0.00    +0.000 HD
BRANCH  20  24
ATOM     24  C   UNL     1       6.849   4.480  14.072  0.00  0.00    +0.000 C 
BRANCH  24  29
ATOM     25  C   UNL     1       5.910   1.781  11.333  0.00  0.00    +0.000 A 
ATOM     26  C   UNL     1       4.659   2.181  10.868  0.00  0.00    +0.000 A 
ATOM     27  C   UNL     1       4.088   3.319  11.416  0.00  0.00    +0.000 A 
ATOM     28  C   UNL     1       4.767   4.034  12.451  0.00  0.00    +0.000 A 
ATOM     29  C   UNL     1       6.034   3.620  12.995  0.00  0.00    +0.000 A 
ATOM     30  C   UNL     1       6.577   2.483  12.381  0.00  0.00    +0.000 A 
BRANCH  25  32
ATOM     31  C   UNL     1       6.088  -0.559  11.328  0.00  0.00    +0.000 C 
ATOM     32  O   UNL     1       6.401   0.671  10.693  0.00  0.00    +0.000 OA
ENDBRANCH  25  32
ENDBRANCH  24  29
ENDBRANCH  20  24
ENDBRANCH  19  21
ENDBRANCH   1  19
TORSDOF 6
ENDMDL
MODEL 5
REMARK VINA RESULT:      -9.7      0.967      1.805
REMARK  Name = 
REMARK  7 active torsions:
REMARK  status: ('A' for Active; 'I' for Inactive)
REMARK    1  A    between atoms: C_1  and  O_2
REMARK    2  A    between atoms: O_2  and  C_3
REMARK    3  A    between atoms: C_7  and  C_8
REMARK    4  A    between atoms: C_8  and  N_9
REMARK    5  A    between atoms: C_10  and  C_12
REMARK    6  A    between atoms: C_12  and  N_13
REMARK    7  A    between atoms: C_17  and  C_18
REMARK                            x       y       z     vdW  Elec       q    Type
REMARK                         _______ _______ _______ _____ _____    ______ ____
ROOT
ATOM      1  N   UNL     1       4.995   5.130  18.502  0.00  0.00    +0.000 N 
ATOM      2  C   UNL     1       4.493   5.485  17.261  0.00  0.00    +0.000 C 
ATOM      3  O   UNL     1       5.012   5.202  16.182  0.00  0.00    +0.000 OA
ATOM      4  C   UNL     1       3.413   6.490  17.408  0.00  0.00    +0.000 C 
ATOM      5  C   UNL     1       2.633   6.580  18.722  0.00  0.00    +0.000 C 
ATOM      6  N   UNL     1       2.355   5.648  19.524  0.00  0.00    +0.000 NA
ATOM      7  C   UNL     1       2.748   4.330  19.153  0.00  0.00    +0.000 A 
ATOM      8  C   UNL     1       1.621   3.495  18.884  0.00  0.00    +0.000 A 
ATOM      9  C   UNL     1       1.806   2.170  18.568  0.00  0.00    +0.000 A 
ATOM     10  C   UNL     1       3.121   1.716  18.564  0.00  0.00    +0.000 A 
ATOM     11  C   UNL     1       4.256   2.615  18.756  0.00  0.00    +0.000 A 
ATOM     12  C   UNL     1       4.119   3.991  19.031  0.00  0.00    +0.000 A 
ENDROOT
BRANCH   5  13
ATOM     13  C   UNL     1       1.960   7.877  18.989  0.00  0.00    +0.000 A 
ATOM     14  C   UNL     1       1.472   8.177  20.267  0.00  0.00    +0.000 A 
ATOM     15  C   UNL     1       1.118   9.459  20.588  0.00  0.00    +0.000 A 
ATOM     16  C   UNL     1       1.215  10.468  19.630  0.00  0.00    +0.000 A 
ATOM     17  C   UNL     1       1.620  10.175  18.332  0.00  0.00    +0.000 A 
ATOM     18  C   UNL     1       1.986   8.869  17.995  0.00  0.00    +0.000 A 
ENDBRANCH   5  13
BRANCH   1  19
ATOM     19  C   UNL     1       6.404   5.742  18.804  0.00  0.00    +0.000 C 
BRANCH  19  21
ATOM     20  N   UNL     1       7.593   8.278  18.345  0.00  0.00    +0.000 N 
ATOM     21  C   UNL     1       7.310   6.932  17.816  0.00  0.00    +0.000 C 
ATOM     22  O   UNL     1       7.666   6.644  16.671  0.00  0.00    +0.000 OA
ATOM     23  H   UNL     1       7.654   8.326  19.349  0.00  0.00    +0.000 HD
BRANCH  20  24
ATOM     24  C   UNL     1       8.405   9.459  17.637  0.00  0.00    +0.000 C 
BRANCH  24  29
ATOM     25  C   UNL     1      11.065  12.223  18.610  0.00  0.00    +0.000 A 
ATOM     26  C   UNL     1      11.038  12.254  20.002  0.00  0.00    +0.000 A 
ATOM     27  C   UNL     1      10.173  11.395  20.661  0.00  0.00    +0.000 A 
ATOM     28  C   UNL     1       9.318  10.527  19.914  0.00  0.00    +0.000 A 
ATOM     29  C   UNL     1       9.277  10.507  18.475  0.00  0.00    +0.000 A 
ATOM     30  C   UNL     1      10.195  11.373  17.864  0.00  0.00    +0.000 A 
BRANCH  25  32
ATOM     31  C   UNL     1      12.331  14.180  18.892  0.00  0.00    +0.000 C 
ATOM     32  O   UNL     1      11.987  13.081  18.062  0.00  0.00    +0.000 OA
ENDBRANCH  25  32
ENDBRANCH  24  29
ENDBRANCH  20  24
ENDBRANCH  19  21
ENDBRANCH   1  19
TORSDOF 6
ENDMDL
MODEL 6
REMARK VINA RESULT:      -9.6      4.668      8.626
REMARK  Name = 
REMARK  7 active torsions:
REMARK  status: ('A' for Active; 'I' for Inactive)
REMARK    1  A    between atoms: C_1  and  O_2
REMARK    2  A    between atoms: O_2  and  C_3
REMARK    3  A    between atoms: C_7  and  C_8
REMARK    4  A    between atoms: C_8  and  N_9
REMARK    5  A    between atoms: C_10  and  C_12
REMARK    6  A    between atoms: C_12  and  N_13
REMARK    7  A    between atoms: C_17  and  C_18
REMARK                            x       y       z     vdW  Elec       q    Type
REMARK                         _______ _______ _______ _____ _____    ______ ____
ROOT
ATOM      1  N   UNL     1       3.165   5.846  18.087  0.00  0.00    +0.000 N 
ATOM      2  C   UNL     1       4.362   5.485  18.683  0.00  0.00    +0.000 C 
ATOM      3  O   UNL     1       4.706   5.800  19.822  0.00  0.00    +0.000 OA
ATOM      4  C   UNL     1       5.291   4.918  17.678  0.00  0.00    +0.000 C 
ATOM      5  C   UNL     1       4.735   4.296  16.395  0.00  0.00    +0.000 C 
ATOM      6  N   UNL     1       3.640   3.692  16.239  0.00  0.00    +0.000 NA
ATOM      7  C   UNL     1       2.832   3.496  17.395  0.00  0.00    +0.000 A 
ATOM      8  C   UNL     1       2.742   2.116  17.752  0.00  0.00    +0.000 A 
ATOM      9  C   UNL     1       1.955   1.729  18.812  0.00  0.00    +0.000 A 
ATOM     10  C   UNL     1       1.255   2.741  19.460  0.00  0.00    +0.000 A 
ATOM     11  C   UNL     1       1.437   4.152  19.126  0.00  0.00    +0.000 A 
ATOM     12  C   UNL     1       2.273   4.602  18.083  0.00  0.00    +0.000 A 
ENDROOT
BRANCH   5  13
ATOM     13  C   UNL     1       5.676   4.224  15.248  0.00  0.00    +0.000 A 
ATOM     14  C   UNL     1       5.318   3.550  14.074  0.00  0.00    +0.000 A 
ATOM     15  C   UNL     1       6.047   3.723  12.928  0.00  0.00    +0.000 A 
ATOM     16  C   UNL     1       7.169   4.551  12.936  0.00  0.00    +0.000 A 
ATOM     17  C   UNL     1       7.587   5.165  14.112  0.00  0.00    +0.000 A 
ATOM     18  C   UNL     1       6.848   4.997  15.286  0.00  0.00    +0.000 A 
ENDBRANCH   5  13
BRANCH   1  19
ATOM     19  C   UNL     1       2.994   7.392  17.915  0.00  0.00    +0.000 C 
BRANCH  19  21
ATOM     20  N   UNL     1       0.992   9.400  18.042  0.00  0.00    +0.000 N 
ATOM     21  C   UNL     1       1.855   8.467  18.788  0.00  0.00    +0.000 C 
ATOM     22  O   UNL     1       1.818   8.461  20.021  0.00  0.00    +0.000 OA
ATOM     23  H   UNL     1       0.765   9.101  17.108  0.00  0.00    +0.000 HD
BRANCH  20  24
ATOM     24  C   UNL     1      -0.100  10.408  18.631  0.00  0.00    +0.000 C 
BRANCH  24  29
ATOM     25  C   UNL     1      -3.853  11.471  17.959  0.00  0.00    +0.000 A 
ATOM     26  C   UNL     1      -4.183  10.835  16.764  0.00  0.00    +0.000 A 
ATOM     27  C   UNL     1      -3.219  10.053  16.147  0.00  0.00    +0.000 A 
ATOM     28  C   UNL     1      -1.915   9.938  16.722  0.00  0.00    +0.000 A 
ATOM     29  C   UNL     1      -1.520  10.624  17.924  0.00  0.00    +0.000 A 
ATOM     30  C   UNL     1      -2.545  11.373  18.520  0.00  0.00    +0.000 A 
BRANCH  25  32
ATOM     31  C   UNL     1      -6.181  11.720  18.129  0.00  0.00    +0.000 C 
ATOM     32  O   UNL     1      -4.893  12.181  18.505  0.00  0.00    +0.000 OA
ENDBRANCH  25  32
ENDBRANCH  24  29
ENDBRANCH  20  24
ENDBRANCH  19  21
ENDBRANCH   1  19
TORSDOF 6
ENDMDL
MODEL 7
REMARK VINA RESULT:      -9.5      4.199      6.952
REMARK  Name = 
REMARK  7 active torsions:
REMARK  status: ('A' for Active; 'I' for Inactive)
REMARK    1  A    between atoms: C_1  and  O_2
REMARK    2  A    between atoms: O_2  and  C_3
REMARK    3  A    between atoms: C_7  and  C_8
REMARK    4  A    between atoms: C_8  and  N_9
REMARK    5  A    between atoms: C_10  and  C_12
REMARK    6  A    between atoms: C_12  and  N_13
REMARK    7  A    between atoms: C_17  and  C_18
REMARK                            x       y       z     vdW  Elec       q    Type
REMARK                         _______ _______ _______ _____ _____    ______ ____
ROOT
ATOM      1  N   UNL     1       4.507   4.671  18.665  0.00  0.00    +0.000 N 
ATOM      2  C   UNL     1       3.636   4.738  17.591  0.00  0.00    +0.000 C 
ATOM      3  O   UNL     1       3.702   4.033  16.584  0.00  0.00    +0.000 OA
ATOM      4  C   UNL     1       2.795   5.955  17.680  0.00  0.00    +0.000 C 
ATOM      5  C   UNL     1       2.550   6.610  19.042  0.00  0.00    +0.000 C 
ATOM      6  N   UNL     1       2.478   6.051  20.169  0.00  0.00    +0.000 NA
ATOM      7  C   UNL     1       2.569   4.630  20.200  0.00  0.00    +0.000 A 
ATOM      8  C   UNL     1       1.337   4.027  20.599  0.00  0.00    +0.000 A 
ATOM      9  C   UNL     1       1.254   2.662  20.742  0.00  0.00    +0.000 A 
ATOM     10  C   UNL     1       2.424   1.946  20.509  0.00  0.00    +0.000 A 
ATOM     11  C   UNL     1       3.642   2.583  20.016  0.00  0.00    +0.000 A 
ATOM     12  C   UNL     1       3.761   3.972  19.805  0.00  0.00    +0.000 A 
ENDROOT
BRANCH   5  13
ATOM     13  C   UNL     1       2.159   8.043  19.011  0.00  0.00    +0.000 A 
ATOM     14  C   UNL     1       2.302   8.794  17.837  0.00  0.00    +0.000 A 
ATOM     15  C   UNL     1       1.687  10.010  17.717  0.00  0.00    +0.000 A 
ATOM     16  C   UNL     1       0.939  10.519  18.777  0.00  0.00    +0.000 A 
ATOM     17  C   UNL     1       0.852   9.825  19.979  0.00  0.00    +0.000 A 
ATOM     18  C   UNL     1       1.474   8.581  20.112  0.00  0.00    +0.000 A 
ENDBRANCH   5  13
BRANCH   1  19
ATOM     19  C   UNL     1       5.988   5.015  18.291  0.00  0.00    +0.000 C 
BRANCH  19  21
ATOM     20  N   UNL     1       6.490   4.475  15.550  0.00  0.00    +0.000 N 
ATOM     21  C   UNL     1       6.636   5.422  16.670  0.00  0.00    +0.000 C 
ATOM     22  O   UNL     1       7.246   6.479  16.493  0.00  0.00    +0.000 OA
ATOM     23  H   UNL     1       5.689   3.869  15.619  0.00  0.00    +0.000 HD
BRANCH  20  24
ATOM     24  C   UNL     1       6.968   4.666  14.037  0.00  0.00    +0.000 C 
BRANCH  24  29
ATOM     25  C   UNL     1       4.462   3.065  11.425  0.00  0.00    +0.000 A 
ATOM     26  C   UNL     1       5.191   2.036  10.833  0.00  0.00    +0.000 A 
ATOM     27  C   UNL     1       6.496   1.830  11.252  0.00  0.00    +0.000 A 
ATOM     28  C   UNL     1       7.071   2.679  12.248  0.00  0.00    +0.000 A 
ATOM     29  C   UNL     1       6.368   3.786  12.842  0.00  0.00    +0.000 A 
ATOM     30  C   UNL     1       5.044   3.926  12.403  0.00  0.00    +0.000 A 
BRANCH  25  32
ATOM     31  C   UNL     1       3.003   4.000   9.841  0.00  0.00    +0.000 C 
ATOM     32  O   UNL     1       3.171   3.153  10.968  0.00  0.00    +0.000 OA
ENDBRANCH  25  32
ENDBRANCH  24  29
ENDBRANCH  20  24
ENDBRANCH  19  21
ENDBRANCH   1  19
TORSDOF 6
ENDMDL
MODEL 8
REMARK VINA RESULT:      -9.4      1.464      1.953
REMARK  Name = 
REMARK  7 active torsions:
REMARK  status: ('A' for Active; 'I' for Inactive)
REMARK    1  A    between atoms: C_1  and  O_2
REMARK    2  A    between atoms: O_2  and  C_3
REMARK    3  A    between atoms: C_7  and  C_8
REMARK    4  A    between atoms: C_8  and  N_9
REMARK    5  A    between atoms: C_10  and  C_12
REMARK    6  A    between atoms: C_12  and  N_13
REMARK    7  A    between atoms: C_17  and  C_18
REMARK                            x       y       z     vdW  Elec       q    Type
REMARK                         _______ _______ _______ _____ _____    ______ ____
ROOT
ATOM      1  N   UNL     1       4.632   4.997  18.762  0.00  0.00    +0.000 N 
ATOM      2  C   UNL     1       3.793   4.935  17.662  0.00  0.00    +0.000 C 
ATOM      3  O   UNL     1       3.963   4.206  16.685  0.00  0.00    +0.000 OA
ATOM      4  C   UNL     1       2.827   6.059  17.682  0.00  0.00    +0.000 C 
ATOM      5  C   UNL     1       2.473   6.731  19.011  0.00  0.00    +0.000 C 
ATOM      6  N   UNL     1       2.424   6.208  20.156  0.00  0.00    +0.000 NA
ATOM      7  C   UNL     1       2.662   4.806  20.242  0.00  0.00    +0.000 A 
ATOM      8  C   UNL     1       1.487   4.091  20.630  0.00  0.00    +0.000 A 
ATOM      9  C   UNL     1       1.541   2.730  20.822  0.00  0.00    +0.000 A 
ATOM     10  C   UNL     1       2.786   2.134  20.649  0.00  0.00    +0.000 A 
ATOM     11  C   UNL     1       3.947   2.878  20.166  0.00  0.00    +0.000 A 
ATOM     12  C   UNL     1       3.928   4.264  19.906  0.00  0.00    +0.000 A 
ENDROOT
BRANCH   5  13
ATOM     13  C   UNL     1       1.937   8.114  18.915  0.00  0.00    +0.000 A 
ATOM     14  C   UNL     1       1.297   8.707  20.010  0.00  0.00    +0.000 A 
ATOM     15  C   UNL     1       1.064  10.055  20.027  0.00  0.00    +0.000 A 
ATOM     16  C   UNL     1       1.438  10.839  18.936  0.00  0.00    +0.000 A 
ATOM     17  C   UNL     1       2.001  10.257  17.806  0.00  0.00    +0.000 A 
ATOM     18  C   UNL     1       2.246   8.881  17.780  0.00  0.00    +0.000 A 
ENDBRANCH   5  13
BRANCH   1  19
ATOM     19  C   UNL     1       6.080   5.481  18.416  0.00  0.00    +0.000 C 
BRANCH  19  21
ATOM     20  N   UNL     1       7.564   7.881  18.110  0.00  0.00    +0.000 N 
ATOM     21  C   UNL     1       6.552   6.974  17.542  0.00  0.00    +0.000 C 
ATOM     22  O   UNL     1       6.001   7.270  16.479  0.00  0.00    +0.000 OA
ATOM     23  H   UNL     1       8.235   7.433  18.711  0.00  0.00    +0.000 HD
BRANCH  20  24
ATOM     24  C   UNL     1       8.136   9.232  17.475  0.00  0.00    +0.000 C 
BRANCH  24  29
ATOM     25  C   UNL     1       9.690  12.681  18.641  0.00  0.00    +0.000 A 
ATOM     26  C   UNL     1      10.144  12.435  19.935  0.00  0.00    +0.000 A 
ATOM     27  C   UNL     1       9.966  11.166  20.463  0.00  0.00    +0.000 A 
ATOM     28  C   UNL     1       9.306  10.157  19.697  0.00  0.00    +0.000 A 
ATOM     29  C   UNL     1       8.773  10.388  18.380  0.00  0.00    +0.000 A 
ATOM     30  C   UNL     1       9.010  11.679  17.885  0.00  0.00    +0.000 A 
BRANCH  25  32
ATOM     31  C   UNL     1       8.812  14.789  18.099  0.00  0.00    +0.000 C 
ATOM     32  O   UNL     1       9.955  13.954  18.201  0.00  0.00    +0.000 OA
ENDBRANCH  25  32
ENDBRANCH  24  29
ENDBRANCH  20  24
ENDBRANCH  19  21
ENDBRANCH   1  19
TORSDOF 6
ENDMDL
MODEL 9
REMARK VINA RESULT:      -9.3      4.551      8.537
REMARK  Name = 
REMARK  7 active torsions:
REMARK  status: ('A' for Active; 'I' for Inactive)
REMARK    1  A    between atoms: C_1  and  O_2
REMARK    2  A    between atoms: O_2  and  C_3
REMARK    3  A    between atoms: C_7  and  C_8
REMARK    4  A    between atoms: C_8  and  N_9
REMARK    5  A    between atoms: C_10  and  C_12
REMARK    6  A    between atoms: C_12  and  N_13
REMARK    7  A    between atoms: C_17  and  C_18
REMARK                            x       y       z     vdW  Elec       q    Type
REMARK                         _______ _______ _______ _____ _____    ______ ____
ROOT
ATOM      1  N   UNL     1       3.548   5.758  18.265  0.00  0.00    +0.000 N 
ATOM      2  C   UNL     1       4.848   5.424  18.606  0.00  0.00    +0.000 C 
ATOM      3  O   UNL     1       5.381   5.673  19.686  0.00  0.00    +0.000 OA
ATOM      4  C   UNL     1       5.602   4.987  17.406  0.00  0.00    +0.000 C 
ATOM      5  C   UNL     1       4.847   4.429  16.197  0.00  0.00    +0.000 C 
ATOM      6  N   UNL     1       3.769   3.777  16.190  0.00  0.00    +0.000 NA
ATOM      7  C   UNL     1       3.196   3.450  17.452  0.00  0.00    +0.000 A 
ATOM      8  C   UNL     1       3.232   2.045  17.704  0.00  0.00    +0.000 A 
ATOM      9  C   UNL     1       2.669   1.537  18.852  0.00  0.00    +0.000 A 
ATOM     10  C   UNL     1       2.056   2.457  19.696  0.00  0.00    +0.000 A 
ATOM     11  C   UNL     1       2.114   3.897  19.453  0.00  0.00    +0.000 A 
ATOM     12  C   UNL     1       2.725   4.469  18.318  0.00  0.00    +0.000 A 
ENDROOT
BRANCH   5  13
ATOM     13  C   UNL     1       5.565   4.496  14.898  0.00  0.00    +0.000 A 
ATOM     14  C   UNL     1       6.812   5.128  14.806  0.00  0.00    +0.000 A 
ATOM     15  C   UNL     1       7.599   4.944  13.701  0.00  0.00    +0.000 A 
ATOM     16  C   UNL     1       7.147   4.148  12.650  0.00  0.00    +0.000 A 
ATOM     17  C   UNL     1       5.879   3.578  12.688  0.00  0.00    +0.000 A 
ATOM     18  C   UNL     1       5.068   3.757  13.812  0.00  0.00    +0.000 A 
ENDBRANCH   5  13
BRANCH   1  19
ATOM     19  C   UNL     1       3.283   7.301  18.255  0.00  0.00    +0.000 C 
BRANCH  19  21
ATOM     20  N   UNL     1       1.193   9.214  18.412  0.00  0.00    +0.000 N 
ATOM     21  C   UNL     1       1.985   8.190  19.114  0.00  0.00    +0.000 C 
ATOM     22  O   UNL     1       1.775   7.977  20.311  0.00  0.00    +0.000 OA
ATOM     23  H   UNL     1       1.113   9.071  17.419  0.00  0.00    +0.000 HD
BRANCH  20  24
ATOM     24  C   UNL     1      -0.017  10.086  18.990  0.00  0.00    +0.000 C 
BRANCH  24  29
ATOM     25  C   UNL     1      -2.607  10.285  16.004  0.00  0.00    +0.000 A 
ATOM     26  C   UNL     1      -3.658  11.047  16.509  0.00  0.00    +0.000 A 
ATOM     27  C   UNL     1      -3.564  11.515  17.810  0.00  0.00    +0.000 A 
ATOM     28  C   UNL     1      -2.424  11.189  18.608  0.00  0.00    +0.000 A 
ATOM     29  C   UNL     1      -1.345  10.358  18.141  0.00  0.00    +0.000 A 
ATOM     30  C   UNL     1      -1.480   9.941  16.809  0.00  0.00    +0.000 A 
BRANCH  25  32
ATOM     31  C   UNL     1      -4.105  10.081  14.208  0.00  0.00    +0.000 C 
ATOM     32  O   UNL     1      -2.782   9.911  14.695  0.00  0.00    +0.000 OA
ENDBRANCH  25  32
ENDBRANCH  24  29
ENDBRANCH  20  24
ENDBRANCH  19  21
ENDBRANCH   1  19
TORSDOF 6
ENDMDL
