MODEL 1
REMARK VINA RESULT:      -8.2      0.000      0.000
REMARK  Name = 
REMARK  4 active torsions:
REMARK  status: ('A' for Active; 'I' for Inactive)
REMARK    1  A    between atoms: O_1  and  C_2
REMARK    2  A    between atoms: C_5  and  C_6
REMARK    3  A    between atoms: C_8  and  C_9
REMARK    4  A    between atoms: C_21  and  O_22
REMARK                            x       y       z     vdW  Elec       q    Type
REMARK                         _______ _______ _______ _____ _____    ______ ____
ROOT
ATOM      1  C   UNL     1       0.693  10.458  18.653  0.00  0.00    +0.000 A 
ATOM      2  C   UNL     1      -0.718  10.405  18.678  0.00  0.00    +0.000 A 
ATOM      3  C   UNL     1      -1.489  11.574  18.684  0.00  0.00    +0.000 A 
ATOM      4  N   UNL     1      -0.942  12.797  18.873  0.00  0.00    +0.000 NA
ATOM      5  C   UNL     1       0.392  12.819  18.776  0.00  0.00    +0.000 A 
ATOM      6  C   UNL     1       1.219  11.731  18.487  0.00  0.00    +0.000 A 
ATOM      7  C   UNL     1       2.545  12.275  17.978  0.00  0.00    +0.000 C 
ATOM      8  C   UNL     1       2.440  13.761  18.304  0.00  0.00    +0.000 A 
ATOM      9  C   UNL     1       3.349  14.791  18.181  0.00  0.00    +0.000 A 
ATOM     10  C   UNL     1       3.062  16.025  18.770  0.00  0.00    +0.000 A 
ATOM     11  C   UNL     1       1.847  16.232  19.444  0.00  0.00    +0.000 A 
ATOM     12  C   UNL     1       0.877  15.232  19.466  0.00  0.00    +0.000 A 
ATOM     13  C   UNL     1       1.174  14.021  18.862  0.00  0.00    +0.000 A 
ENDROOT
BRANCH   3  14
ATOM     14  C   UNL     1      -2.924  11.589  18.356  0.00  0.00    +0.000 A 
ATOM     15  C   UNL     1      -3.871  12.084  19.272  0.00  0.00    +0.000 A 
ATOM     16  C   UNL     1      -5.212  12.233  18.913  0.00  0.00    +0.000 A 
ATOM     17  C   UNL     1      -5.621  11.890  17.631  0.00  0.00    +0.000 A 
ATOM     18  F   UNL     1      -6.898  12.065  17.273  0.00  0.00    +0.000 F 
ATOM     19  C   UNL     1      -4.715  11.394  16.703  0.00  0.00    +0.000 A 
ATOM     20  C   UNL     1      -3.374  11.241  17.066  0.00  0.00    +0.000 A 
ENDBRANCH   3  14
BRANCH   1  24
ATOM     21  C   UNL     1       2.408   6.639  19.584  0.00  0.00    +0.000 A 
ATOM     22  C   UNL     1       2.626   7.194  18.331  0.00  0.00    +0.000 A 
ATOM     23  C   UNL     1       2.176   8.494  18.064  0.00  0.00    +0.000 A 
ATOM     24  C   UNL     1       1.468   9.247  19.024  0.00  0.00    +0.000 A 
ATOM     25  C   UNL     1       1.303   8.661  20.294  0.00  0.00    +0.000 A 
ATOM     26  C   UNL     1       1.775   7.374  20.575  0.00  0.00    +0.000 A 
BRANCH  21  27
ATOM     27  O   UNL     1       2.780   5.361  19.874  0.00  0.00    +0.000 OA
ATOM     28  H   UNL     1       1.992   4.794  19.858  0.00  0.00    +0.000 HD
ENDBRANCH  21  27
ENDBRANCH   1  24
BRANCH   9  29
ATOM     29  O   UNL     1       4.513  14.665  17.493  0.00  0.00    +0.000 OA
ATOM     30  H   UNL     1       5.064  15.440  17.699  0.00  0.00    +0.000 HD
ENDBRANCH   9  29
TORSDOF 4
ENDMDL
MODEL 2
REMARK VINA RESULT:      -8.0      3.519      6.319
REMARK  Name = 
REMARK  4 active torsions:
REMARK  status: ('A' for Active; 'I' for Inactive)
REMARK    1  A    between atoms: O_1  and  C_2
REMARK    2  A    between atoms: C_5  and  C_6
REMARK    3  A    between atoms: C_8  and  C_9
REMARK    4  A    between atoms: C_21  and  O_22
REMARK                            x       y       z     vdW  Elec       q    Type
REMARK                         _______ _______ _______ _____ _____    ______ ____
ROOT
ATOM      1  C   UNL     1      -1.207  11.250  18.588  0.00  0.00    +0.000 A 
ATOM      2  C   UNL     1      -0.479  10.043  18.510  0.00  0.00    +0.000 A 
ATOM      3  C   UNL     1       0.922  10.035  18.537  0.00  0.00    +0.000 A 
ATOM      4  N   UNL     1       1.650  11.171  18.431  0.00  0.00    +0.000 NA
ATOM      5  C   UNL     1       0.936  12.293  18.576  0.00  0.00    +0.000 A 
ATOM      6  C   UNL     1      -0.433  12.375  18.838  0.00  0.00    +0.000 A 
ATOM      7  C   UNL     1      -0.716  13.751  19.420  0.00  0.00    +0.000 C 
ATOM      8  C   UNL     1       0.593  14.492  19.167  0.00  0.00    +0.000 A 
ATOM      9  C   UNL     1       0.955  15.807  19.376  0.00  0.00    +0.000 A 
ATOM     10  C   UNL     1       2.158  16.273  18.841  0.00  0.00    +0.000 A 
ATOM     11  C   UNL     1       3.012  15.410  18.135  0.00  0.00    +0.000 A 
ATOM     12  C   UNL     1       2.706  14.054  18.028  0.00  0.00    +0.000 A 
ATOM     13  C   UNL     1       1.516  13.607  18.579  0.00  0.00    +0.000 A 
ENDROOT
BRANCH   3  14
ATOM     14  C   UNL     1       1.712   8.825  18.814  0.00  0.00    +0.000 A 
ATOM     15  C   UNL     1       1.551   8.117  20.020  0.00  0.00    +0.000 A 
ATOM     16  C   UNL     1       2.192   6.893  20.228  0.00  0.00    +0.000 A 
ATOM     17  C   UNL     1       2.999   6.363  19.230  0.00  0.00    +0.000 A 
ATOM     18  F   UNL     1       3.586   5.175  19.413  0.00  0.00    +0.000 F 
ATOM     19  C   UNL     1       3.185   7.037  18.031  0.00  0.00    +0.000 A 
ATOM     20  C   UNL     1       2.547   8.264  17.827  0.00  0.00    +0.000 A 
ENDBRANCH   3  14
BRANCH   1  24
ATOM     21  C   UNL     1      -5.237  11.883  17.265  0.00  0.00    +0.000 A 
ATOM     22  C   UNL     1      -4.313  11.331  16.389  0.00  0.00    +0.000 A 
ATOM     23  C   UNL     1      -3.032  11.005  16.852  0.00  0.00    +0.000 A 
ATOM     24  C   UNL     1      -2.635  11.260  18.182  0.00  0.00    +0.000 A 
ATOM     25  C   UNL     1      -3.615  11.785  19.046  0.00  0.00    +0.000 A 
ATOM     26  C   UNL     1      -4.905  12.087  18.596  0.00  0.00    +0.000 A 
BRANCH  21  27
ATOM     27  O   UNL     1      -6.477  12.266  16.849  0.00  0.00    +0.000 OA
ATOM     28  H   UNL     1      -6.829  11.588  16.250  0.00  0.00    +0.000 HD
ENDBRANCH  21  27
ENDBRANCH   1  24
BRANCH   9  29
ATOM     29  O   UNL     1       0.195  16.672  20.097  0.00  0.00    +0.000 OA
ATOM     30  H   UNL     1      -0.590  16.188  20.408  0.00  0.00    +0.000 HD
ENDBRANCH   9  29
TORSDOF 4
ENDMDL
MODEL 3
REMARK VINA RESULT:      -7.9      3.398      6.207
REMARK  Name = 
REMARK  4 active torsions:
REMARK  status: ('A' for Active; 'I' for Inactive)
REMARK    1  A    between atoms: O_1  and  C_2
REMARK    2  A    between atoms: C_5  and  C_6
REMARK    3  A    between atoms: C_8  and  C_9
REMARK    4  A    between atoms: C_21  and  O_22
REMARK                            x       y       z     vdW  Elec       q    Type
REMARK                         _______ _______ _______ _____ _____    ______ ____
ROOT
ATOM      1  C   UNL     1      -1.172  11.711  18.732  0.00  0.00    +0.000 A 
ATOM      2  C   UNL     1      -0.553  10.444  18.677  0.00  0.00    +0.000 A 
ATOM      3  C   UNL     1       0.842  10.316  18.662  0.00  0.00    +0.000 A 
ATOM      4  N   UNL     1       1.661  11.379  18.490  0.00  0.00    +0.000 NA
ATOM      5  C   UNL     1       1.051  12.563  18.614  0.00  0.00    +0.000 A 
ATOM      6  C   UNL     1      -0.297  12.773  18.914  0.00  0.00    +0.000 A 
ATOM      7  C   UNL     1      -0.441  14.188  19.452  0.00  0.00    +0.000 C 
ATOM      8  C   UNL     1       0.917  14.803  19.131  0.00  0.00    +0.000 A 
ATOM      9  C   UNL     1       1.396  16.089  19.278  0.00  0.00    +0.000 A 
ATOM     10  C   UNL     1       2.616  16.430  18.689  0.00  0.00    +0.000 A 
ATOM     11  C   UNL     1       3.369  15.471  17.992  0.00  0.00    +0.000 A 
ATOM     12  C   UNL     1       2.946  14.144  17.945  0.00  0.00    +0.000 A 
ATOM     13  C   UNL     1       1.741  13.822  18.550  0.00  0.00    +0.000 A 
ENDROOT
BRANCH   3  14
ATOM     14  C   UNL     1       1.535   9.052  18.961  0.00  0.00    +0.000 A 
ATOM     15  C   UNL     1       1.389   8.426  20.213  0.00  0.00    +0.000 A 
ATOM     16  C   UNL     1       1.927   7.159  20.453  0.00  0.00    +0.000 A 
ATOM     17  C   UNL     1       2.617   6.505  19.440  0.00  0.00    +0.000 A 
ATOM     18  F   UNL     1       3.103   5.277  19.657  0.00  0.00    +0.000 F 
ATOM     19  C   UNL     1       2.785   7.095  18.196  0.00  0.00    +0.000 A 
ATOM     20  C   UNL     1       2.250   8.364  17.960  0.00  0.00    +0.000 A 
ENDBRANCH   3  14
BRANCH   1  24
ATOM     21  C   UNL     1      -5.369  11.459  17.887  0.00  0.00    +0.000 A 
ATOM     22  C   UNL     1      -4.950  12.020  19.085  0.00  0.00    +0.000 A 
ATOM     23  C   UNL     1      -3.582  12.220  19.312  0.00  0.00    +0.000 A 
ATOM     24  C   UNL     1      -2.607  11.830  18.369  0.00  0.00    +0.000 A 
ATOM     25  C   UNL     1      -3.078  11.301  17.152  0.00  0.00    +0.000 A 
ATOM     26  C   UNL     1      -4.444  11.124  16.909  0.00  0.00    +0.000 A 
BRANCH  21  27
ATOM     27  O   UNL     1      -6.683  11.196  17.642  0.00  0.00    +0.000 OA
ATOM     28  H   UNL     1      -6.753  10.336  17.196  0.00  0.00    +0.000 HD
ENDBRANCH  21  27
ENDBRANCH   1  24
BRANCH   9  29
ATOM     29  O   UNL     1       0.738  17.041  19.989  0.00  0.00    +0.000 OA
ATOM     30  H   UNL     1      -0.015  17.343  19.451  0.00  0.00    +0.000 HD
ENDBRANCH   9  29
TORSDOF 4
ENDMDL
MODEL 4
REMARK VINA RESULT:      -7.9      4.588      8.512
REMARK  Name = 
REMARK  4 active torsions:
REMARK  status: ('A' for Active; 'I' for Inactive)
REMARK    1  A    between atoms: O_1  and  C_2
REMARK    2  A    between atoms: C_5  and  C_6
REMARK    3  A    between atoms: C_8  and  C_9
REMARK    4  A    between atoms: C_21  and  O_22
REMARK                            x       y       z     vdW  Elec       q    Type
REMARK                         _______ _______ _______ _____ _____    ______ ____
ROOT
ATOM      1  C   UNL     1       4.286   5.944  17.596  0.00  0.00    +0.000 A 
ATOM      2  C   UNL     1       3.588   7.169  17.517  0.00  0.00    +0.000 A 
ATOM      3  C   UNL     1       2.516   7.452  18.375  0.00  0.00    +0.000 A 
ATOM      4  N   UNL     1       1.963   6.508  19.171  0.00  0.00    +0.000 NA
ATOM      5  C   UNL     1       2.687   5.387  19.273  0.00  0.00    +0.000 A 
ATOM      6  C   UNL     1       3.919   5.140  18.665  0.00  0.00    +0.000 A 
ATOM      7  C   UNL     1       4.599   4.014  19.430  0.00  0.00    +0.000 C 
ATOM      8  C   UNL     1       3.476   3.495  20.322  0.00  0.00    +0.000 A 
ATOM      9  C   UNL     1       3.417   2.422  21.187  0.00  0.00    +0.000 A 
ATOM     10  C   UNL     1       2.181   2.040  21.712  0.00  0.00    +0.000 A 
ATOM     11  C   UNL     1       1.016   2.760  21.400  0.00  0.00    +0.000 A 
ATOM     12  C   UNL     1       1.091   3.915  20.624  0.00  0.00    +0.000 A 
ATOM     13  C   UNL     1       2.329   4.287  20.125  0.00  0.00    +0.000 A 
ENDROOT
BRANCH   3  14
ATOM     14  C   UNL     1       1.993   8.811  18.583  0.00  0.00    +0.000 A 
ATOM     15  C   UNL     1       1.175   9.111  19.688  0.00  0.00    +0.000 A 
ATOM     16  C   UNL     1       0.794  10.425  19.968  0.00  0.00    +0.000 A 
ATOM     17  C   UNL     1       1.229  11.455  19.145  0.00  0.00    +0.000 A 
ATOM     18  F   UNL     1       0.894  12.719  19.431  0.00  0.00    +0.000 F 
ATOM     19  C   UNL     1       2.031  11.196  18.042  0.00  0.00    +0.000 A 
ATOM     20  C   UNL     1       2.408   9.879  17.762  0.00  0.00    +0.000 A 
ENDBRANCH   3  14
BRANCH   1  24
ATOM     21  C   UNL     1       6.239   4.451  14.083  0.00  0.00    +0.000 A 
ATOM     22  C   UNL     1       5.742   5.746  14.084  0.00  0.00    +0.000 A 
ATOM     23  C   UNL     1       5.216   6.283  15.267  0.00  0.00    +0.000 A 
ATOM     24  C   UNL     1       5.141   5.527  16.456  0.00  0.00    +0.000 A 
ATOM     25  C   UNL     1       5.692   4.231  16.420  0.00  0.00    +0.000 A 
ATOM     26  C   UNL     1       6.243   3.701  15.249  0.00  0.00    +0.000 A 
BRANCH  21  27
ATOM     27  O   UNL     1       6.711   3.868  12.945  0.00  0.00    +0.000 OA
ATOM     28  H   UNL     1       6.837   4.553  12.270  0.00  0.00    +0.000 HD
ENDBRANCH  21  27
ENDBRANCH   1  24
BRANCH   9  29
ATOM     29  O   UNL     1       4.519   1.724  21.567  0.00  0.00    +0.000 OA
ATOM     30  H   UNL     1       4.251   1.111  22.274  0.00  0.00    +0.000 HD
ENDBRANCH   9  29
TORSDOF 4
ENDMDL
MODEL 5
REMARK VINA RESULT:      -7.8      4.570      8.615
REMARK  Name = 
REMARK  4 active torsions:
REMARK  status: ('A' for Active; 'I' for Inactive)
REMARK    1  A    between atoms: O_1  and  C_2
REMARK    2  A    between atoms: C_5  and  C_6
REMARK    3  A    between atoms: C_8  and  C_9
REMARK    4  A    between atoms: C_21  and  O_22
REMARK                            x       y       z     vdW  Elec       q    Type
REMARK                         _______ _______ _______ _____ _____    ______ ____
ROOT
ATOM      1  C   UNL     1       4.323   5.923  17.450  0.00  0.00    +0.000 A 
ATOM      2  C   UNL     1       3.615   7.144  17.481  0.00  0.00    +0.000 A 
ATOM      3  C   UNL     1       2.637   7.393  18.452  0.00  0.00    +0.000 A 
ATOM      4  N   UNL     1       2.174   6.422  19.274  0.00  0.00    +0.000 NA
ATOM      5  C   UNL     1       2.910   5.305  19.267  0.00  0.00    +0.000 A 
ATOM      6  C   UNL     1       4.074   5.085  18.528  0.00  0.00    +0.000 A 
ATOM      7  C   UNL     1       4.835   3.943  19.184  0.00  0.00    +0.000 C 
ATOM      8  C   UNL     1       3.813   3.389  20.171  0.00  0.00    +0.000 A 
ATOM      9  C   UNL     1       3.850   2.291  21.006  0.00  0.00    +0.000 A 
ATOM     10  C   UNL     1       2.676   1.885  21.645  0.00  0.00    +0.000 A 
ATOM     11  C   UNL     1       1.482   2.604  21.477  0.00  0.00    +0.000 A 
ATOM     12  C   UNL     1       1.470   3.782  20.731  0.00  0.00    +0.000 A 
ATOM     13  C   UNL     1       2.648   4.178  20.118  0.00  0.00    +0.000 A 
ENDROOT
BRANCH   3  14
ATOM     14  C   UNL     1       2.131   8.742  18.754  0.00  0.00    +0.000 A 
ATOM     15  C   UNL     1       2.301   9.799  17.841  0.00  0.00    +0.000 A 
ATOM     16  C   UNL     1       1.701  11.041  18.056  0.00  0.00    +0.000 A 
ATOM     17  C   UNL     1       0.921  11.239  19.189  0.00  0.00    +0.000 A 
ATOM     18  F   UNL     1       0.316  12.417  19.380  0.00  0.00    +0.000 F 
ATOM     19  C   UNL     1       0.736  10.220  20.113  0.00  0.00    +0.000 A 
ATOM     20  C   UNL     1       1.342   8.979  19.897  0.00  0.00    +0.000 A 
ENDBRANCH   3  14
BRANCH   1  24
ATOM     21  C   UNL     1       6.603   4.306  14.198  0.00  0.00    +0.000 A 
ATOM     22  C   UNL     1       5.228   4.121  14.221  0.00  0.00    +0.000 A 
ATOM     23  C   UNL     1       4.463   4.753  15.210  0.00  0.00    +0.000 A 
ATOM     24  C   UNL     1       5.058   5.545  16.216  0.00  0.00    +0.000 A 
ATOM     25  C   UNL     1       6.450   5.737  16.132  0.00  0.00    +0.000 A 
ATOM     26  C   UNL     1       7.215   5.130  15.130  0.00  0.00    +0.000 A 
BRANCH  21  27
ATOM     27  O   UNL     1       7.394   3.671  13.288  0.00  0.00    +0.000 OA
ATOM     28  H   UNL     1       7.411   2.723  13.495  0.00  0.00    +0.000 HD
ENDBRANCH  21  27
ENDBRANCH   1  24
BRANCH   9  29
ATOM     29  O   UNL     1       4.989   1.592  21.250  0.00  0.00    +0.000 OA
ATOM     30  H   UNL     1       5.000   1.365  22.196  0.00  0.00    +0.000 HD
ENDBRANCH   9  29
TORSDOF 4
ENDMDL
MODEL 6
REMARK VINA RESULT:      -7.8      0.411      1.351
REMARK  Name = 
REMARK  4 active torsions:
REMARK  status: ('A' for Active; 'I' for Inactive)
REMARK    1  A    between atoms: O_1  and  C_2
REMARK    2  A    between atoms: C_5  and  C_6
REMARK    3  A    between atoms: C_8  and  C_9
REMARK    4  A    between atoms: C_21  and  O_22
REMARK                            x       y       z     vdW  Elec       q    Type
REMARK                         _______ _______ _______ _____ _____    ______ ____
ROOT
ATOM      1  C   UNL     1       0.421  10.303  18.576  0.00  0.00    +0.000 A 
ATOM      2  C   UNL     1      -0.989  10.382  18.600  0.00  0.00    +0.000 A 
ATOM      3  C   UNL     1      -1.648  11.614  18.696  0.00  0.00    +0.000 A 
ATOM      4  N   UNL     1      -0.989  12.762  18.977  0.00  0.00    +0.000 NA
ATOM      5  C   UNL     1       0.342  12.666  18.879  0.00  0.00    +0.000 A 
ATOM      6  C   UNL     1       1.065  11.531  18.507  0.00  0.00    +0.000 A 
ATOM      7  C   UNL     1       2.439  11.985  18.039  0.00  0.00    +0.000 C 
ATOM      8  C   UNL     1       2.471  13.445  18.478  0.00  0.00    +0.000 A 
ATOM      9  C   UNL     1       3.474  14.392  18.432  0.00  0.00    +0.000 A 
ATOM     10  C   UNL     1       3.301  15.598  19.114  0.00  0.00    +0.000 A 
ATOM     11  C   UNL     1       2.107  15.867  19.804  0.00  0.00    +0.000 A 
ATOM     12  C   UNL     1       1.047  14.964  19.751  0.00  0.00    +0.000 A 
ATOM     13  C   UNL     1       1.232  13.780  19.056  0.00  0.00    +0.000 A 
ENDROOT
BRANCH   3  14
ATOM     14  C   UNL     1      -3.072  11.790  18.372  0.00  0.00    +0.000 A 
ATOM     15  C   UNL     1      -3.583  11.400  17.120  0.00  0.00    +0.000 A 
ATOM     16  C   UNL     1      -4.955  11.432  16.860  0.00  0.00    +0.000 A 
ATOM     17  C   UNL     1      -5.832  11.852  17.852  0.00  0.00    +0.000 A 
ATOM     18  F   UNL     1      -7.149  11.850  17.616  0.00  0.00    +0.000 F 
ATOM     19  C   UNL     1      -5.363  12.249  19.096  0.00  0.00    +0.000 A 
ATOM     20  C   UNL     1      -3.989  12.221  19.353  0.00  0.00    +0.000 A 
ENDBRANCH   3  14
BRANCH   1  24
ATOM     21  C   UNL     1       2.830   6.881  19.508  0.00  0.00    +0.000 A 
ATOM     22  C   UNL     1       2.005   7.416  20.486  0.00  0.00    +0.000 A 
ATOM     23  C   UNL     1       1.123   8.453  20.153  0.00  0.00    +0.000 A 
ATOM     24  C   UNL     1       1.077   9.001  18.853  0.00  0.00    +0.000 A 
ATOM     25  C   UNL     1       1.903   8.402  17.883  0.00  0.00    +0.000 A 
ATOM     26  C   UNL     1       2.766   7.348  18.203  0.00  0.00    +0.000 A 
BRANCH  21  27
ATOM     27  O   UNL     1       3.741   5.909  19.795  0.00  0.00    +0.000 OA
ATOM     28  H   UNL     1       3.722   5.243  19.089  0.00  0.00    +0.000 HD
ENDBRANCH  21  27
ENDBRANCH   1  24
BRANCH   9  29
ATOM     29  O   UNL     1       4.625  14.209  17.734  0.00  0.00    +0.000 OA
ATOM     30  H   UNL     1       4.658  13.277  17.456  0.00  0.00    +0.000 HD
ENDBRANCH   9  29
TORSDOF 4
ENDMDL
MODEL 7
REMARK VINA RESULT:      -7.7      3.611      6.498
REMARK  Name = 
REMARK  4 active torsions:
REMARK  status: ('A' for Active; 'I' for Inactive)
REMARK    1  A    between atoms: O_1  and  C_2
REMARK    2  A    between atoms: C_5  and  C_6
REMARK    3  A    between atoms: C_8  and  C_9
REMARK    4  A    between atoms: C_21  and  O_22
REMARK                            x       y       z     vdW  Elec       q    Type
REMARK                         _______ _______ _______ _____ _____    ______ ____
ROOT
ATOM      1  C   UNL     1      -0.639  10.707  18.388  0.00  0.00    +0.000 A 
ATOM      2  C   UNL     1       0.069   9.507  18.162  0.00  0.00    +0.000 A 
ATOM      3  C   UNL     1       1.470   9.476  18.171  0.00  0.00    +0.000 A 
ATOM      4  N   UNL     1       2.214  10.606  18.187  0.00  0.00    +0.000 NA
ATOM      5  C   UNL     1       1.519  11.714  18.469  0.00  0.00    +0.000 A 
ATOM      6  C   UNL     1       0.154  11.784  18.755  0.00  0.00    +0.000 A 
ATOM      7  C   UNL     1      -0.101  13.089  19.495  0.00  0.00    +0.000 C 
ATOM      8  C   UNL     1       1.216  13.835  19.313  0.00  0.00    +0.000 A 
ATOM      9  C   UNL     1       1.600  15.112  19.667  0.00  0.00    +0.000 A 
ATOM     10  C   UNL     1       2.804  15.620  19.174  0.00  0.00    +0.000 A 
ATOM     11  C   UNL     1       3.638  14.832  18.364  0.00  0.00    +0.000 A 
ATOM     12  C   UNL     1       3.310  13.502  18.105  0.00  0.00    +0.000 A 
ATOM     13  C   UNL     1       2.120  13.011  18.616  0.00  0.00    +0.000 A 
ENDROOT
BRANCH   3  14
ATOM     14  C   UNL     1       2.244   8.232  18.298  0.00  0.00    +0.000 A 
ATOM     15  C   UNL     1       3.261   7.914  17.379  0.00  0.00    +0.000 A 
ATOM     16  C   UNL     1       4.093   6.809  17.576  0.00  0.00    +0.000 A 
ATOM     17  C   UNL     1       3.916   6.009  18.697  0.00  0.00    +0.000 A 
ATOM     18  F   UNL     1       4.733   4.971  18.906  0.00  0.00    +0.000 F 
ATOM     19  C   UNL     1       2.919   6.289  19.622  0.00  0.00    +0.000 A 
ATOM     20  C   UNL     1       2.086   7.393  19.420  0.00  0.00    +0.000 A 
ENDBRANCH   3  14
BRANCH   1  24
ATOM     21  C   UNL     1      -4.640  11.507  17.068  0.00  0.00    +0.000 A 
ATOM     22  C   UNL     1      -3.777  10.810  16.235  0.00  0.00    +0.000 A 
ATOM     23  C   UNL     1      -2.513  10.436  16.708  0.00  0.00    +0.000 A 
ATOM     24  C   UNL     1      -2.071  10.783  18.003  0.00  0.00    +0.000 A 
ATOM     25  C   UNL     1      -2.993  11.456  18.828  0.00  0.00    +0.000 A 
ATOM     26  C   UNL     1      -4.267  11.808  18.369  0.00  0.00    +0.000 A 
BRANCH  21  27
ATOM     27  O   UNL     1      -5.858  11.939  16.636  0.00  0.00    +0.000 OA
ATOM     28  H   UNL     1      -6.094  12.747  17.119  0.00  0.00    +0.000 HD
ENDBRANCH  21  27
ENDBRANCH   1  24
BRANCH   9  29
ATOM     29  O   UNL     1       0.861  15.899  20.492  0.00  0.00    +0.000 OA
ATOM     30  H   UNL     1       1.472  16.330  21.114  0.00  0.00    +0.000 HD
ENDBRANCH   9  29
TORSDOF 4
ENDMDL
MODEL 8
REMARK VINA RESULT:      -7.5      5.475     10.421
REMARK  Name = 
REMARK  4 active torsions:
REMARK  status: ('A' for Active; 'I' for Inactive)
REMARK    1  A    between atoms: O_1  and  C_2
REMARK    2  A    between atoms: C_5  and  C_6
REMARK    3  A    between atoms: C_8  and  C_9
REMARK    4  A    between atoms: C_21  and  O_22
REMARK                            x       y       z     vdW  Elec       q    Type
REMARK                         _______ _______ _______ _____ _____    ______ ____
ROOT
ATOM      1  C   UNL     1       3.009   6.588  18.123  0.00  0.00    +0.000 A 
ATOM      2  C   UNL     1       3.926   6.533  17.050  0.00  0.00    +0.000 A 
ATOM      3  C   UNL     1       4.717   5.399  16.827  0.00  0.00    +0.000 A 
ATOM      4  N   UNL     1       4.801   4.391  17.726  0.00  0.00    +0.000 NA
ATOM      5  C   UNL     1       3.875   4.441  18.690  0.00  0.00    +0.000 A 
ATOM      6  C   UNL     1       2.864   5.395  18.818  0.00  0.00    +0.000 A 
ATOM      7  C   UNL     1       1.774   4.806  19.700  0.00  0.00    +0.000 C 
ATOM      8  C   UNL     1       2.444   3.557  20.263  0.00  0.00    +0.000 A 
ATOM      9  C   UNL     1       2.021   2.636  21.199  0.00  0.00    +0.000 A 
ATOM     10  C   UNL     1       2.936   1.706  21.697  0.00  0.00    +0.000 A 
ATOM     11  C   UNL     1       4.259   1.678  21.227  0.00  0.00    +0.000 A 
ATOM     12  C   UNL     1       4.655   2.528  20.195  0.00  0.00    +0.000 A 
ATOM     13  C   UNL     1       3.729   3.432  19.702  0.00  0.00    +0.000 A 
ENDROOT
BRANCH   3  14
ATOM     14  C   UNL     1       5.410   5.143  15.554  0.00  0.00    +0.000 A 
ATOM     15  C   UNL     1       6.749   5.533  15.368  0.00  0.00    +0.000 A 
ATOM     16  C   UNL     1       7.454   5.167  14.219  0.00  0.00    +0.000 A 
ATOM     17  C   UNL     1       6.826   4.403  13.243  0.00  0.00    +0.000 A 
ATOM     18  F   UNL     1       7.510   4.022  12.158  0.00  0.00    +0.000 F 
ATOM     19  C   UNL     1       5.505   4.006  13.391  0.00  0.00    +0.000 A 
ATOM     20  C   UNL     1       4.800   4.377  14.539  0.00  0.00    +0.000 A 
ENDBRANCH   3  14
BRANCH   1  24
ATOM     21  C   UNL     1       0.921  10.191  19.147  0.00  0.00    +0.000 A 
ATOM     22  C   UNL     1       1.107   9.215  20.116  0.00  0.00    +0.000 A 
ATOM     23  C   UNL     1       1.895   8.094  19.824  0.00  0.00    +0.000 A 
ATOM     24  C   UNL     1       2.479   7.906  18.553  0.00  0.00    +0.000 A 
ATOM     25  C   UNL     1       2.297   8.939  17.613  0.00  0.00    +0.000 A 
ATOM     26  C   UNL     1       1.533  10.073  17.908  0.00  0.00    +0.000 A 
BRANCH  21  27
ATOM     27  O   UNL     1       0.121  11.271  19.365  0.00  0.00    +0.000 OA
ATOM     28  H   UNL     1       0.660  12.076  19.317  0.00  0.00    +0.000 HD
ENDBRANCH  21  27
ENDBRANCH   1  24
BRANCH   9  29
ATOM     29  O   UNL     1       0.741   2.581  21.649  0.00  0.00    +0.000 OA
ATOM     30  H   UNL     1       0.274   3.364  21.309  0.00  0.00    +0.000 HD
ENDBRANCH   9  29
TORSDOF 4
ENDMDL
MODEL 9
REMARK VINA RESULT:      -7.4      2.458      2.995
REMARK  Name = 
REMARK  4 active torsions:
REMARK  status: ('A' for Active; 'I' for Inactive)
REMARK    1  A    between atoms: O_1  and  C_2
REMARK    2  A    between atoms: C_5  and  C_6
REMARK    3  A    between atoms: C_8  and  C_9
REMARK    4  A    between atoms: C_21  and  O_22
REMARK                            x       y       z     vdW  Elec       q    Type
REMARK                         _______ _______ _______ _____ _____    ______ ____
ROOT
ATOM      1  C   UNL     1       0.650  10.721  19.732  0.00  0.00    +0.000 A 
ATOM      2  C   UNL     1      -0.483  10.797  20.571  0.00  0.00    +0.000 A 
ATOM      3  C   UNL     1      -0.788  11.969  21.277  0.00  0.00    +0.000 A 
ATOM      4  N   UNL     1       0.078  13.005  21.359  0.00  0.00    +0.000 NA
ATOM      5  C   UNL     1       1.103  12.930  20.503  0.00  0.00    +0.000 A 
ATOM      6  C   UNL     1       1.323  11.923  19.562  0.00  0.00    +0.000 A 
ATOM      7  C   UNL     1       2.262  12.474  18.499  0.00  0.00    +0.000 C 
ATOM      8  C   UNL     1       2.747  13.775  19.129  0.00  0.00    +0.000 A 
ATOM      9  C   UNL     1       3.686  14.697  18.715  0.00  0.00    +0.000 A 
ATOM     10  C   UNL     1       4.098  15.692  19.604  0.00  0.00    +0.000 A 
ATOM     11  C   UNL     1       3.538  15.783  20.889  0.00  0.00    +0.000 A 
ATOM     12  C   UNL     1       2.504  14.928  21.266  0.00  0.00    +0.000 A 
ATOM     13  C   UNL     1       2.097  13.958  20.364  0.00  0.00    +0.000 A 
ENDROOT
BRANCH   3  14
ATOM     14  C   UNL     1      -2.110  12.228  21.868  0.00  0.00    +0.000 A 
ATOM     15  C   UNL     1      -2.339  12.032  23.242  0.00  0.00    +0.000 A 
ATOM     16  C   UNL     1      -3.547  12.410  23.833  0.00  0.00    +0.000 A 
ATOM     17  C   UNL     1      -4.539  12.991  23.054  0.00  0.00    +0.000 A 
ATOM     18  F   UNL     1      -5.683  13.386  23.624  0.00  0.00    +0.000 F 
ATOM     19  C   UNL     1      -4.350  13.194  21.694  0.00  0.00    +0.000 A 
ATOM     20  C   UNL     1      -3.142  12.810  21.104  0.00  0.00    +0.000 A 
ENDBRANCH   3  14
BRANCH   1  24
ATOM     21  C   UNL     1       2.665   7.106  18.611  0.00  0.00    +0.000 A 
ATOM     22  C   UNL     1       2.194   7.246  19.908  0.00  0.00    +0.000 A 
ATOM     23  C   UNL     1       1.426   8.368  20.246  0.00  0.00    +0.000 A 
ATOM     24  C   UNL     1       1.148   9.387  19.310  0.00  0.00    +0.000 A 
ATOM     25  C   UNL     1       1.612   9.186  17.996  0.00  0.00    +0.000 A 
ATOM     26  C   UNL     1       2.356   8.054  17.647  0.00  0.00    +0.000 A 
BRANCH  21  27
ATOM     27  O   UNL     1       3.460   6.060  18.248  0.00  0.00    +0.000 OA
ATOM     28  H   UNL     1       3.171   5.733  17.380  0.00  0.00    +0.000 HD
ENDBRANCH  21  27
ENDBRANCH   1  24
BRANCH   9  29
ATOM     29  O   UNL     1       4.220  14.691  17.466  0.00  0.00    +0.000 OA
ATOM     30  H   UNL     1       4.415  13.767  17.232  0.00  0.00    +0.000 HD
ENDBRANCH   9  29
TORSDOF 4
ENDMDL
