MODEL 1
REMARK VINA RESULT:      -6.5      0.000      0.000
REMARK  Name = 
REMARK  1 active torsions:
REMARK  status: ('A' for Active; 'I' for Inactive)
REMARK    1  A    between atoms: C_7  and  C_8
REMARK                            x       y       z     vdW  Elec       q    Type
REMARK                         _______ _______ _______ _____ _____    ______ ____
ROOT
ATOM      1  O   UNL     1       8.269   4.204  17.333  0.00  0.00    +0.000 OA
ATOM      2  C   UNL     1       7.178   4.716  17.158  0.00  0.00    +0.000 C 
ATOM      3  N   UNL     1       6.866   5.615  16.191  0.00  0.00    +0.000 N 
ATOM      4  C   UNL     1       5.595   6.100  16.149  0.00  0.00    +0.000 C 
ATOM      5  O   UNL     1       5.180   6.912  15.339  0.00  0.00    +0.000 OA
ATOM      6  C   UNL     1       4.788   5.495  17.243  0.00  0.00    +0.000 C 
ATOM      7  C   UNL     1       3.504   5.817  17.445  0.00  0.00    +0.000 C 
ATOM      8  S   UNL     1       5.763   4.393  18.142  0.00  0.00    +0.000 S 
ATOM      9  H   UNL     1       7.563   5.922  15.532  0.00  0.00    +0.000 HD
ENDROOT
BRANCH   7  10
ATOM     10  C   UNL     1       2.665   5.272  18.510  0.00  0.00    +0.000 A 
ATOM     11  C   UNL     1       2.592   5.844  19.767  0.00  0.00    +0.000 A 
ATOM     12  N   UNL     1       1.846   5.350  20.776  0.00  0.00    +0.000 NA
ATOM     13  C   UNL     1       1.151   4.236  20.496  0.00  0.00    +0.000 A 
ATOM     14  N   UNL     1       1.132   3.596  19.317  0.00  0.00    +0.000 NA
ATOM     15  C   UNL     1       1.897   4.136  18.345  0.00  0.00    +0.000 A 
ENDBRANCH   7  10
TORSDOF 1
ENDMDL
MODEL 2
REMARK VINA RESULT:      -6.4      1.855      2.284
REMARK  Name = 
REMARK  1 active torsions:
REMARK  status: ('A' for Active; 'I' for Inactive)
REMARK    1  A    between atoms: C_7  and  C_8
REMARK                            x       y       z     vdW  Elec       q    Type
REMARK                         _______ _______ _______ _____ _____    ______ ____
ROOT
ATOM      1  O   UNL     1       8.100   6.988  18.631  0.00  0.00    +0.000 OA
ATOM      2  C   UNL     1       7.365   6.347  17.903  0.00  0.00    +0.000 C 
ATOM      3  N   UNL     1       7.478   6.236  16.555  0.00  0.00    +0.000 N 
ATOM      4  C   UNL     1       6.556   5.486  15.891  0.00  0.00    +0.000 C 
ATOM      5  O   UNL     1       6.536   5.305  14.686  0.00  0.00    +0.000 OA
ATOM      6  C   UNL     1       5.573   4.926  16.857  0.00  0.00    +0.000 C 
ATOM      7  C   UNL     1       4.541   4.167  16.465  0.00  0.00    +0.000 C 
ATOM      8  S   UNL     1       5.981   5.422  18.457  0.00  0.00    +0.000 S 
ATOM      9  H   UNL     1       8.219   6.707  16.062  0.00  0.00    +0.000 HD
ENDROOT
BRANCH   7  10
ATOM     10  C   UNL     1       3.534   3.603  17.361  0.00  0.00    +0.000 A 
ATOM     11  C   UNL     1       3.654   2.343  17.917  0.00  0.00    +0.000 A 
ATOM     12  N   UNL     1       2.730   1.787  18.730  0.00  0.00    +0.000 NA
ATOM     13  C   UNL     1       1.649   2.541  18.982  0.00  0.00    +0.000 A 
ATOM     14  N   UNL     1       1.423   3.777  18.512  0.00  0.00    +0.000 NA
ATOM     15  C   UNL     1       2.381   4.282  17.706  0.00  0.00    +0.000 A 
ENDBRANCH   7  10
TORSDOF 1
ENDMDL
MODEL 3
REMARK VINA RESULT:      -6.4      1.752      2.742
REMARK  Name = 
REMARK  1 active torsions:
REMARK  status: ('A' for Active; 'I' for Inactive)
REMARK    1  A    between atoms: C_7  and  C_8
REMARK                            x       y       z     vdW  Elec       q    Type
REMARK                         _______ _______ _______ _____ _____    ______ ____
ROOT
ATOM      1  O   UNL     1       7.051   5.272  14.234  0.00  0.00    +0.000 OA
ATOM      2  C   UNL     1       6.813   5.012  15.399  0.00  0.00    +0.000 C 
ATOM      3  N   UNL     1       7.704   5.050  16.421  0.00  0.00    +0.000 N 
ATOM      4  C   UNL     1       7.269   4.713  17.667  0.00  0.00    +0.000 C 
ATOM      5  O   UNL     1       7.960   4.701  18.672  0.00  0.00    +0.000 OA
ATOM      6  C   UNL     1       5.825   4.358  17.618  0.00  0.00    +0.000 C 
ATOM      7  C   UNL     1       5.150   3.964  18.706  0.00  0.00    +0.000 C 
ATOM      8  S   UNL     1       5.241   4.523  16.004  0.00  0.00    +0.000 S 
ATOM      9  H   UNL     1       8.663   5.309  16.257  0.00  0.00    +0.000 HD
ENDROOT
BRANCH   7  10
ATOM     10  C   UNL     1       3.739   3.586  18.718  0.00  0.00    +0.000 A 
ATOM     11  C   UNL     1       3.312   2.295  18.470  0.00  0.00    +0.000 A 
ATOM     12  N   UNL     1       2.015   1.921  18.452  0.00  0.00    +0.000 NA
ATOM     13  C   UNL     1       1.125   2.895  18.695  0.00  0.00    +0.000 A 
ATOM     14  N   UNL     1       1.415   4.179  18.959  0.00  0.00    +0.000 NA
ATOM     15  C   UNL     1       2.727   4.494  18.964  0.00  0.00    +0.000 A 
ENDBRANCH   7  10
TORSDOF 1
ENDMDL
MODEL 4
REMARK VINA RESULT:      -6.4      1.842      2.125
REMARK  Name = 
REMARK  1 active torsions:
REMARK  status: ('A' for Active; 'I' for Inactive)
REMARK    1  A    between atoms: C_7  and  C_8
REMARK                            x       y       z     vdW  Elec       q    Type
REMARK                         _______ _______ _______ _____ _____    ______ ____
ROOT
ATOM      1  O   UNL     1       8.125   6.897  18.742  0.00  0.00    +0.000 OA
ATOM      2  C   UNL     1       7.380   6.296  17.989  0.00  0.00    +0.000 C 
ATOM      3  N   UNL     1       7.489   6.241  16.638  0.00  0.00    +0.000 N 
ATOM      4  C   UNL     1       6.556   5.530  15.946  0.00  0.00    +0.000 C 
ATOM      5  O   UNL     1       6.531   5.399  14.734  0.00  0.00    +0.000 OA
ATOM      6  C   UNL     1       5.568   4.942  16.890  0.00  0.00    +0.000 C 
ATOM      7  C   UNL     1       4.526   4.213  16.470  0.00  0.00    +0.000 C 
ATOM      8  S   UNL     1       5.987   5.367  18.508  0.00  0.00    +0.000 S 
ATOM      9  H   UNL     1       8.235   6.722  16.163  0.00  0.00    +0.000 HD
ENDROOT
BRANCH   7  10
ATOM     10  C   UNL     1       3.514   3.624  17.344  0.00  0.00    +0.000 A 
ATOM     11  C   UNL     1       2.350   4.287  17.687  0.00  0.00    +0.000 A 
ATOM     12  N   UNL     1       1.409   3.779  18.510  0.00  0.00    +0.000 NA
ATOM     13  C   UNL     1       1.664   2.555  19.000  0.00  0.00    +0.000 A 
ATOM     14  N   UNL     1       2.747   1.810  18.734  0.00  0.00    +0.000 NA
ATOM     15  C   UNL     1       3.654   2.370  17.905  0.00  0.00    +0.000 A 
ENDBRANCH   7  10
TORSDOF 1
ENDMDL
MODEL 5
REMARK VINA RESULT:      -6.4      1.834      2.514
REMARK  Name = 
REMARK  1 active torsions:
REMARK  status: ('A' for Active; 'I' for Inactive)
REMARK    1  A    between atoms: C_7  and  C_8
REMARK                            x       y       z     vdW  Elec       q    Type
REMARK                         _______ _______ _______ _____ _____    ______ ____
ROOT
ATOM      1  O   UNL     1       7.346   5.124  14.629  0.00  0.00    +0.000 OA
ATOM      2  C   UNL     1       6.996   4.960  15.784  0.00  0.00    +0.000 C 
ATOM      3  N   UNL     1       7.757   5.179  16.885  0.00  0.00    +0.000 N 
ATOM      4  C   UNL     1       7.208   4.929  18.106  0.00  0.00    +0.000 C 
ATOM      5  O   UNL     1       7.777   5.079  19.175  0.00  0.00    +0.000 OA
ATOM      6  C   UNL     1       5.813   4.441  17.942  0.00  0.00    +0.000 C 
ATOM      7  C   UNL     1       5.049   4.096  18.987  0.00  0.00    +0.000 C 
ATOM      8  S   UNL     1       5.408   4.392  16.266  0.00  0.00    +0.000 S 
ATOM      9  H   UNL     1       8.705   5.507  16.797  0.00  0.00    +0.000 HD
ENDROOT
BRANCH   7  10
ATOM     10  C   UNL     1       3.680   3.594  18.889  0.00  0.00    +0.000 A 
ATOM     11  C   UNL     1       2.585   4.432  18.799  0.00  0.00    +0.000 A 
ATOM     12  N   UNL     1       1.309   3.998  18.730  0.00  0.00    +0.000 NA
ATOM     13  C   UNL     1       1.145   2.666  18.755  0.00  0.00    +0.000 A 
ATOM     14  N   UNL     1       2.125   1.753  18.829  0.00  0.00    +0.000 NA
ATOM     15  C   UNL     1       3.380   2.246  18.895  0.00  0.00    +0.000 A 
ENDBRANCH   7  10
TORSDOF 1
ENDMDL
MODEL 6
REMARK VINA RESULT:      -6.2      2.348      3.034
REMARK  Name = 
REMARK  1 active torsions:
REMARK  status: ('A' for Active; 'I' for Inactive)
REMARK    1  A    between atoms: C_7  and  C_8
REMARK                            x       y       z     vdW  Elec       q    Type
REMARK                         _______ _______ _______ _____ _____    ______ ____
ROOT
ATOM      1  O   UNL     1       7.917   8.179  16.964  0.00  0.00    +0.000 OA
ATOM      2  C   UNL     1       7.470   7.309  17.690  0.00  0.00    +0.000 C 
ATOM      3  N   UNL     1       8.108   6.749  18.748  0.00  0.00    +0.000 N 
ATOM      4  C   UNL     1       7.463   5.773  19.445  0.00  0.00    +0.000 C 
ATOM      5  O   UNL     1       7.918   5.184  20.412  0.00  0.00    +0.000 OA
ATOM      6  C   UNL     1       6.123   5.529  18.848  0.00  0.00    +0.000 C 
ATOM      7  C   UNL     1       5.287   4.599  19.328  0.00  0.00    +0.000 C 
ATOM      8  S   UNL     1       5.882   6.586  17.508  0.00  0.00    +0.000 S 
ATOM      9  H   UNL     1       9.038   7.042  19.000  0.00  0.00    +0.000 HD
ENDROOT
BRANCH   7  10
ATOM     10  C   UNL     1       3.967   4.301  18.776  0.00  0.00    +0.000 A 
ATOM     11  C   UNL     1       2.797   4.744  19.363  0.00  0.00    +0.000 A 
ATOM     12  N   UNL     1       1.564   4.466  18.889  0.00  0.00    +0.000 NA
ATOM     13  C   UNL     1       1.524   3.710  17.780  0.00  0.00    +0.000 A 
ATOM     14  N   UNL     1       2.586   3.231  17.115  0.00  0.00    +0.000 NA
ATOM     15  C   UNL     1       3.792   3.541  17.635  0.00  0.00    +0.000 A 
ENDBRANCH   7  10
TORSDOF 1
ENDMDL
MODEL 7
REMARK VINA RESULT:      -6.1      2.139      2.369
REMARK  Name = 
REMARK  1 active torsions:
REMARK  status: ('A' for Active; 'I' for Inactive)
REMARK    1  A    between atoms: C_7  and  C_8
REMARK                            x       y       z     vdW  Elec       q    Type
REMARK                         _______ _______ _______ _____ _____    ______ ____
ROOT
ATOM      1  O   UNL     1       7.581   4.795  14.089  0.00  0.00    +0.000 OA
ATOM      2  C   UNL     1       7.054   5.012  15.165  0.00  0.00    +0.000 C 
ATOM      3  N   UNL     1       7.492   5.888  16.104  0.00  0.00    +0.000 N 
ATOM      4  C   UNL     1       6.786   5.996  17.263  0.00  0.00    +0.000 C 
ATOM      5  O   UNL     1       7.066   6.738  18.189  0.00  0.00    +0.000 OA
ATOM      6  C   UNL     1       5.622   5.069  17.232  0.00  0.00    +0.000 C 
ATOM      7  C   UNL     1       4.772   4.957  18.261  0.00  0.00    +0.000 C 
ATOM      8  S   UNL     1       5.597   4.219  15.732  0.00  0.00    +0.000 S 
ATOM      9  H   UNL     1       8.324   6.434  15.948  0.00  0.00    +0.000 HD
ENDROOT
BRANCH   7  10
ATOM     10  C   UNL     1       3.624   4.054  18.298  0.00  0.00    +0.000 A 
ATOM     11  C   UNL     1       2.376   4.416  17.826  0.00  0.00    +0.000 A 
ATOM     12  N   UNL     1       1.293   3.612  17.867  0.00  0.00    +0.000 NA
ATOM     13  C   UNL     1       1.488   2.399  18.409  0.00  0.00    +0.000 A 
ATOM     14  N   UNL     1       2.650   1.930  18.890  0.00  0.00    +0.000 NA
ATOM     15  C   UNL     1       3.698   2.777  18.822  0.00  0.00    +0.000 A 
ENDBRANCH   7  10
TORSDOF 1
ENDMDL
MODEL 8
REMARK VINA RESULT:      -6.1      2.881      5.573
REMARK  Name = 
REMARK  1 active torsions:
REMARK  status: ('A' for Active; 'I' for Inactive)
REMARK    1  A    between atoms: C_7  and  C_8
REMARK                            x       y       z     vdW  Elec       q    Type
REMARK                         _______ _______ _______ _____ _____    ______ ____
ROOT
ATOM      1  O   UNL     1       0.407   2.157  18.431  0.00  0.00    +0.000 OA
ATOM      2  C   UNL     1       1.206   3.051  18.640  0.00  0.00    +0.000 C 
ATOM      3  N   UNL     1       1.112   3.991  19.614  0.00  0.00    +0.000 N 
ATOM      4  C   UNL     1       2.094   4.931  19.697  0.00  0.00    +0.000 C 
ATOM      5  O   UNL     1       2.134   5.832  20.518  0.00  0.00    +0.000 OA
ATOM      6  C   UNL     1       3.106   4.698  18.633  0.00  0.00    +0.000 C 
ATOM      7  C   UNL     1       4.170   5.497  18.472  0.00  0.00    +0.000 C 
ATOM      8  S   UNL     1       2.666   3.314  17.704  0.00  0.00    +0.000 S 
ATOM      9  H   UNL     1       0.331   3.995  20.249  0.00  0.00    +0.000 HD
ENDROOT
BRANCH   7  10
ATOM     10  C   UNL     1       5.187   5.332  17.437  0.00  0.00    +0.000 A 
ATOM     11  C   UNL     1       6.375   4.660  17.661  0.00  0.00    +0.000 A 
ATOM     12  N   UNL     1       7.342   4.511  16.731  0.00  0.00    +0.000 NA
ATOM     13  C   UNL     1       7.090   5.065  15.535  0.00  0.00    +0.000 A 
ATOM     14  N   UNL     1       5.975   5.729  15.194  0.00  0.00    +0.000 NA
ATOM     15  C   UNL     1       5.043   5.846  16.163  0.00  0.00    +0.000 A 
ENDBRANCH   7  10
TORSDOF 1
ENDMDL
MODEL 9
REMARK VINA RESULT:      -6.0      2.866      5.586
REMARK  Name = 
REMARK  1 active torsions:
REMARK  status: ('A' for Active; 'I' for Inactive)
REMARK    1  A    between atoms: C_7  and  C_8
REMARK                            x       y       z     vdW  Elec       q    Type
REMARK                         _______ _______ _______ _____ _____    ______ ____
ROOT
ATOM      1  O   UNL     1       0.439   2.149  18.453  0.00  0.00    +0.000 OA
ATOM      2  C   UNL     1       1.220   3.065  18.639  0.00  0.00    +0.000 C 
ATOM      3  N   UNL     1       1.099   4.036  19.578  0.00  0.00    +0.000 N 
ATOM      4  C   UNL     1       2.063   4.997  19.637  0.00  0.00    +0.000 C 
ATOM      5  O   UNL     1       2.078   5.927  20.426  0.00  0.00    +0.000 OA
ATOM      6  C   UNL     1       3.091   4.745  18.592  0.00  0.00    +0.000 C 
ATOM      7  C   UNL     1       4.142   5.556  18.415  0.00  0.00    +0.000 C 
ATOM      8  S   UNL     1       2.685   3.320  17.710  0.00  0.00    +0.000 S 
ATOM      9  H   UNL     1       0.311   4.049  20.204  0.00  0.00    +0.000 HD
ENDROOT
BRANCH   7  10
ATOM     10  C   UNL     1       5.174   5.372  17.397  0.00  0.00    +0.000 A 
ATOM     11  C   UNL     1       5.044   5.859  16.109  0.00  0.00    +0.000 A 
ATOM     12  N   UNL     1       5.969   5.685  15.142  0.00  0.00    +0.000 NA
ATOM     13  C   UNL     1       7.062   4.992  15.499  0.00  0.00    +0.000 A 
ATOM     14  N   UNL     1       7.307   4.480  16.715  0.00  0.00    +0.000 NA
ATOM     15  C   UNL     1       6.347   4.685  17.642  0.00  0.00    +0.000 A 
ENDBRANCH   7  10
TORSDOF 1
ENDMDL
