MODEL 1
REMARK VINA RESULT:      -8.0      0.000      0.000
REMARK  Name = 
REMARK  3 active torsions:
REMARK  status: ('A' for Active; 'I' for Inactive)
REMARK    1  A    between atoms: C_4  and  C_5
REMARK    2  A    between atoms: C_8  and  C_9
REMARK    3  A    between atoms: C_12  and  C_13
REMARK                            x       y       z     vdW  Elec       q    Type
REMARK                         _______ _______ _______ _____ _____    ______ ____
ROOT
ATOM      1  C   UNL     1       1.058   8.486  20.521  0.00  0.00    +0.000 A 
ATOM      2  N   UNL     1       1.603   8.785  19.323  0.00  0.00    +0.000 NA
ATOM      3  C   UNL     1       2.273   7.792  18.694  0.00  0.00    +0.000 A 
ATOM      4  C   UNL     1       2.434   6.524  19.207  0.00  0.00    +0.000 A 
ATOM      5  C   UNL     1       1.817   6.320  20.425  0.00  0.00    +0.000 A 
ATOM      6  N   UNL     1       1.135   7.270  21.100  0.00  0.00    +0.000 NA
ENDROOT
BRANCH   1  10
ATOM      7  C   UNL     1      -0.890  11.644  22.709  0.00  0.00    +0.000 A 
ATOM      8  C   UNL     1      -0.263  11.917  21.497  0.00  0.00    +0.000 A 
ATOM      9  C   UNL     1       0.356  10.887  20.782  0.00  0.00    +0.000 A 
ATOM     10  C   UNL     1       0.369   9.563  21.259  0.00  0.00    +0.000 A 
ATOM     11  C   UNL     1      -0.285   9.316  22.481  0.00  0.00    +0.000 A 
ATOM     12  C   UNL     1      -0.905  10.342  23.200  0.00  0.00    +0.000 A 
ENDBRANCH   1  10
BRANCH   4  13
ATOM     13  C   UNL     1       3.175   5.502  18.500  0.00  0.00    +0.000 A 
ATOM     14  C   UNL     1       3.077   4.151  18.763  0.00  0.00    +0.000 A 
ATOM     15  S   UNL     1       4.088   3.272  17.698  0.00  0.00    +0.000 S 
ATOM     16  C   UNL     1       4.588   4.747  16.956  0.00  0.00    +0.000 A 
ATOM     17  N   UNL     1       4.073   5.834  17.499  0.00  0.00    +0.000 NA
BRANCH  16  18
ATOM     18  C   UNL     1       5.542   4.752  15.842  0.00  0.00    +0.000 A 
ATOM     19  C   UNL     1       5.302   3.977  14.701  0.00  0.00    +0.000 A 
ATOM     20  C   UNL     1       6.212   3.981  13.643  0.00  0.00    +0.000 A 
ATOM     21  C   UNL     1       7.351   4.758  13.761  0.00  0.00    +0.000 A 
ATOM     22  N   UNL     1       7.633   5.511  14.844  0.00  0.00    +0.000 NA
ATOM     23  C   UNL     1       6.727   5.486  15.854  0.00  0.00    +0.000 A 
ENDBRANCH  16  18
ENDBRANCH   4  13
TORSDOF 3
ENDMDL
MODEL 2
REMARK VINA RESULT:      -7.9      0.432      1.071
REMARK  Name = 
REMARK  3 active torsions:
REMARK  status: ('A' for Active; 'I' for Inactive)
REMARK    1  A    between atoms: C_4  and  C_5
REMARK    2  A    between atoms: C_8  and  C_9
REMARK    3  A    between atoms: C_12  and  C_13
REMARK                            x       y       z     vdW  Elec       q    Type
REMARK                         _______ _______ _______ _____ _____    ______ ____
ROOT
ATOM      1  C   UNL     1       1.208   8.311  20.301  0.00  0.00    +0.000 A 
ATOM      2  N   UNL     1       1.349   7.086  20.850  0.00  0.00    +0.000 NA
ATOM      3  C   UNL     1       2.047   6.175  20.133  0.00  0.00    +0.000 A 
ATOM      4  C   UNL     1       2.598   6.425  18.895  0.00  0.00    +0.000 A 
ATOM      5  C   UNL     1       2.413   7.714  18.439  0.00  0.00    +0.000 A 
ATOM      6  N   UNL     1       1.727   8.666  19.108  0.00  0.00    +0.000 NA
ENDROOT
BRANCH   1  10
ATOM      7  C   UNL     1      -1.080  11.265  22.446  0.00  0.00    +0.000 A 
ATOM      8  C   UNL     1      -0.795  11.447  21.096  0.00  0.00    +0.000 A 
ATOM      9  C   UNL     1      -0.064  10.479  20.398  0.00  0.00    +0.000 A 
ATOM     10  C   UNL     1       0.403   9.311  21.031  0.00  0.00    +0.000 A 
ATOM     11  C   UNL     1       0.087   9.149  22.393  0.00  0.00    +0.000 A 
ATOM     12  C   UNL     1      -0.643  10.114  23.094  0.00  0.00    +0.000 A 
ENDBRANCH   1  10
BRANCH   4  13
ATOM     13  C   UNL     1       3.322   5.408  18.162  0.00  0.00    +0.000 A 
ATOM     14  C   UNL     1       3.216   4.054  18.407  0.00  0.00    +0.000 A 
ATOM     15  S   UNL     1       4.206   3.184  17.316  0.00  0.00    +0.000 S 
ATOM     16  C   UNL     1       4.710   4.665  16.590  0.00  0.00    +0.000 A 
ATOM     17  N   UNL     1       4.211   5.748  17.156  0.00  0.00    +0.000 NA
BRANCH  16  18
ATOM     18  C   UNL     1       5.650   4.680  15.465  0.00  0.00    +0.000 A 
ATOM     19  C   UNL     1       5.426   3.869  14.345  0.00  0.00    +0.000 A 
ATOM     20  C   UNL     1       6.324   3.882  13.277  0.00  0.00    +0.000 A 
ATOM     21  C   UNL     1       7.433   4.704  13.362  0.00  0.00    +0.000 A 
ATOM     22  N   UNL     1       7.698   5.493  14.423  0.00  0.00    +0.000 NA
ATOM     23  C   UNL     1       6.806   5.458  15.445  0.00  0.00    +0.000 A 
ENDBRANCH  16  18
ENDBRANCH   4  13
TORSDOF 3
ENDMDL
MODEL 3
REMARK VINA RESULT:      -7.9      0.977      1.406
REMARK  Name = 
REMARK  3 active torsions:
REMARK  status: ('A' for Active; 'I' for Inactive)
REMARK    1  A    between atoms: C_4  and  C_5
REMARK    2  A    between atoms: C_8  and  C_9
REMARK    3  A    between atoms: C_12  and  C_13
REMARK                            x       y       z     vdW  Elec       q    Type
REMARK                         _______ _______ _______ _____ _____    ______ ____
ROOT
ATOM      1  C   UNL     1       0.643   9.288  20.521  0.00  0.00    +0.000 A 
ATOM      2  N   UNL     1       1.134   9.369  19.266  0.00  0.00    +0.000 NA
ATOM      3  C   UNL     1       1.927   8.353  18.857  0.00  0.00    +0.000 A 
ATOM      4  C   UNL     1       2.262   7.271  19.641  0.00  0.00    +0.000 A 
ATOM      5  C   UNL     1       1.688   7.277  20.896  0.00  0.00    +0.000 A 
ATOM      6  N   UNL     1       0.888   8.262  21.361  0.00  0.00    +0.000 NA
ENDROOT
BRANCH   1  10
ATOM      7  C   UNL     1      -1.816  12.516  21.970  0.00  0.00    +0.000 A 
ATOM      8  C   UNL     1      -1.276  11.594  22.861  0.00  0.00    +0.000 A 
ATOM      9  C   UNL     1      -0.467  10.555  22.390  0.00  0.00    +0.000 A 
ATOM     10  C   UNL     1      -0.180  10.409  21.019  0.00  0.00    +0.000 A 
ATOM     11  C   UNL     1      -0.728  11.365  20.143  0.00  0.00    +0.000 A 
ATOM     12  C   UNL     1      -1.539  12.405  20.610  0.00  0.00    +0.000 A 
ENDBRANCH   1  10
BRANCH   4  13
ATOM     13  C   UNL     1       3.130   6.218  19.159  0.00  0.00    +0.000 A 
ATOM     14  C   UNL     1       3.280   4.993  19.777  0.00  0.00    +0.000 A 
ATOM     15  S   UNL     1       4.369   4.018  18.888  0.00  0.00    +0.000 S 
ATOM     16  C   UNL     1       4.568   5.289  17.738  0.00  0.00    +0.000 A 
ATOM     17  N   UNL     1       3.904   6.393  18.024  0.00  0.00    +0.000 NA
BRANCH  16  18
ATOM     18  C   UNL     1       5.447   5.130  16.575  0.00  0.00    +0.000 A 
ATOM     19  C   UNL     1       5.068   4.305  15.509  0.00  0.00    +0.000 A 
ATOM     20  C   UNL     1       5.907   4.154  14.404  0.00  0.00    +0.000 A 
ATOM     21  C   UNL     1       7.115   4.829  14.400  0.00  0.00    +0.000 A 
ATOM     22  N   UNL     1       7.529   5.624  15.407  0.00  0.00    +0.000 NA
ATOM     23  C   UNL     1       6.690   5.751  16.466  0.00  0.00    +0.000 A 
ENDBRANCH  16  18
ENDBRANCH   4  13
TORSDOF 3
ENDMDL
MODEL 4
REMARK VINA RESULT:      -7.7      4.892      7.318
REMARK  Name = 
REMARK  3 active torsions:
REMARK  status: ('A' for Active; 'I' for Inactive)
REMARK    1  A    between atoms: C_4  and  C_5
REMARK    2  A    between atoms: C_8  and  C_9
REMARK    3  A    between atoms: C_12  and  C_13
REMARK                            x       y       z     vdW  Elec       q    Type
REMARK                         _______ _______ _______ _____ _____    ______ ____
ROOT
ATOM      1  C   UNL     1       8.607   9.256  18.535  0.00  0.00    +0.000 A 
ATOM      2  N   UNL     1       7.678   9.447  17.575  0.00  0.00    +0.000 NA
ATOM      3  C   UNL     1       6.993   8.355  17.165  0.00  0.00    +0.000 A 
ATOM      4  C   UNL     1       7.199   7.084  17.657  0.00  0.00    +0.000 A 
ATOM      5  C   UNL     1       8.155   7.007  18.650  0.00  0.00    +0.000 A 
ATOM      6  N   UNL     1       8.870   8.060  19.101  0.00  0.00    +0.000 NA
ENDROOT
BRANCH   1  10
ATOM      7  C   UNL     1      11.013  12.601  19.792  0.00  0.00    +0.000 A 
ATOM      8  C   UNL     1      10.947  12.255  18.446  0.00  0.00    +0.000 A 
ATOM      9  C   UNL     1      10.154  11.177  18.039  0.00  0.00    +0.000 A 
ATOM     10  C   UNL     1       9.412  10.417  18.964  0.00  0.00    +0.000 A 
ATOM     11  C   UNL     1       9.488  10.801  20.316  0.00  0.00    +0.000 A 
ATOM     12  C   UNL     1      10.280  11.878  20.728  0.00  0.00    +0.000 A 
ENDBRANCH   1  10
BRANCH   4  13
ATOM     13  C   UNL     1       6.450   5.946  17.171  0.00  0.00    +0.000 A 
ATOM     14  C   UNL     1       6.792   5.212  16.054  0.00  0.00    +0.000 A 
ATOM     15  S   UNL     1       5.675   3.936  15.827  0.00  0.00    +0.000 S 
ATOM     16  C   UNL     1       4.809   4.444  17.230  0.00  0.00    +0.000 A 
ATOM     17  N   UNL     1       5.292   5.528  17.807  0.00  0.00    +0.000 NA
BRANCH  16  18
ATOM     18  C   UNL     1       3.614   3.726  17.687  0.00  0.00    +0.000 A 
ATOM     19  C   UNL     1       2.384   4.389  17.779  0.00  0.00    +0.000 A 
ATOM     20  C   UNL     1       1.249   3.705  18.216  0.00  0.00    +0.000 A 
ATOM     21  C   UNL     1       1.378   2.371  18.560  0.00  0.00    +0.000 A 
ATOM     22  N   UNL     1       2.543   1.694  18.500  0.00  0.00    +0.000 NA
ATOM     23  C   UNL     1       3.627   2.387  18.070  0.00  0.00    +0.000 A 
ENDBRANCH  16  18
ENDBRANCH   4  13
TORSDOF 3
ENDMDL
MODEL 5
REMARK VINA RESULT:      -7.6      1.108      1.555
REMARK  Name = 
REMARK  3 active torsions:
REMARK  status: ('A' for Active; 'I' for Inactive)
REMARK    1  A    between atoms: C_4  and  C_5
REMARK    2  A    between atoms: C_8  and  C_9
REMARK    3  A    between atoms: C_12  and  C_13
REMARK                            x       y       z     vdW  Elec       q    Type
REMARK                         _______ _______ _______ _____ _____    ______ ____
ROOT
ATOM      1  C   UNL     1       0.631   9.334  20.561  0.00  0.00    +0.000 A 
ATOM      2  N   UNL     1       0.856   8.311  21.412  0.00  0.00    +0.000 NA
ATOM      3  C   UNL     1       1.655   7.314  20.968  0.00  0.00    +0.000 A 
ATOM      4  C   UNL     1       2.229   7.285  19.715  0.00  0.00    +0.000 A 
ATOM      5  C   UNL     1       1.953   8.390  18.937  0.00  0.00    +0.000 A 
ATOM      6  N   UNL     1       1.163   9.416  19.325  0.00  0.00    +0.000 NA
ENDROOT
BRANCH   1  10
ATOM      7  C   UNL     1      -1.979  12.519  21.826  0.00  0.00    +0.000 A 
ATOM      8  C   UNL     1      -1.707  12.334  20.474  0.00  0.00    +0.000 A 
ATOM      9  C   UNL     1      -0.871  11.290  20.065  0.00  0.00    +0.000 A 
ATOM     10  C   UNL     1      -0.282  10.410  20.994  0.00  0.00    +0.000 A 
ATOM     11  C   UNL     1      -0.587  10.616  22.353  0.00  0.00    +0.000 A 
ATOM     12  C   UNL     1      -1.422  11.658  22.767  0.00  0.00    +0.000 A 
ENDBRANCH   1  10
BRANCH   4  13
ATOM     13  C   UNL     1       3.063   6.184  19.284  0.00  0.00    +0.000 A 
ATOM     14  C   UNL     1       3.132   4.965  19.927  0.00  0.00    +0.000 A 
ATOM     15  S   UNL     1       4.208   3.925  19.096  0.00  0.00    +0.000 S 
ATOM     16  C   UNL     1       4.510   5.165  17.935  0.00  0.00    +0.000 A 
ATOM     17  N   UNL     1       3.888   6.304  18.177  0.00  0.00    +0.000 NA
BRANCH  16  18
ATOM     18  C   UNL     1       5.425   4.946  16.809  0.00  0.00    +0.000 A 
ATOM     19  C   UNL     1       4.922   4.730  15.520  0.00  0.00    +0.000 A 
ATOM     20  C   UNL     1       5.793   4.519  14.452  0.00  0.00    +0.000 A 
ATOM     21  C   UNL     1       7.154   4.521  14.704  0.00  0.00    +0.000 A 
ATOM     22  N   UNL     1       7.686   4.712  15.929  0.00  0.00    +0.000 NA
ATOM     23  C   UNL     1       6.812   4.915  16.947  0.00  0.00    +0.000 A 
ENDBRANCH  16  18
ENDBRANCH   4  13
TORSDOF 3
ENDMDL
MODEL 6
REMARK VINA RESULT:      -7.5      1.327      2.028
REMARK  Name = 
REMARK  3 active torsions:
REMARK  status: ('A' for Active; 'I' for Inactive)
REMARK    1  A    between atoms: C_4  and  C_5
REMARK    2  A    between atoms: C_8  and  C_9
REMARK    3  A    between atoms: C_12  and  C_13
REMARK                            x       y       z     vdW  Elec       q    Type
REMARK                         _______ _______ _______ _____ _____    ______ ____
ROOT
ATOM      1  C   UNL     1       0.457   9.849  19.994  0.00  0.00    +0.000 A 
ATOM      2  N   UNL     1       0.776   8.951  20.950  0.00  0.00    +0.000 NA
ATOM      3  C   UNL     1       1.592   7.937  20.585  0.00  0.00    +0.000 A 
ATOM      4  C   UNL     1       2.095   7.770  19.313  0.00  0.00    +0.000 A 
ATOM      5  C   UNL     1       1.725   8.756  18.421  0.00  0.00    +0.000 A 
ATOM      6  N   UNL     1       0.914   9.792  18.726  0.00  0.00    +0.000 NA
ENDROOT
BRANCH   1  10
ATOM      7  C   UNL     1      -2.316  12.973  21.045  0.00  0.00    +0.000 A 
ATOM      8  C   UNL     1      -1.369  12.540  21.968  0.00  0.00    +0.000 A 
ATOM      9  C   UNL     1      -0.461  11.535  21.619  0.00  0.00    +0.000 A 
ATOM     10  C   UNL     1      -0.478  10.936  20.345  0.00  0.00    +0.000 A 
ATOM     11  C   UNL     1      -1.439  11.406  19.429  0.00  0.00    +0.000 A 
ATOM     12  C   UNL     1      -2.349  12.409  19.773  0.00  0.00    +0.000 A 
ENDBRANCH   1  10
BRANCH   4  13
ATOM     13  C   UNL     1       2.952   6.656  18.971  0.00  0.00    +0.000 A 
ATOM     14  C   UNL     1       3.028   5.485  19.697  0.00  0.00    +0.000 A 
ATOM     15  S   UNL     1       4.132   4.407  18.956  0.00  0.00    +0.000 S 
ATOM     16  C   UNL     1       4.436   5.569  17.718  0.00  0.00    +0.000 A 
ATOM     17  N   UNL     1       3.793   6.712  17.872  0.00  0.00    +0.000 NA
BRANCH  16  18
ATOM     18  C   UNL     1       5.373   5.288  16.625  0.00  0.00    +0.000 A 
ATOM     19  C   UNL     1       5.058   4.330  15.653  0.00  0.00    +0.000 A 
ATOM     20  C   UNL     1       5.951   4.062  14.615  0.00  0.00    +0.000 A 
ATOM     21  C   UNL     1       7.148   4.758  14.583  0.00  0.00    +0.000 A 
ATOM     22  N   UNL     1       7.501   5.679  15.503  0.00  0.00    +0.000 NA
ATOM     23  C   UNL     1       6.610   5.917  16.498  0.00  0.00    +0.000 A 
ENDBRANCH  16  18
ENDBRANCH   4  13
TORSDOF 3
ENDMDL
MODEL 7
REMARK VINA RESULT:      -7.5      1.743      9.050
REMARK  Name = 
REMARK  3 active torsions:
REMARK  status: ('A' for Active; 'I' for Inactive)
REMARK    1  A    between atoms: C_4  and  C_5
REMARK    2  A    between atoms: C_8  and  C_9
REMARK    3  A    between atoms: C_12  and  C_13
REMARK                            x       y       z     vdW  Elec       q    Type
REMARK                         _______ _______ _______ _____ _____    ______ ____
ROOT
ATOM      1  C   UNL     1       5.328   5.005  15.451  0.00  0.00    +0.000 A 
ATOM      2  N   UNL     1       5.242   6.300  15.821  0.00  0.00    +0.000 NA
ATOM      3  C   UNL     1       4.496   6.571  16.916  0.00  0.00    +0.000 A 
ATOM      4  C   UNL     1       3.825   5.616  17.649  0.00  0.00    +0.000 A 
ATOM      5  C   UNL     1       4.000   4.325  17.197  0.00  0.00    +0.000 A 
ATOM      6  N   UNL     1       4.732   3.991  16.112  0.00  0.00    +0.000 NA
ENDROOT
BRANCH   1  10
ATOM      7  C   UNL     1       7.509   4.112  11.845  0.00  0.00    +0.000 A 
ATOM      8  C   UNL     1       7.977   5.087  12.721  0.00  0.00    +0.000 A 
ATOM      9  C   UNL     1       7.274   5.365  13.898  0.00  0.00    +0.000 A 
ATOM     10  C   UNL     1       6.088   4.681  14.227  0.00  0.00    +0.000 A 
ATOM     11  C   UNL     1       5.649   3.691  13.328  0.00  0.00    +0.000 A 
ATOM     12  C   UNL     1       6.347   3.410  12.150  0.00  0.00    +0.000 A 
ENDBRANCH   1  10
BRANCH   4  13
ATOM     13  C   UNL     1       3.026   5.963  18.805  0.00  0.00    +0.000 A 
ATOM     14  C   UNL     1       2.657   5.069  19.788  0.00  0.00    +0.000 A 
ATOM     15  S   UNL     1       1.742   5.869  20.993  0.00  0.00    +0.000 S 
ATOM     16  C   UNL     1       1.898   7.353  20.128  0.00  0.00    +0.000 A 
ATOM     17  N   UNL     1       2.549   7.251  18.984  0.00  0.00    +0.000 NA
BRANCH  16  18
ATOM     18  C   UNL     1       1.304   8.594  20.634  0.00  0.00    +0.000 A 
ATOM     19  C   UNL     1       0.864   9.582  19.744  0.00  0.00    +0.000 A 
ATOM     20  C   UNL     1       0.302  10.764  20.228  0.00  0.00    +0.000 A 
ATOM     21  C   UNL     1       0.201  10.930  21.599  0.00  0.00    +0.000 A 
ATOM     22  N   UNL     1       0.621  10.013  22.494  0.00  0.00    +0.000 NA
ATOM     23  C   UNL     1       1.163   8.875  21.992  0.00  0.00    +0.000 A 
ENDBRANCH  16  18
ENDBRANCH   4  13
TORSDOF 3
ENDMDL
MODEL 8
REMARK VINA RESULT:      -7.5      1.435      1.795
REMARK  Name = 
REMARK  3 active torsions:
REMARK  status: ('A' for Active; 'I' for Inactive)
REMARK    1  A    between atoms: C_4  and  C_5
REMARK    2  A    between atoms: C_8  and  C_9
REMARK    3  A    between atoms: C_12  and  C_13
REMARK                            x       y       z     vdW  Elec       q    Type
REMARK                         _______ _______ _______ _____ _____    ______ ____
ROOT
ATOM      1  C   UNL     1       0.671   9.671  19.375  0.00  0.00    +0.000 A 
ATOM      2  N   UNL     1       1.177   9.578  18.127  0.00  0.00    +0.000 NA
ATOM      3  C   UNL     1       2.046   8.566  17.897  0.00  0.00    +0.000 A 
ATOM      4  C   UNL     1       2.440   7.654  18.852  0.00  0.00    +0.000 A 
ATOM      5  C   UNL     1       1.844   7.828  20.084  0.00  0.00    +0.000 A 
ATOM      6  N   UNL     1       0.971   8.817  20.375  0.00  0.00    +0.000 NA
ENDROOT
BRANCH   1  10
ATOM      7  C   UNL     1      -2.003  12.919  20.302  0.00  0.00    +0.000 A 
ATOM      8  C   UNL     1      -0.794  12.793  20.980  0.00  0.00    +0.000 A 
ATOM      9  C   UNL     1       0.078  11.746  20.667  0.00  0.00    +0.000 A 
ATOM     10  C   UNL     1      -0.235  10.797  19.675  0.00  0.00    +0.000 A 
ATOM     11  C   UNL     1      -1.458  10.959  18.997  0.00  0.00    +0.000 A 
ATOM     12  C   UNL     1      -2.334  12.004  19.306  0.00  0.00    +0.000 A 
ENDBRANCH   1  10
BRANCH   4  13
ATOM     13  C   UNL     1       3.385   6.600  18.556  0.00  0.00    +0.000 A 
ATOM     14  C   UNL     1       3.715   5.587  19.433  0.00  0.00    +0.000 A 
ATOM     15  S   UNL     1       4.844   4.527  18.704  0.00  0.00    +0.000 S 
ATOM     16  C   UNL     1       4.819   5.485  17.270  0.00  0.00    +0.000 A 
ATOM     17  N   UNL     1       4.055   6.559  17.344  0.00  0.00    +0.000 NA
BRANCH  16  18
ATOM     18  C   UNL     1       5.628   5.125  16.101  0.00  0.00    +0.000 A 
ATOM     19  C   UNL     1       5.107   4.282  15.112  0.00  0.00    +0.000 A 
ATOM     20  C   UNL     1       5.879   3.939  14.002  0.00  0.00    +0.000 A 
ATOM     21  C   UNL     1       7.165   4.444  13.916  0.00  0.00    +0.000 A 
ATOM     22  N   UNL     1       7.715   5.249  14.848  0.00  0.00    +0.000 NA
ATOM     23  C   UNL     1       6.938   5.564  15.914  0.00  0.00    +0.000 A 
ENDBRANCH  16  18
ENDBRANCH   4  13
TORSDOF 3
ENDMDL
MODEL 9
REMARK VINA RESULT:      -7.4      4.857      7.373
REMARK  Name = 
REMARK  3 active torsions:
REMARK  status: ('A' for Active; 'I' for Inactive)
REMARK    1  A    between atoms: C_4  and  C_5
REMARK    2  A    between atoms: C_8  and  C_9
REMARK    3  A    between atoms: C_12  and  C_13
REMARK                            x       y       z     vdW  Elec       q    Type
REMARK                         _______ _______ _______ _____ _____    ______ ____
ROOT
ATOM      1  C   UNL     1       8.659   9.247  18.558  0.00  0.00    +0.000 A 
ATOM      2  N   UNL     1       7.771   9.427  17.558  0.00  0.00    +0.000 NA
ATOM      3  C   UNL     1       7.080   8.337  17.154  0.00  0.00    +0.000 A 
ATOM      4  C   UNL     1       7.241   7.078  17.690  0.00  0.00    +0.000 A 
ATOM      5  C   UNL     1       8.156   7.011  18.721  0.00  0.00    +0.000 A 
ATOM      6  N   UNL     1       8.875   8.064  19.169  0.00  0.00    +0.000 NA
ENDROOT
BRANCH   1  10
ATOM      7  C   UNL     1      10.969  12.666  19.797  0.00  0.00    +0.000 A 
ATOM      8  C   UNL     1      10.304  11.891  20.743  0.00  0.00    +0.000 A 
ATOM      9  C   UNL     1       9.567  10.774  20.340  0.00  0.00    +0.000 A 
ATOM     10  C   UNL     1       9.471  10.404  18.984  0.00  0.00    +0.000 A 
ATOM     11  C   UNL     1      10.166  11.199  18.052  0.00  0.00    +0.000 A 
ATOM     12  C   UNL     1      10.904  12.318  18.451  0.00  0.00    +0.000 A 
ENDBRANCH   1  10
BRANCH   4  13
ATOM     13  C   UNL     1       6.487   5.941  17.209  0.00  0.00    +0.000 A 
ATOM     14  C   UNL     1       6.861   5.162  16.134  0.00  0.00    +0.000 A 
ATOM     15  S   UNL     1       5.725   3.904  15.899  0.00  0.00    +0.000 S 
ATOM     16  C   UNL     1       4.811   4.478  17.244  0.00  0.00    +0.000 A 
ATOM     17  N   UNL     1       5.293   5.571  17.806  0.00  0.00    +0.000 NA
BRANCH  16  18
ATOM     18  C   UNL     1       3.580   3.803  17.670  0.00  0.00    +0.000 A 
ATOM     19  C   UNL     1       3.605   2.452  18.037  0.00  0.00    +0.000 A 
ATOM     20  C   UNL     1       2.432   1.812  18.439  0.00  0.00    +0.000 A 
ATOM     21  C   UNL     1       1.257   2.542  18.455  0.00  0.00    +0.000 A 
ATOM     22  N   UNL     1       1.181   3.841  18.098  0.00  0.00    +0.000 NA
ATOM     23  C   UNL     1       2.338   4.434  17.713  0.00  0.00    +0.000 A 
ENDBRANCH  16  18
ENDBRANCH   4  13
TORSDOF 3
ENDMDL
