MODEL 1
REMARK VINA RESULT:      -7.4      0.000      0.000
REMARK  Name = 
REMARK  9 active torsions:
REMARK  status: ('A' for Active; 'I' for Inactive)
REMARK    1  A    between atoms: C_1  and  O_2
REMARK    2  A    between atoms: O_2  and  C_3
REMARK    3  A    between atoms: C_5  and  C_6
REMARK    4  A    between atoms: C_13  and  C_14
REMARK    5  A    between atoms: C_19  and  C_20
REMARK    6  A    between atoms: C_22  and  C_23
REMARK    7  A    between atoms: C_26  and  O_27
REMARK    8  A    between atoms: O_27  and  C_28
REMARK    9  A    between atoms: C_29  and  O_30
REMARK                            x       y       z     vdW  Elec       q    Type
REMARK                         _______ _______ _______ _____ _____    ______ ____
ROOT
ATOM      1  C   UNL     1       0.164  11.738  20.240  0.00  0.00    +0.000 C 
ATOM      2  C   UNL     1       0.541  11.913  18.760  0.00  0.00    +0.000 C 
ATOM      3  C   UNL     1       1.719  11.066  18.344  0.00  0.00    +0.000 C 
ATOM      4  O   UNL     1       2.511  11.358  17.469  0.00  0.00    +0.000 OA
ATOM      5  N   UNL     1       1.826   9.761  18.898  0.00  0.00    +0.000 N 
ATOM      6  C   UNL     1       1.092   9.411  20.012  0.00  0.00    +0.000 A 
ATOM      7  C   UNL     1       0.318  10.318  20.693  0.00  0.00    +0.000 A 
ATOM      8  C   UNL     1      -0.086   9.606  21.856  0.00  0.00    +0.000 A 
ATOM      9  C   UNL     1      -0.769  10.082  23.087  0.00  0.00    +0.000 C 
ATOM     10  N   UNL     1       0.269   8.313  21.794  0.00  0.00    +0.000 NA
ATOM     11  N   UNL     1       1.027   8.205  20.670  0.00  0.00    +0.000 N 
ATOM     12  C   UNL     1       1.710   7.011  20.280  0.00  0.00    +0.000 A 
ATOM     13  N   UNL     1       1.426   5.864  20.927  0.00  0.00    +0.000 NA
ATOM     14  C   UNL     1       2.117   4.767  20.567  0.00  0.00    +0.000 A 
ATOM     15  C   UNL     1       1.776   3.482  21.260  0.00  0.00    +0.000 C 
ATOM     16  C   UNL     1       3.113   4.805  19.610  0.00  0.00    +0.000 A 
ATOM     17  C   UNL     1       3.348   6.020  18.997  0.00  0.00    +0.000 A 
ATOM     18  C   UNL     1       4.461   6.177  18.004  0.00  0.00    +0.000 C 
ATOM     19  N   UNL     1       2.634   7.130  19.291  0.00  0.00    +0.000 NA
ATOM     20  H   UNL     1       2.489   9.092  18.508  0.00  0.00    +0.000 HD
ENDROOT
BRANCH   1  23
ATOM     21  C   UNL     1      -3.022  13.110  21.908  0.00  0.00    +0.000 A 
ATOM     22  C   UNL     1      -1.696  12.718  21.687  0.00  0.00    +0.000 A 
ATOM     23  C   UNL     1      -1.285  12.123  20.484  0.00  0.00    +0.000 A 
ATOM     24  C   UNL     1      -2.261  11.895  19.505  0.00  0.00    +0.000 A 
ATOM     25  C   UNL     1      -3.594  12.300  19.689  0.00  0.00    +0.000 A 
ATOM     26  C   UNL     1      -3.970  12.911  20.897  0.00  0.00    +0.000 A 
BRANCH  21  28
ATOM     27  C   UNL     1      -3.743  12.792  24.177  0.00  0.00    +0.000 C 
ATOM     28  O   UNL     1      -3.199  13.625  23.165  0.00  0.00    +0.000 OA
ENDBRANCH  21  28
BRANCH  25  29
ATOM     29  O   UNL     1      -4.423  11.954  18.654  0.00  0.00    +0.000 OA
ATOM     30  C   UNL     1      -3.908  11.086  17.649  0.00  0.00    +0.000 C 
ENDBRANCH  25  29
BRANCH  26  31
ATOM     31  O   UNL     1      -5.272  13.260  21.114  0.00  0.00    +0.000 OA
ATOM     32  H   UNL     1      -5.421  14.074  20.603  0.00  0.00    +0.000 HD
ENDBRANCH  26  31
ENDBRANCH   1  23
TORSDOF 4
ENDMDL
MODEL 2
REMARK VINA RESULT:      -7.4      0.641      2.415
REMARK  Name = 
REMARK  9 active torsions:
REMARK  status: ('A' for Active; 'I' for Inactive)
REMARK    1  A    between atoms: C_1  and  O_2
REMARK    2  A    between atoms: O_2  and  C_3
REMARK    3  A    between atoms: C_5  and  C_6
REMARK    4  A    between atoms: C_13  and  C_14
REMARK    5  A    between atoms: C_19  and  C_20
REMARK    6  A    between atoms: C_22  and  C_23
REMARK    7  A    between atoms: C_26  and  O_27
REMARK    8  A    between atoms: O_27  and  C_28
REMARK    9  A    between atoms: C_29  and  O_30
REMARK                            x       y       z     vdW  Elec       q    Type
REMARK                         _______ _______ _______ _____ _____    ______ ____
ROOT
ATOM      1  C   UNL     1       0.250  12.045  20.447  0.00  0.00    +0.000 C 
ATOM      2  C   UNL     1       0.605  12.290  18.971  0.00  0.00    +0.000 C 
ATOM      3  C   UNL     1       1.745  11.429  18.485  0.00  0.00    +0.000 C 
ATOM      4  O   UNL     1       2.530  11.743  17.612  0.00  0.00    +0.000 OA
ATOM      5  N   UNL     1       1.819  10.092  18.964  0.00  0.00    +0.000 N 
ATOM      6  C   UNL     1       1.095   9.705  20.072  0.00  0.00    +0.000 A 
ATOM      7  C   UNL     1       0.364  10.597  20.817  0.00  0.00    +0.000 A 
ATOM      8  C   UNL     1      -0.041   9.835  21.948  0.00  0.00    +0.000 A 
ATOM      9  C   UNL     1      -0.685  10.264  23.217  0.00  0.00    +0.000 C 
ATOM     10  N   UNL     1       0.269   8.537  21.808  0.00  0.00    +0.000 NA
ATOM     11  N   UNL     1       1.001   8.467  20.664  0.00  0.00    +0.000 N 
ATOM     12  C   UNL     1       1.636   7.275  20.194  0.00  0.00    +0.000 A 
ATOM     13  N   UNL     1       1.326   6.103  20.783  0.00  0.00    +0.000 NA
ATOM     14  C   UNL     1       1.973   5.006  20.348  0.00  0.00    +0.000 A 
ATOM     15  C   UNL     1       1.602   3.697  20.977  0.00  0.00    +0.000 C 
ATOM     16  C   UNL     1       2.952   5.065  19.374  0.00  0.00    +0.000 A 
ATOM     17  C   UNL     1       3.216   6.305  18.825  0.00  0.00    +0.000 A 
ATOM     18  C   UNL     1       4.315   6.480  17.819  0.00  0.00    +0.000 C 
ATOM     19  N   UNL     1       2.546   7.419  19.195  0.00  0.00    +0.000 NA
ATOM     20  H   UNL     1       2.452   9.425  18.524  0.00  0.00    +0.000 HD
ENDROOT
BRANCH   1  23
ATOM     21  C   UNL     1      -3.563  12.489  20.156  0.00  0.00    +0.000 A 
ATOM     22  C   UNL     1      -2.236  12.141  19.874  0.00  0.00    +0.000 A 
ATOM     23  C   UNL     1      -1.181  12.463  20.742  0.00  0.00    +0.000 A 
ATOM     24  C   UNL     1      -1.490  13.186  21.902  0.00  0.00    +0.000 A 
ATOM     25  C   UNL     1      -2.815  13.528  22.222  0.00  0.00    +0.000 A 
ATOM     26  C   UNL     1      -3.851  13.174  21.343  0.00  0.00    +0.000 A 
BRANCH  21  28
ATOM     27  C   UNL     1      -3.881  11.446  18.016  0.00  0.00    +0.000 C 
ATOM     28  O   UNL     1      -4.412  12.113  19.150  0.00  0.00    +0.000 OA
ENDBRANCH  21  28
BRANCH  25  29
ATOM     29  O   UNL     1      -2.930  14.276  23.365  0.00  0.00    +0.000 OA
ATOM     30  C   UNL     1      -1.742  14.567  24.094  0.00  0.00    +0.000 C 
ENDBRANCH  25  29
BRANCH  26  31
ATOM     31  O   UNL     1      -5.137  13.547  21.611  0.00  0.00    +0.000 OA
ATOM     32  H   UNL     1      -5.561  12.773  22.021  0.00  0.00    +0.000 HD
ENDBRANCH  26  31
ENDBRANCH   1  23
TORSDOF 4
ENDMDL
MODEL 3
REMARK VINA RESULT:      -6.9      5.252      7.997
REMARK  Name = 
REMARK  9 active torsions:
REMARK  status: ('A' for Active; 'I' for Inactive)
REMARK    1  A    between atoms: C_1  and  O_2
REMARK    2  A    between atoms: O_2  and  C_3
REMARK    3  A    between atoms: C_5  and  C_6
REMARK    4  A    between atoms: C_13  and  C_14
REMARK    5  A    between atoms: C_19  and  C_20
REMARK    6  A    between atoms: C_22  and  C_23
REMARK    7  A    between atoms: C_26  and  O_27
REMARK    8  A    between atoms: O_27  and  C_28
REMARK    9  A    between atoms: C_29  and  O_30
REMARK                            x       y       z     vdW  Elec       q    Type
REMARK                         _______ _______ _______ _____ _____    ______ ____
ROOT
ATOM      1  C   UNL     1      -0.568  12.846  19.226  0.00  0.00    +0.000 C 
ATOM      2  C   UNL     1      -1.228  12.502  17.881  0.00  0.00    +0.000 C 
ATOM      3  C   UNL     1      -2.480  11.674  18.030  0.00  0.00    +0.000 C 
ATOM      4  O   UNL     1      -2.885  10.871  17.212  0.00  0.00    +0.000 OA
ATOM      5  N   UNL     1      -3.338  11.959  19.128  0.00  0.00    +0.000 N 
ATOM      6  C   UNL     1      -2.887  12.713  20.190  0.00  0.00    +0.000 A 
ATOM      7  C   UNL     1      -1.582  13.129  20.292  0.00  0.00    +0.000 A 
ATOM      8  C   UNL     1      -1.509  13.682  21.600  0.00  0.00    +0.000 A 
ATOM      9  C   UNL     1      -0.332  14.122  22.394  0.00  0.00    +0.000 C 
ATOM     10  N   UNL     1      -2.719  13.758  22.175  0.00  0.00    +0.000 NA
ATOM     11  N   UNL     1      -3.563  13.127  21.316  0.00  0.00    +0.000 N 
ATOM     12  C   UNL     1      -4.943  12.876  21.591  0.00  0.00    +0.000 A 
ATOM     13  N   UNL     1      -5.509  13.477  22.656  0.00  0.00    +0.000 NA
ATOM     14  C   UNL     1      -6.797  13.187  22.915  0.00  0.00    +0.000 A 
ATOM     15  C   UNL     1      -7.438  13.884  24.076  0.00  0.00    +0.000 C 
ATOM     16  C   UNL     1      -7.512  12.275  22.162  0.00  0.00    +0.000 A 
ATOM     17  C   UNL     1      -6.859  11.696  21.091  0.00  0.00    +0.000 A 
ATOM     18  C   UNL     1      -7.527  10.638  20.265  0.00  0.00    +0.000 C 
ATOM     19  N   UNL     1      -5.584  12.007  20.765  0.00  0.00    +0.000 NA
ATOM     20  H   UNL     1      -4.275  11.561  19.162  0.00  0.00    +0.000 HD
ENDROOT
BRANCH   1  23
ATOM     21  C   UNL     1       2.512  15.152  19.097  0.00  0.00    +0.000 A 
ATOM     22  C   UNL     1       1.698  14.022  19.242  0.00  0.00    +0.000 A 
ATOM     23  C   UNL     1       0.302  14.086  19.107  0.00  0.00    +0.000 A 
ATOM     24  C   UNL     1      -0.271  15.340  18.856  0.00  0.00    +0.000 A 
ATOM     25  C   UNL     1       0.523  16.487  18.683  0.00  0.00    +0.000 A 
ATOM     26  C   UNL     1       1.919  16.387  18.803  0.00  0.00    +0.000 A 
BRANCH  21  28
ATOM     27  C   UNL     1       4.690  14.694  18.196  0.00  0.00    +0.000 C 
ATOM     28  O   UNL     1       3.832  14.861  19.314  0.00  0.00    +0.000 OA
ENDBRANCH  21  28
BRANCH  25  29
ATOM     29  O   UNL     1      -0.202  17.634  18.494  0.00  0.00    +0.000 OA
ATOM     30  C   UNL     1      -0.357  18.114  17.162  0.00  0.00    +0.000 C 
ENDBRANCH  25  29
BRANCH  26  31
ATOM     31  O   UNL     1       2.700  17.501  18.693  0.00  0.00    +0.000 OA
ATOM     32  H   UNL     1       3.483  17.230  18.183  0.00  0.00    +0.000 HD
ENDBRANCH  26  31
ENDBRANCH   1  23
TORSDOF 4
ENDMDL
MODEL 4
REMARK VINA RESULT:      -6.9      5.260      8.032
REMARK  Name = 
REMARK  9 active torsions:
REMARK  status: ('A' for Active; 'I' for Inactive)
REMARK    1  A    between atoms: C_1  and  O_2
REMARK    2  A    between atoms: O_2  and  C_3
REMARK    3  A    between atoms: C_5  and  C_6
REMARK    4  A    between atoms: C_13  and  C_14
REMARK    5  A    between atoms: C_19  and  C_20
REMARK    6  A    between atoms: C_22  and  C_23
REMARK    7  A    between atoms: C_26  and  O_27
REMARK    8  A    between atoms: O_27  and  C_28
REMARK    9  A    between atoms: C_29  and  O_30
REMARK                            x       y       z     vdW  Elec       q    Type
REMARK                         _______ _______ _______ _____ _____    ______ ____
ROOT
ATOM      1  C   UNL     1      -0.606  12.855  19.274  0.00  0.00    +0.000 C 
ATOM      2  C   UNL     1      -1.264  12.505  17.930  0.00  0.00    +0.000 C 
ATOM      3  C   UNL     1      -2.515  11.675  18.081  0.00  0.00    +0.000 C 
ATOM      4  O   UNL     1      -2.917  10.869  17.265  0.00  0.00    +0.000 OA
ATOM      5  N   UNL     1      -3.375  11.963  19.176  0.00  0.00    +0.000 N 
ATOM      6  C   UNL     1      -2.926  12.723  20.236  0.00  0.00    +0.000 A 
ATOM      7  C   UNL     1      -1.622  13.140  20.338  0.00  0.00    +0.000 A 
ATOM      8  C   UNL     1      -1.552  13.699  21.644  0.00  0.00    +0.000 A 
ATOM      9  C   UNL     1      -0.376  14.144  22.438  0.00  0.00    +0.000 C 
ATOM     10  N   UNL     1      -2.762  13.775  22.217  0.00  0.00    +0.000 NA
ATOM     11  N   UNL     1      -3.604  13.139  21.359  0.00  0.00    +0.000 N 
ATOM     12  C   UNL     1      -4.984  12.887  21.634  0.00  0.00    +0.000 A 
ATOM     13  N   UNL     1      -5.552  13.491  22.696  0.00  0.00    +0.000 NA
ATOM     14  C   UNL     1      -6.840  13.200  22.954  0.00  0.00    +0.000 A 
ATOM     15  C   UNL     1      -7.483  13.900  24.113  0.00  0.00    +0.000 C 
ATOM     16  C   UNL     1      -7.553  12.284  22.204  0.00  0.00    +0.000 A 
ATOM     17  C   UNL     1      -6.897  11.702  21.136  0.00  0.00    +0.000 A 
ATOM     18  C   UNL     1      -7.563  10.640  20.313  0.00  0.00    +0.000 C 
ATOM     19  N   UNL     1      -5.623  12.014  20.811  0.00  0.00    +0.000 NA
ATOM     20  H   UNL     1      -4.311  11.563  19.210  0.00  0.00    +0.000 HD
ENDROOT
BRANCH   1  23
ATOM     21  C   UNL     1       0.496  16.516  18.822  0.00  0.00    +0.000 A 
ATOM     22  C   UNL     1      -0.292  15.360  18.900  0.00  0.00    +0.000 A 
ATOM     23  C   UNL     1       0.262  14.096  19.152  0.00  0.00    +0.000 A 
ATOM     24  C   UNL     1       1.655  14.011  19.290  0.00  0.00    +0.000 A 
ATOM     25  C   UNL     1       2.467  15.157  19.241  0.00  0.00    +0.000 A 
ATOM     26  C   UNL     1       1.880  16.411  19.008  0.00  0.00    +0.000 A 
BRANCH  21  28
ATOM     27  C   UNL     1      -0.333  18.056  17.176  0.00  0.00    +0.000 C 
ATOM     28  O   UNL     1      -0.252  17.623  18.526  0.00  0.00    +0.000 OA
ENDBRANCH  21  28
BRANCH  25  29
ATOM     29  O   UNL     1       3.807  14.887  19.345  0.00  0.00    +0.000 OA
ATOM     30  C   UNL     1       4.534  14.646  18.145  0.00  0.00    +0.000 C 
ENDBRANCH  25  29
BRANCH  26  31
ATOM     31  O   UNL     1       2.661  17.527  18.902  0.00  0.00    +0.000 OA
ATOM     32  H   UNL     1       3.581  17.211  18.903  0.00  0.00    +0.000 HD
ENDBRANCH  26  31
ENDBRANCH   1  23
TORSDOF 4
ENDMDL
MODEL 5
REMARK VINA RESULT:      -6.9      1.776      2.332
REMARK  Name = 
REMARK  9 active torsions:
REMARK  status: ('A' for Active; 'I' for Inactive)
REMARK    1  A    between atoms: C_1  and  O_2
REMARK    2  A    between atoms: O_2  and  C_3
REMARK    3  A    between atoms: C_5  and  C_6
REMARK    4  A    between atoms: C_13  and  C_14
REMARK    5  A    between atoms: C_19  and  C_20
REMARK    6  A    between atoms: C_22  and  C_23
REMARK    7  A    between atoms: C_26  and  O_27
REMARK    8  A    between atoms: O_27  and  C_28
REMARK    9  A    between atoms: C_29  and  O_30
REMARK                            x       y       z     vdW  Elec       q    Type
REMARK                         _______ _______ _______ _____ _____    ______ ____
ROOT
ATOM      1  C   UNL     1       1.435   9.986  19.174  0.00  0.00    +0.000 C 
ATOM      2  C   UNL     1       1.832   9.712  17.714  0.00  0.00    +0.000 C 
ATOM      3  C   UNL     1       2.826   8.586  17.572  0.00  0.00    +0.000 C 
ATOM      4  O   UNL     1       3.656   8.499  16.688  0.00  0.00    +0.000 OA
ATOM      5  N   UNL     1       2.688   7.465  18.435  0.00  0.00    +0.000 N 
ATOM      6  C   UNL     1       1.906   7.546  19.568  0.00  0.00    +0.000 A 
ATOM      7  C   UNL     1       1.320   8.721  19.970  0.00  0.00    +0.000 A 
ATOM      8  C   UNL     1       0.794   8.409  21.254  0.00  0.00    +0.000 A 
ATOM      9  C   UNL     1       0.218   9.296  22.299  0.00  0.00    +0.000 C 
ATOM     10  N   UNL     1       0.898   7.100  21.529  0.00  0.00    +0.000 NA
ATOM     11  N   UNL     1       1.617   6.576  20.500  0.00  0.00    +0.000 N 
ATOM     12  C   UNL     1       2.061   5.218  20.446  0.00  0.00    +0.000 A 
ATOM     13  N   UNL     1       1.570   4.342  21.343  0.00  0.00    +0.000 NA
ATOM     14  C   UNL     1       2.040   3.082  21.295  0.00  0.00    +0.000 A 
ATOM     15  C   UNL     1       1.465   2.097  22.268  0.00  0.00    +0.000 C 
ATOM     16  C   UNL     1       3.021   2.695  20.402  0.00  0.00    +0.000 A 
ATOM     17  C   UNL     1       3.478   3.655  19.519  0.00  0.00    +0.000 A 
ATOM     18  C   UNL     1       4.597   3.351  18.567  0.00  0.00    +0.000 C 
ATOM     19  N   UNL     1       2.988   4.914  19.499  0.00  0.00    +0.000 NA
ATOM     20  H   UNL     1       3.212   6.610  18.251  0.00  0.00    +0.000 HD
ENDROOT
BRANCH   1  23
ATOM     21  C   UNL     1      -1.357  12.452  20.145  0.00  0.00    +0.000 A 
ATOM     22  C   UNL     1      -0.127  11.783  20.092  0.00  0.00    +0.000 A 
ATOM     23  C   UNL     1       0.085  10.679  19.253  0.00  0.00    +0.000 A 
ATOM     24  C   UNL     1      -0.996  10.230  18.482  0.00  0.00    +0.000 A 
ATOM     25  C   UNL     1      -2.233  10.897  18.496  0.00  0.00    +0.000 A 
ATOM     26  C   UNL     1      -2.409  12.012  19.331  0.00  0.00    +0.000 A 
BRANCH  21  28
ATOM     27  C   UNL     1      -0.635  13.287  22.278  0.00  0.00    +0.000 C 
ATOM     28  O   UNL     1      -1.345  13.468  21.063  0.00  0.00    +0.000 OA
ENDBRANCH  21  28
BRANCH  25  29
ATOM     29  O   UNL     1      -3.191  10.296  17.722  0.00  0.00    +0.000 OA
ATOM     30  C   UNL     1      -2.844   9.941  16.387  0.00  0.00    +0.000 C 
ENDBRANCH  25  29
BRANCH  26  31
ATOM     31  O   UNL     1      -3.621  12.637  19.399  0.00  0.00    +0.000 OA
ATOM     32  H   UNL     1      -4.142  12.292  18.654  0.00  0.00    +0.000 HD
ENDBRANCH  26  31
ENDBRANCH   1  23
TORSDOF 4
ENDMDL
MODEL 6
REMARK VINA RESULT:      -6.8      2.052      3.374
REMARK  Name = 
REMARK  9 active torsions:
REMARK  status: ('A' for Active; 'I' for Inactive)
REMARK    1  A    between atoms: C_1  and  O_2
REMARK    2  A    between atoms: O_2  and  C_3
REMARK    3  A    between atoms: C_5  and  C_6
REMARK    4  A    between atoms: C_13  and  C_14
REMARK    5  A    between atoms: C_19  and  C_20
REMARK    6  A    between atoms: C_22  and  C_23
REMARK    7  A    between atoms: C_26  and  O_27
REMARK    8  A    between atoms: O_27  and  C_28
REMARK    9  A    between atoms: C_29  and  O_30
REMARK                            x       y       z     vdW  Elec       q    Type
REMARK                         _______ _______ _______ _____ _____    ______ ____
ROOT
ATOM      1  C   UNL     1       1.624   9.845  18.997  0.00  0.00    +0.000 C 
ATOM      2  C   UNL     1       2.064   9.508  17.563  0.00  0.00    +0.000 C 
ATOM      3  C   UNL     1       3.038   8.357  17.497  0.00  0.00    +0.000 C 
ATOM      4  O   UNL     1       3.894   8.219  16.645  0.00  0.00    +0.000 OA
ATOM      5  N   UNL     1       2.846   7.273  18.396  0.00  0.00    +0.000 N 
ATOM      6  C   UNL     1       2.028   7.413  19.498  0.00  0.00    +0.000 A 
ATOM      7  C   UNL     1       1.455   8.614  19.835  0.00  0.00    +0.000 A 
ATOM      8  C   UNL     1       0.880   8.362  21.111  0.00  0.00    +0.000 A 
ATOM      9  C   UNL     1       0.288   9.299  22.102  0.00  0.00    +0.000 C 
ATOM     10  N   UNL     1       0.946   7.062  21.438  0.00  0.00    +0.000 NA
ATOM     11  N   UNL     1       1.687   6.485  20.455  0.00  0.00    +0.000 N 
ATOM     12  C   UNL     1       2.103   5.117  20.466  0.00  0.00    +0.000 A 
ATOM     13  N   UNL     1       1.562   4.286  21.378  0.00  0.00    +0.000 NA
ATOM     14  C   UNL     1       2.005   3.015  21.393  0.00  0.00    +0.000 A 
ATOM     15  C   UNL     1       1.377   2.081  22.382  0.00  0.00    +0.000 C 
ATOM     16  C   UNL     1       3.008   2.575  20.550  0.00  0.00    +0.000 A 
ATOM     17  C   UNL     1       3.515   3.490  19.648  0.00  0.00    +0.000 A 
ATOM     18  C   UNL     1       4.658   3.127  18.747  0.00  0.00    +0.000 C 
ATOM     19  N   UNL     1       3.054   4.758  19.564  0.00  0.00    +0.000 NA
ATOM     20  H   UNL     1       3.356   6.401  18.262  0.00  0.00    +0.000 HD
ENDROOT
BRANCH   1  23
ATOM     21  C   UNL     1      -2.092  10.665  18.417  0.00  0.00    +0.000 A 
ATOM     22  C   UNL     1      -0.847  10.024  18.385  0.00  0.00    +0.000 A 
ATOM     23  C   UNL     1       0.288  10.568  19.004  0.00  0.00    +0.000 A 
ATOM     24  C   UNL     1       0.151  11.812  19.638  0.00  0.00    +0.000 A 
ATOM     25  C   UNL     1      -1.091  12.466  19.707  0.00  0.00    +0.000 A 
ATOM     26  C   UNL     1      -2.213  11.886  19.095  0.00  0.00    +0.000 A 
BRANCH  21  28
ATOM     27  C   UNL     1      -3.133  10.176  16.309  0.00  0.00    +0.000 C 
ATOM     28  O   UNL     1      -3.040   9.975  17.711  0.00  0.00    +0.000 OA
ENDBRANCH  21  28
BRANCH  25  29
ATOM     29  O   UNL     1      -1.034  13.691  20.319  0.00  0.00    +0.000 OA
ATOM     30  C   UNL     1      -0.440  14.768  19.600  0.00  0.00    +0.000 C 
ENDBRANCH  25  29
BRANCH  26  31
ATOM     31  O   UNL     1      -3.415  12.535  19.105  0.00  0.00    +0.000 OA
ATOM     32  H   UNL     1      -3.256  13.399  18.687  0.00  0.00    +0.000 HD
ENDBRANCH  26  31
ENDBRANCH   1  23
TORSDOF 4
ENDMDL
MODEL 7
REMARK VINA RESULT:      -6.6      3.080      8.296
REMARK  Name = 
REMARK  9 active torsions:
REMARK  status: ('A' for Active; 'I' for Inactive)
REMARK    1  A    between atoms: C_1  and  O_2
REMARK    2  A    between atoms: O_2  and  C_3
REMARK    3  A    between atoms: C_5  and  C_6
REMARK    4  A    between atoms: C_13  and  C_14
REMARK    5  A    between atoms: C_19  and  C_20
REMARK    6  A    between atoms: C_22  and  C_23
REMARK    7  A    between atoms: C_26  and  O_27
REMARK    8  A    between atoms: O_27  and  C_28
REMARK    9  A    between atoms: C_29  and  O_30
REMARK                            x       y       z     vdW  Elec       q    Type
REMARK                         _______ _______ _______ _____ _____    ______ ____
ROOT
ATOM      1  C   UNL     1       1.734   8.640  20.732  0.00  0.00    +0.000 C 
ATOM      2  C   UNL     1       1.186   8.534  22.165  0.00  0.00    +0.000 C 
ATOM      3  C   UNL     1       0.283   9.683  22.541  0.00  0.00    +0.000 C 
ATOM      4  O   UNL     1       0.143  10.118  23.667  0.00  0.00    +0.000 OA
ATOM      5  N   UNL     1      -0.588  10.198  21.541  0.00  0.00    +0.000 N 
ATOM      6  C   UNL     1      -0.382   9.898  20.211  0.00  0.00    +0.000 A 
ATOM      7  C   UNL     1       0.714   9.191  19.782  0.00  0.00    +0.000 A 
ATOM      8  C   UNL     1       0.638   9.286  18.365  0.00  0.00    +0.000 A 
ATOM      9  C   UNL     1       1.626   8.907  17.321  0.00  0.00    +0.000 C 
ATOM     10  N   UNL     1      -0.511   9.853  17.966  0.00  0.00    +0.000 NA
ATOM     11  N   UNL     1      -1.123  10.261  19.110  0.00  0.00    +0.000 N 
ATOM     12  C   UNL     1      -2.333  11.021  19.141  0.00  0.00    +0.000 A 
ATOM     13  N   UNL     1      -3.034  11.165  18.000  0.00  0.00    +0.000 NA
ATOM     14  C   UNL     1      -4.145  11.923  18.051  0.00  0.00    +0.000 A 
ATOM     15  C   UNL     1      -4.946  12.052  16.791  0.00  0.00    +0.000 C 
ATOM     16  C   UNL     1      -4.540  12.574  19.204  0.00  0.00    +0.000 A 
ATOM     17  C   UNL     1      -3.764  12.381  20.331  0.00  0.00    +0.000 A 
ATOM     18  C   UNL     1      -4.068  13.109  21.606  0.00  0.00    +0.000 C 
ATOM     19  N   UNL     1      -2.674  11.581  20.332  0.00  0.00    +0.000 NA
ATOM     20  H   UNL     1      -1.339  10.837  21.798  0.00  0.00    +0.000 HD
ENDROOT
BRANCH   1  23
ATOM     21  C   UNL     1       3.667   5.856  18.907  0.00  0.00    +0.000 A 
ATOM     22  C   UNL     1       3.263   7.114  19.373  0.00  0.00    +0.000 A 
ATOM     23  C   UNL     1       2.140   7.277  20.199  0.00  0.00    +0.000 A 
ATOM     24  C   UNL     1       1.398   6.132  20.522  0.00  0.00    +0.000 A 
ATOM     25  C   UNL     1       1.793   4.856  20.089  0.00  0.00    +0.000 A 
ATOM     26  C   UNL     1       2.934   4.722  19.280  0.00  0.00    +0.000 A 
BRANCH  21  28
ATOM     27  C   UNL     1       4.636   6.647  16.857  0.00  0.00    +0.000 C 
ATOM     28  O   UNL     1       4.758   5.945  18.084  0.00  0.00    +0.000 OA
ENDBRANCH  21  28
BRANCH  25  29
ATOM     29  O   UNL     1       0.928   3.857  20.454  0.00  0.00    +0.000 OA
ATOM     30  C   UNL     1       1.324   2.982  21.505  0.00  0.00    +0.000 C 
ENDBRANCH  25  29
BRANCH  26  31
ATOM     31  O   UNL     1       3.300   3.496  18.804  0.00  0.00    +0.000 OA
ATOM     32  H   UNL     1       3.726   3.658  17.945  0.00  0.00    +0.000 HD
ENDBRANCH  26  31
ENDBRANCH   1  23
TORSDOF 4
ENDMDL
MODEL 8
REMARK VINA RESULT:      -6.6      3.083      8.175
REMARK  Name = 
REMARK  9 active torsions:
REMARK  status: ('A' for Active; 'I' for Inactive)
REMARK    1  A    between atoms: C_1  and  O_2
REMARK    2  A    between atoms: O_2  and  C_3
REMARK    3  A    between atoms: C_5  and  C_6
REMARK    4  A    between atoms: C_13  and  C_14
REMARK    5  A    between atoms: C_19  and  C_20
REMARK    6  A    between atoms: C_22  and  C_23
REMARK    7  A    between atoms: C_26  and  O_27
REMARK    8  A    between atoms: O_27  and  C_28
REMARK    9  A    between atoms: C_29  and  O_30
REMARK                            x       y       z     vdW  Elec       q    Type
REMARK                         _______ _______ _______ _____ _____    ______ ____
ROOT
ATOM      1  C   UNL     1       1.729   8.629  20.752  0.00  0.00    +0.000 C 
ATOM      2  C   UNL     1       1.187   8.532  22.187  0.00  0.00    +0.000 C 
ATOM      3  C   UNL     1       0.291   9.687  22.562  0.00  0.00    +0.000 C 
ATOM      4  O   UNL     1       0.158  10.127  23.687  0.00  0.00    +0.000 OA
ATOM      5  N   UNL     1      -0.583  10.200  21.564  0.00  0.00    +0.000 N 
ATOM      6  C   UNL     1      -0.383   9.893  20.234  0.00  0.00    +0.000 A 
ATOM      7  C   UNL     1       0.708   9.179  19.804  0.00  0.00    +0.000 A 
ATOM      8  C   UNL     1       0.626   9.268  18.386  0.00  0.00    +0.000 A 
ATOM      9  C   UNL     1       1.608   8.879  17.340  0.00  0.00    +0.000 C 
ATOM     10  N   UNL     1      -0.523   9.837  17.990  0.00  0.00    +0.000 NA
ATOM     11  N   UNL     1      -1.128  10.253  19.135  0.00  0.00    +0.000 N 
ATOM     12  C   UNL     1      -2.335  11.018  19.167  0.00  0.00    +0.000 A 
ATOM     13  N   UNL     1      -3.041  11.159  18.028  0.00  0.00    +0.000 NA
ATOM     14  C   UNL     1      -4.149  11.922  18.081  0.00  0.00    +0.000 A 
ATOM     15  C   UNL     1      -4.955  12.048  16.824  0.00  0.00    +0.000 C 
ATOM     16  C   UNL     1      -4.536  12.580  19.232  0.00  0.00    +0.000 A 
ATOM     17  C   UNL     1      -3.755  12.390  20.356  0.00  0.00    +0.000 A 
ATOM     18  C   UNL     1      -4.051  13.125  21.630  0.00  0.00    +0.000 C 
ATOM     19  N   UNL     1      -2.669  11.585  20.356  0.00  0.00    +0.000 NA
ATOM     20  H   UNL     1      -1.330  10.843  21.820  0.00  0.00    +0.000 HD
ENDROOT
BRANCH   1  23
ATOM     21  C   UNL     1       1.755   4.842  20.064  0.00  0.00    +0.000 A 
ATOM     22  C   UNL     1       1.419   6.102  20.574  0.00  0.00    +0.000 A 
ATOM     23  C   UNL     1       2.128   7.261  20.224  0.00  0.00    +0.000 A 
ATOM     24  C   UNL     1       3.224   7.119  19.362  0.00  0.00    +0.000 A 
ATOM     25  C   UNL     1       3.569   5.871  18.815  0.00  0.00    +0.000 A 
ATOM     26  C   UNL     1       2.828   4.732  19.169  0.00  0.00    +0.000 A 
BRANCH  21  28
ATOM     27  C   UNL     1       1.478   3.011  21.593  0.00  0.00    +0.000 C 
ATOM     28  O   UNL     1       0.958   3.854  20.577  0.00  0.00    +0.000 OA
ENDBRANCH  21  28
BRANCH  25  29
ATOM     29  O   UNL     1       4.695   5.905  18.034  0.00  0.00    +0.000 OA
ATOM     30  C   UNL     1       4.680   6.738  16.878  0.00  0.00    +0.000 C 
ENDBRANCH  25  29
BRANCH  26  31
ATOM     31  O   UNL     1       3.185   3.504  18.691  0.00  0.00    +0.000 OA
ATOM     32  H   UNL     1       2.745   3.414  17.828  0.00  0.00    +0.000 HD
ENDBRANCH  26  31
ENDBRANCH   1  23
TORSDOF 4
ENDMDL
MODEL 9
REMARK VINA RESULT:      -6.4      7.676     11.906
REMARK  Name = 
REMARK  9 active torsions:
REMARK  status: ('A' for Active; 'I' for Inactive)
REMARK    1  A    between atoms: C_1  and  O_2
REMARK    2  A    between atoms: O_2  and  C_3
REMARK    3  A    between atoms: C_5  and  C_6
REMARK    4  A    between atoms: C_13  and  C_14
REMARK    5  A    between atoms: C_19  and  C_20
REMARK    6  A    between atoms: C_22  and  C_23
REMARK    7  A    between atoms: C_26  and  O_27
REMARK    8  A    between atoms: O_27  and  C_28
REMARK    9  A    between atoms: C_29  and  O_30
REMARK                            x       y       z     vdW  Elec       q    Type
REMARK                         _______ _______ _______ _____ _____    ______ ____
ROOT
ATOM      1  C   UNL     1       7.427  15.246  21.093  0.00  0.00    +0.000 C 
ATOM      2  C   UNL     1       6.697  14.131  21.859  0.00  0.00    +0.000 C 
ATOM      3  C   UNL     1       5.272  14.485  22.205  0.00  0.00    +0.000 C 
ATOM      4  O   UNL     1       4.669  14.073  23.177  0.00  0.00    +0.000 OA
ATOM      5  N   UNL     1       4.521  15.227  21.252  0.00  0.00    +0.000 N 
ATOM      6  C   UNL     1       5.156  15.882  20.218  0.00  0.00    +0.000 A 
ATOM      7  C   UNL     1       6.525  15.941  20.120  0.00  0.00    +0.000 A 
ATOM      8  C   UNL     1       6.743  16.859  19.056  0.00  0.00    +0.000 A 
ATOM      9  C   UNL     1       7.996  17.505  18.584  0.00  0.00    +0.000 C 
ATOM     10  N   UNL     1       5.597  17.190  18.442  0.00  0.00    +0.000 NA
ATOM     11  N   UNL     1       4.615  16.612  19.185  0.00  0.00    +0.000 N 
ATOM     12  C   UNL     1       3.218  16.804  18.951  0.00  0.00    +0.000 A 
ATOM     13  N   UNL     1       2.832  17.409  17.810  0.00  0.00    +0.000 NA
ATOM     14  C   UNL     1       1.513  17.615  17.638  0.00  0.00    +0.000 A 
ATOM     15  C   UNL     1       1.080  18.254  16.353  0.00  0.00    +0.000 C 
ATOM     16  C   UNL     1       0.582  17.273  18.601  0.00  0.00    +0.000 A 
ATOM     17  C   UNL     1       1.059  16.663  19.745  0.00  0.00    +0.000 A 
ATOM     18  C   UNL     1       0.135  16.327  20.878  0.00  0.00    +0.000 C 
ATOM     19  N   UNL     1       2.370  16.387  19.927  0.00  0.00    +0.000 NA
ATOM     20  H   UNL     1       3.512  15.324  21.359  0.00  0.00    +0.000 HD
ENDROOT
BRANCH   1  23
ATOM     21  C   UNL     1       9.477  13.140  18.606  0.00  0.00    +0.000 A 
ATOM     22  C   UNL     1       8.418  13.637  19.377  0.00  0.00    +0.000 A 
ATOM     23  C   UNL     1       8.591  14.687  20.291  0.00  0.00    +0.000 A 
ATOM     24  C   UNL     1       9.882  15.213  20.443  0.00  0.00    +0.000 A 
ATOM     25  C   UNL     1      10.957  14.750  19.665  0.00  0.00    +0.000 A 
ATOM     26  C   UNL     1      10.748  13.711  18.744  0.00  0.00    +0.000 A 
BRANCH  21  28
ATOM     27  C   UNL     1       9.253  10.768  18.306  0.00  0.00    +0.000 C 
ATOM     28  O   UNL     1       9.085  12.090  17.819  0.00  0.00    +0.000 OA
ENDBRANCH  21  28
BRANCH  25  29
ATOM     29  O   UNL     1      12.155  15.338  19.978  0.00  0.00    +0.000 OA
ATOM     30  C   UNL     1      12.285  16.740  19.765  0.00  0.00    +0.000 C 
ENDBRANCH  25  29
BRANCH  26  31
ATOM     31  O   UNL     1      11.794  13.213  18.021  0.00  0.00    +0.000 OA
ATOM     32  H   UNL     1      12.600  13.510  18.476  0.00  0.00    +0.000 HD
ENDBRANCH  26  31
ENDBRANCH   1  23
TORSDOF 4
ENDMDL
