MODEL 1
REMARK VINA RESULT:      -7.5      0.000      0.000
REMARK  Name = 
REMARK  12 active torsions:
REMARK  status: ('A' for Active; 'I' for Inactive)
REMARK    1  A    between atoms: C_1  and  C_2
REMARK    2  A    between atoms: C_3  and  N_4
REMARK    3  A    between atoms: N_4  and  C_5
REMARK    4  A    between atoms: C_6  and  C_7
REMARK    5  A    between atoms: C_13  and  C_14
REMARK    6  A    between atoms: C_15  and  C_16
REMARK    7  A    between atoms: N_18  and  C_19
REMARK    8  A    between atoms: N_18  and  C_20
REMARK    9  A    between atoms: C_20  and  C_21
REMARK   10  A    between atoms: C_21  and  N_22
REMARK   11  A    between atoms: N_22  and  C_23
REMARK   12  A    between atoms: N_22  and  C_24
REMARK                            x       y       z     vdW  Elec       q    Type
REMARK                         _______ _______ _______ _____ _____    ______ ____
ROOT
ATOM      1  C   UNL     1       3.841   5.824  17.819  0.00  0.00    +0.000 A 
ATOM      2  C   UNL     1       3.659   4.443  18.049  0.00  0.00    +0.000 A 
ATOM      3  C   UNL     1       4.761   3.648  18.330  0.00  0.00    +0.000 A 
ATOM      4  N   UNL     1       6.041   4.071  18.392  0.00  0.00    +0.000 NA
ATOM      5  C   UNL     1       6.200   5.391  18.155  0.00  0.00    +0.000 A 
ATOM      6  S   UNL     1       7.759   6.089  18.164  0.00  0.00    +0.000 S 
ATOM      7  C   UNL     1       7.162   7.664  17.821  0.00  0.00    +0.000 A 
ATOM      8  C   UNL     1       5.782   7.619  17.730  0.00  0.00    +0.000 A 
ATOM      9  C   UNL     1       5.191   6.309  17.887  0.00  0.00    +0.000 A 
ENDROOT
BRANCH   1  10
ATOM     10  N   UNL     1       2.723   6.663  17.577  0.00  0.00    +0.000 N 
ATOM     11  H   UNL     1       2.393   6.719  16.616  0.00  0.00    +0.000 HD
BRANCH  10  14
ATOM     12  C   UNL     1       2.036   6.368  20.513  0.00  0.00    +0.000 C 
ATOM     13  C   UNL     1       1.858   7.625  19.705  0.00  0.00    +0.000 A 
ATOM     14  C   UNL     1       2.228   7.746  18.341  0.00  0.00    +0.000 A 
ATOM     15  C   UNL     1       2.143   8.996  17.698  0.00  0.00    +0.000 A 
ATOM     16  C   UNL     1       1.622  10.126  18.334  0.00  0.00    +0.000 A 
ATOM     17  C   UNL     1       1.145   9.954  19.633  0.00  0.00    +0.000 A 
ATOM     18  N   UNL     1       0.537  10.850  20.486  0.00  0.00    +0.000 N 
ATOM     19  C   UNL     1       0.192  10.232  21.656  0.00  0.00    +0.000 A 
ATOM     20  C   UNL     1       0.609   8.927  21.579  0.00  0.00    +0.000 A 
ATOM     21  C   UNL     1       1.235   8.742  20.314  0.00  0.00    +0.000 A 
ATOM     22  H   UNL     1       0.357  11.819  20.264  0.00  0.00    +0.000 HD
ENDBRANCH  10  14
ENDBRANCH   1  10
BRANCH   2  23
ATOM     23  C   UNL     1       2.366   3.805  17.974  0.00  0.00    +0.000 C 
ATOM     24  N   UNL     1       1.333   3.284  17.930  0.00  0.00    +0.000 NA
ENDBRANCH   2  23
BRANCH   7  25
ATOM     25  C   UNL     1       8.059   8.771  17.679  0.00  0.00    +0.000 C 
ATOM     26  C   UNL     1       8.565   9.398  18.756  0.00  0.00    +0.000 C 
BRANCH  26  27
ATOM     27  C   UNL     1       9.501  10.544  18.606  0.00  0.00    +0.000 C 
ATOM     28  O   UNL     1      10.034  10.743  17.516  0.00  0.00    +0.000 OA
ATOM     29  N   UNL     1       9.705  11.348  19.721  0.00  0.00    +0.000 N 
ATOM     30  C   UNL     1       9.125  11.128  21.042  0.00  0.00    +0.000 C 
BRANCH  29  31
ATOM     31  C   UNL     1      10.634  12.488  19.596  0.00  0.00    +0.000 C 
BRANCH  31  32
ATOM     32  C   UNL     1       9.939  13.871  19.664  0.00  0.00    +0.000 C 
BRANCH  32  33
ATOM     33  N   UNL     1       9.523  14.433  18.356  0.00  0.00    +0.000 NA
ATOM     34  C   UNL     1       8.106  14.176  18.070  0.00  0.00    +0.000 C 
ATOM     35  C   UNL     1       9.754  15.884  18.340  0.00  0.00    +0.000 C 
ENDBRANCH  32  33
ENDBRANCH  31  32
ENDBRANCH  29  31
ENDBRANCH  26  27
ENDBRANCH   7  25
TORSDOF 8
ENDMDL
MODEL 2
REMARK VINA RESULT:      -7.1      5.027      7.941
REMARK  Name = 
REMARK  12 active torsions:
REMARK  status: ('A' for Active; 'I' for Inactive)
REMARK    1  A    between atoms: C_1  and  C_2
REMARK    2  A    between atoms: C_3  and  N_4
REMARK    3  A    between atoms: N_4  and  C_5
REMARK    4  A    between atoms: C_6  and  C_7
REMARK    5  A    between atoms: C_13  and  C_14
REMARK    6  A    between atoms: C_15  and  C_16
REMARK    7  A    between atoms: N_18  and  C_19
REMARK    8  A    between atoms: N_18  and  C_20
REMARK    9  A    between atoms: C_20  and  C_21
REMARK   10  A    between atoms: C_21  and  N_22
REMARK   11  A    between atoms: N_22  and  C_23
REMARK   12  A    between atoms: N_22  and  C_24
REMARK                            x       y       z     vdW  Elec       q    Type
REMARK                         _______ _______ _______ _____ _____    ______ ____
ROOT
ATOM      1  C   UNL     1       0.130  10.096  20.308  0.00  0.00    +0.000 A 
ATOM      2  C   UNL     1      -0.191   9.985  21.678  0.00  0.00    +0.000 A 
ATOM      3  C   UNL     1       0.392   8.978  22.435  0.00  0.00    +0.000 A 
ATOM      4  N   UNL     1       1.254   8.047  21.976  0.00  0.00    +0.000 NA
ATOM      5  C   UNL     1       1.539   8.157  20.661  0.00  0.00    +0.000 A 
ATOM      6  S   UNL     1       2.590   7.041  19.908  0.00  0.00    +0.000 S 
ATOM      7  C   UNL     1       2.459   7.804  18.373  0.00  0.00    +0.000 A 
ATOM      8  C   UNL     1       1.631   8.908  18.482  0.00  0.00    +0.000 A 
ATOM      9  C   UNL     1       1.053   9.125  19.789  0.00  0.00    +0.000 A 
ENDROOT
BRANCH   1  10
ATOM     10  N   UNL     1      -0.417  11.146  19.526  0.00  0.00    +0.000 N 
ATOM     11  H   UNL     1      -0.098  12.089  19.740  0.00  0.00    +0.000 HD
BRANCH  10  14
ATOM     12  C   UNL     1      -2.630  13.122  20.137  0.00  0.00    +0.000 C 
ATOM     13  C   UNL     1      -2.685  12.065  19.068  0.00  0.00    +0.000 A 
ATOM     14  C   UNL     1      -1.616  11.180  18.776  0.00  0.00    +0.000 A 
ATOM     15  C   UNL     1      -1.706  10.307  17.676  0.00  0.00    +0.000 A 
ATOM     16  C   UNL     1      -2.860  10.213  16.892  0.00  0.00    +0.000 A 
ATOM     17  C   UNL     1      -3.945  11.000  17.275  0.00  0.00    +0.000 A 
ATOM     18  N   UNL     1      -5.214  11.087  16.744  0.00  0.00    +0.000 N 
ATOM     19  C   UNL     1      -5.974  11.964  17.469  0.00  0.00    +0.000 A 
ATOM     20  C   UNL     1      -5.182  12.479  18.464  0.00  0.00    +0.000 A 
ATOM     21  C   UNL     1      -3.889  11.896  18.340  0.00  0.00    +0.000 A 
ATOM     22  H   UNL     1      -5.538  10.561  15.945  0.00  0.00    +0.000 HD
ENDBRANCH  10  14
ENDBRANCH   1  10
BRANCH   2  23
ATOM     23  C   UNL     1      -1.133  10.864  22.330  0.00  0.00    +0.000 C 
ATOM     24  N   UNL     1      -1.874  11.581  22.856  0.00  0.00    +0.000 NA
ENDBRANCH   2  23
BRANCH   7  25
ATOM     25  C   UNL     1       3.154   7.283  17.236  0.00  0.00    +0.000 C 
ATOM     26  C   UNL     1       4.351   6.684  17.367  0.00  0.00    +0.000 C 
BRANCH  26  27
ATOM     27  C   UNL     1       5.068   6.138  16.184  0.00  0.00    +0.000 C 
ATOM     28  O   UNL     1       5.414   6.905  15.287  0.00  0.00    +0.000 OA
ATOM     29  N   UNL     1       5.327   4.772  16.172  0.00  0.00    +0.000 N 
ATOM     30  C   UNL     1       4.902   3.821  17.193  0.00  0.00    +0.000 C 
BRANCH  29  31
ATOM     31  C   UNL     1       6.033   4.208  15.005  0.00  0.00    +0.000 C 
BRANCH  31  32
ATOM     32  C   UNL     1       5.207   4.248  13.695  0.00  0.00    +0.000 C 
BRANCH  32  33
ATOM     33  N   UNL     1       5.639   3.290  12.647  0.00  0.00    +0.000 NA
ATOM     34  C   UNL     1       4.625   3.125  11.599  0.00  0.00    +0.000 C 
ATOM     35  C   UNL     1       6.888   3.757  12.028  0.00  0.00    +0.000 C 
ENDBRANCH  32  33
ENDBRANCH  31  32
ENDBRANCH  29  31
ENDBRANCH  26  27
ENDBRANCH   7  25
TORSDOF 8
ENDMDL
MODEL 3
REMARK VINA RESULT:      -7.1      4.252      7.733
REMARK  Name = 
REMARK  12 active torsions:
REMARK  status: ('A' for Active; 'I' for Inactive)
REMARK    1  A    between atoms: C_1  and  C_2
REMARK    2  A    between atoms: C_3  and  N_4
REMARK    3  A    between atoms: N_4  and  C_5
REMARK    4  A    between atoms: C_6  and  C_7
REMARK    5  A    between atoms: C_13  and  C_14
REMARK    6  A    between atoms: C_15  and  C_16
REMARK    7  A    between atoms: N_18  and  C_19
REMARK    8  A    between atoms: N_18  and  C_20
REMARK    9  A    between atoms: C_20  and  C_21
REMARK   10  A    between atoms: C_21  and  N_22
REMARK   11  A    between atoms: N_22  and  C_23
REMARK   12  A    between atoms: N_22  and  C_24
REMARK                            x       y       z     vdW  Elec       q    Type
REMARK                         _______ _______ _______ _____ _____    ______ ____
ROOT
ATOM      1  C   UNL     1       0.280  10.557  20.004  0.00  0.00    +0.000 A 
ATOM      2  C   UNL     1      -0.244  10.445  21.309  0.00  0.00    +0.000 A 
ATOM      3  C   UNL     1       0.072   9.333  22.078  0.00  0.00    +0.000 A 
ATOM      4  N   UNL     1       0.845   8.300  21.686  0.00  0.00    +0.000 NA
ATOM      5  C   UNL     1       1.327   8.414  20.430  0.00  0.00    +0.000 A 
ATOM      6  S   UNL     1       2.300   7.179  19.761  0.00  0.00    +0.000 S 
ATOM      7  C   UNL     1       2.501   8.011  18.270  0.00  0.00    +0.000 A 
ATOM      8  C   UNL     1       1.836   9.223  18.330  0.00  0.00    +0.000 A 
ATOM      9  C   UNL     1       1.116   9.476  19.558  0.00  0.00    +0.000 A 
ENDROOT
BRANCH   1  10
ATOM     10  N   UNL     1       0.009  11.706  19.218  0.00  0.00    +0.000 N 
ATOM     11  H   UNL     1      -0.676  11.600  18.473  0.00  0.00    +0.000 HD
BRANCH  10  14
ATOM     12  C   UNL     1      -1.035  14.484  19.830  0.00  0.00    +0.000 C 
ATOM     13  C   UNL     1       0.319  14.177  19.249  0.00  0.00    +0.000 A 
ATOM     14  C   UNL     1       0.797  12.863  19.013  0.00  0.00    +0.000 A 
ATOM     15  C   UNL     1       2.124  12.665  18.585  0.00  0.00    +0.000 A 
ATOM     16  C   UNL     1       2.981  13.730  18.300  0.00  0.00    +0.000 A 
ATOM     17  C   UNL     1       2.450  15.014  18.416  0.00  0.00    +0.000 A 
ATOM     18  N   UNL     1       3.020  16.242  18.157  0.00  0.00    +0.000 N 
ATOM     19  C   UNL     1       2.111  17.242  18.371  0.00  0.00    +0.000 A 
ATOM     20  C   UNL     1       0.946  16.662  18.805  0.00  0.00    +0.000 A 
ATOM     21  C   UNL     1       1.152  15.255  18.861  0.00  0.00    +0.000 A 
ATOM     22  H   UNL     1       3.968  16.377  17.837  0.00  0.00    +0.000 HD
ENDBRANCH  10  14
ENDBRANCH   1  10
BRANCH   2  23
ATOM     23  C   UNL     1      -1.132  11.431  21.878  0.00  0.00    +0.000 C 
ATOM     24  N   UNL     1      -1.857  12.218  22.321  0.00  0.00    +0.000 NA
ENDBRANCH   2  23
BRANCH   7  25
ATOM     25  C   UNL     1       3.267   7.433  17.208  0.00  0.00    +0.000 C 
ATOM     26  C   UNL     1       4.519   6.988  17.416  0.00  0.00    +0.000 C 
BRANCH  26  27
ATOM     27  C   UNL     1       5.311   6.382  16.312  0.00  0.00    +0.000 C 
ATOM     28  O   UNL     1       5.247   6.877  15.189  0.00  0.00    +0.000 OA
ATOM     29  N   UNL     1       6.105   5.285  16.627  0.00  0.00    +0.000 N 
ATOM     30  C   UNL     1       6.182   4.643  17.935  0.00  0.00    +0.000 C 
BRANCH  29  31
ATOM     31  C   UNL     1       6.895   4.666  15.545  0.00  0.00    +0.000 C 
BRANCH  31  32
ATOM     32  C   UNL     1       6.048   3.835  14.549  0.00  0.00    +0.000 C 
BRANCH  32  33
ATOM     33  N   UNL     1       6.641   3.673  13.199  0.00  0.00    +0.000 NA
ATOM     34  C   UNL     1       5.628   3.343  12.188  0.00  0.00    +0.000 C 
ATOM     35  C   UNL     1       7.321   4.913  12.800  0.00  0.00    +0.000 C 
ENDBRANCH  32  33
ENDBRANCH  31  32
ENDBRANCH  29  31
ENDBRANCH  26  27
ENDBRANCH   7  25
TORSDOF 8
ENDMDL
MODEL 4
REMARK VINA RESULT:      -7.1      1.327      1.652
REMARK  Name = 
REMARK  12 active torsions:
REMARK  status: ('A' for Active; 'I' for Inactive)
REMARK    1  A    between atoms: C_1  and  C_2
REMARK    2  A    between atoms: C_3  and  N_4
REMARK    3  A    between atoms: N_4  and  C_5
REMARK    4  A    between atoms: C_6  and  C_7
REMARK    5  A    between atoms: C_13  and  C_14
REMARK    6  A    between atoms: C_15  and  C_16
REMARK    7  A    between atoms: N_18  and  C_19
REMARK    8  A    between atoms: N_18  and  C_20
REMARK    9  A    between atoms: C_20  and  C_21
REMARK   10  A    between atoms: C_21  and  N_22
REMARK   11  A    between atoms: N_22  and  C_23
REMARK   12  A    between atoms: N_22  and  C_24
REMARK                            x       y       z     vdW  Elec       q    Type
REMARK                         _______ _______ _______ _____ _____    ______ ____
ROOT
ATOM      1  C   UNL     1       3.796   5.756  18.128  0.00  0.00    +0.000 A 
ATOM      2  C   UNL     1       3.335   4.596  17.471  0.00  0.00    +0.000 A 
ATOM      3  C   UNL     1       4.177   3.929  16.592  0.00  0.00    +0.000 A 
ATOM      4  N   UNL     1       5.436   4.298  16.277  0.00  0.00    +0.000 NA
ATOM      5  C   UNL     1       5.858   5.418  16.902  0.00  0.00    +0.000 A 
ATOM      6  S   UNL     1       7.417   6.045  16.595  0.00  0.00    +0.000 S 
ATOM      7  C   UNL     1       7.212   7.355  17.689  0.00  0.00    +0.000 A 
ATOM      8  C   UNL     1       5.963   7.266  18.278  0.00  0.00    +0.000 A 
ATOM      9  C   UNL     1       5.137   6.172  17.821  0.00  0.00    +0.000 A 
ENDROOT
BRANCH   1  10
ATOM     10  N   UNL     1       2.969   6.426  19.066  0.00  0.00    +0.000 N 
ATOM     11  H   UNL     1       2.528   5.850  19.780  0.00  0.00    +0.000 HD
BRANCH  10  14
ATOM     12  C   UNL     1       1.370   7.598  21.357  0.00  0.00    +0.000 C 
ATOM     13  C   UNL     1       1.530   8.231  20.001  0.00  0.00    +0.000 A 
ATOM     14  C   UNL     1       2.320   7.679  18.960  0.00  0.00    +0.000 A 
ATOM     15  C   UNL     1       2.514   8.401  17.768  0.00  0.00    +0.000 A 
ATOM     16  C   UNL     1       1.884   9.625  17.527  0.00  0.00    +0.000 A 
ATOM     17  C   UNL     1       1.011  10.087  18.511  0.00  0.00    +0.000 A 
ATOM     18  N   UNL     1       0.216  11.213  18.540  0.00  0.00    +0.000 N 
ATOM     19  C   UNL     1      -0.517  11.247  19.694  0.00  0.00    +0.000 A 
ATOM     20  C   UNL     1      -0.172  10.149  20.441  0.00  0.00    +0.000 A 
ATOM     21  C   UNL     1       0.811   9.417  19.715  0.00  0.00    +0.000 A 
ATOM     22  H   UNL     1       0.171  11.901  17.802  0.00  0.00    +0.000 HD
ENDBRANCH  10  14
ENDBRANCH   1  10
BRANCH   2  23
ATOM     23  C   UNL     1       1.997   4.082  17.648  0.00  0.00    +0.000 C 
ATOM     24  N   UNL     1       0.932   3.651  17.792  0.00  0.00    +0.000 NA
ENDBRANCH   2  23
BRANCH   7  25
ATOM     25  C   UNL     1       8.253   8.320  17.876  0.00  0.00    +0.000 C 
ATOM     26  C   UNL     1       7.973   9.630  18.000  0.00  0.00    +0.000 C 
BRANCH  26  27
ATOM     27  C   UNL     1       9.056  10.629  18.201  0.00  0.00    +0.000 C 
ATOM     28  O   UNL     1      10.109  10.274  18.725  0.00  0.00    +0.000 OA
ATOM     29  N   UNL     1       8.815  11.925  17.757  0.00  0.00    +0.000 N 
ATOM     30  C   UNL     1       7.569  12.399  17.164  0.00  0.00    +0.000 C 
BRANCH  29  31
ATOM     31  C   UNL     1       9.874  12.934  17.950  0.00  0.00    +0.000 C 
BRANCH  31  32
ATOM     32  C   UNL     1       9.340  14.382  18.084  0.00  0.00    +0.000 C 
BRANCH  32  33
ATOM     33  N   UNL     1      10.272  15.443  17.628  0.00  0.00    +0.000 NA
ATOM     34  C   UNL     1      10.558  16.419  18.686  0.00  0.00    +0.000 C 
ATOM     35  C   UNL     1      11.537  14.840  17.185  0.00  0.00    +0.000 C 
ENDBRANCH  32  33
ENDBRANCH  31  32
ENDBRANCH  29  31
ENDBRANCH  26  27
ENDBRANCH   7  25
TORSDOF 8
ENDMDL
MODEL 5
REMARK VINA RESULT:      -7.0      1.364      1.727
REMARK  Name = 
REMARK  12 active torsions:
REMARK  status: ('A' for Active; 'I' for Inactive)
REMARK    1  A    between atoms: C_1  and  C_2
REMARK    2  A    between atoms: C_3  and  N_4
REMARK    3  A    between atoms: N_4  and  C_5
REMARK    4  A    between atoms: C_6  and  C_7
REMARK    5  A    between atoms: C_13  and  C_14
REMARK    6  A    between atoms: C_15  and  C_16
REMARK    7  A    between atoms: N_18  and  C_19
REMARK    8  A    between atoms: N_18  and  C_20
REMARK    9  A    between atoms: C_20  and  C_21
REMARK   10  A    between atoms: C_21  and  N_22
REMARK   11  A    between atoms: N_22  and  C_23
REMARK   12  A    between atoms: N_22  and  C_24
REMARK                            x       y       z     vdW  Elec       q    Type
REMARK                         _______ _______ _______ _____ _____    ______ ____
ROOT
ATOM      1  C   UNL     1       3.733   5.726  18.184  0.00  0.00    +0.000 A 
ATOM      2  C   UNL     1       3.256   4.542  17.584  0.00  0.00    +0.000 A 
ATOM      3  C   UNL     1       4.076   3.843  16.708  0.00  0.00    +0.000 A 
ATOM      4  N   UNL     1       5.324   4.202  16.344  0.00  0.00    +0.000 NA
ATOM      5  C   UNL     1       5.761   5.345  16.915  0.00  0.00    +0.000 A 
ATOM      6  S   UNL     1       7.309   5.962  16.541  0.00  0.00    +0.000 S 
ATOM      7  C   UNL     1       7.132   7.312  17.591  0.00  0.00    +0.000 A 
ATOM      8  C   UNL     1       5.900   7.244  18.217  0.00  0.00    +0.000 A 
ATOM      9  C   UNL     1       5.063   6.132  17.824  0.00  0.00    +0.000 A 
ENDROOT
BRANCH   1  10
ATOM     10  N   UNL     1       2.930   6.430  19.118  0.00  0.00    +0.000 N 
ATOM     11  H   UNL     1       2.489   5.877  19.850  0.00  0.00    +0.000 HD
BRANCH  10  14
ATOM     12  C   UNL     1       1.421   7.698  21.420  0.00  0.00    +0.000 C 
ATOM     13  C   UNL     1       1.553   8.288  20.042  0.00  0.00    +0.000 A 
ATOM     14  C   UNL     1       2.302   7.692  18.995  0.00  0.00    +0.000 A 
ATOM     15  C   UNL     1       2.476   8.376  17.777  0.00  0.00    +0.000 A 
ATOM     16  C   UNL     1       1.862   9.605  17.520  0.00  0.00    +0.000 A 
ATOM     17  C   UNL     1       1.027  10.112  18.514  0.00  0.00    +0.000 A 
ATOM     18  N   UNL     1       0.254  11.253  18.534  0.00  0.00    +0.000 N 
ATOM     19  C   UNL     1      -0.444  11.334  19.707  0.00  0.00    +0.000 A 
ATOM     20  C   UNL     1      -0.099  10.251  20.475  0.00  0.00    +0.000 A 
ATOM     21  C   UNL     1       0.849   9.480  19.743  0.00  0.00    +0.000 A 
ATOM     22  H   UNL     1       0.201  11.921  17.778  0.00  0.00    +0.000 HD
ENDBRANCH  10  14
ENDBRANCH   1  10
BRANCH   2  23
ATOM     23  C   UNL     1       1.925   4.033  17.817  0.00  0.00    +0.000 C 
ATOM     24  N   UNL     1       0.862   3.610  17.991  0.00  0.00    +0.000 NA
ENDBRANCH   2  23
BRANCH   7  25
ATOM     25  C   UNL     1       8.175   8.285  17.713  0.00  0.00    +0.000 C 
ATOM     26  C   UNL     1       7.915   9.532  18.142  0.00  0.00    +0.000 C 
BRANCH  26  27
ATOM     27  C   UNL     1       9.002  10.539  18.273  0.00  0.00    +0.000 C 
ATOM     28  O   UNL     1      10.062  10.211  18.803  0.00  0.00    +0.000 OA
ATOM     29  N   UNL     1       8.758  11.809  17.762  0.00  0.00    +0.000 N 
ATOM     30  C   UNL     1       7.505  12.253  17.161  0.00  0.00    +0.000 C 
BRANCH  29  31
ATOM     31  C   UNL     1       9.821  12.826  17.886  0.00  0.00    +0.000 C 
BRANCH  31  32
ATOM     32  C   UNL     1       9.441  14.020  18.796  0.00  0.00    +0.000 C 
BRANCH  32  33
ATOM     33  N   UNL     1       9.142  13.669  20.206  0.00  0.00    +0.000 NA
ATOM     34  C   UNL     1      10.235  14.047  21.111  0.00  0.00    +0.000 C 
ATOM     35  C   UNL     1       7.913  14.346  20.640  0.00  0.00    +0.000 C 
ENDBRANCH  32  33
ENDBRANCH  31  32
ENDBRANCH  29  31
ENDBRANCH  26  27
ENDBRANCH   7  25
TORSDOF 8
ENDMDL
MODEL 6
REMARK VINA RESULT:      -6.9      0.855      1.597
REMARK  Name = 
REMARK  12 active torsions:
REMARK  status: ('A' for Active; 'I' for Inactive)
REMARK    1  A    between atoms: C_1  and  C_2
REMARK    2  A    between atoms: C_3  and  N_4
REMARK    3  A    between atoms: N_4  and  C_5
REMARK    4  A    between atoms: C_6  and  C_7
REMARK    5  A    between atoms: C_13  and  C_14
REMARK    6  A    between atoms: C_15  and  C_16
REMARK    7  A    between atoms: N_18  and  C_19
REMARK    8  A    between atoms: N_18  and  C_20
REMARK    9  A    between atoms: C_20  and  C_21
REMARK   10  A    between atoms: C_21  and  N_22
REMARK   11  A    between atoms: N_22  and  C_23
REMARK   12  A    between atoms: N_22  and  C_24
REMARK                            x       y       z     vdW  Elec       q    Type
REMARK                         _______ _______ _______ _____ _____    ______ ____
ROOT
ATOM      1  C   UNL     1       3.793   6.144  17.677  0.00  0.00    +0.000 A 
ATOM      2  C   UNL     1       3.441   4.779  17.610  0.00  0.00    +0.000 A 
ATOM      3  C   UNL     1       4.441   3.818  17.563  0.00  0.00    +0.000 A 
ATOM      4  N   UNL     1       5.768   4.064  17.557  0.00  0.00    +0.000 NA
ATOM      5  C   UNL     1       6.089   5.375  17.607  0.00  0.00    +0.000 A 
ATOM      6  S   UNL     1       7.725   5.866  17.577  0.00  0.00    +0.000 S 
ATOM      7  C   UNL     1       7.326   7.535  17.677  0.00  0.00    +0.000 A 
ATOM      8  C   UNL     1       5.951   7.673  17.753  0.00  0.00    +0.000 A 
ATOM      9  C   UNL     1       5.199   6.440  17.682  0.00  0.00    +0.000 A 
ENDROOT
BRANCH   1  10
ATOM     10  N   UNL     1       2.787   7.140  17.774  0.00  0.00    +0.000 N 
ATOM     11  H   UNL     1       2.722   7.801  17.002  0.00  0.00    +0.000 HD
BRANCH  10  14
ATOM     12  C   UNL     1       1.476   9.871  17.799  0.00  0.00    +0.000 C 
ATOM     13  C   UNL     1       1.537   8.930  18.971  0.00  0.00    +0.000 A 
ATOM     14  C   UNL     1       2.121   7.639  18.918  0.00  0.00    +0.000 A 
ATOM     15  C   UNL     1       2.022   6.776  20.026  0.00  0.00    +0.000 A 
ATOM     16  C   UNL     1       1.432   7.174  21.229  0.00  0.00    +0.000 A 
ATOM     17  C   UNL     1       0.979   8.490  21.302  0.00  0.00    +0.000 A 
ATOM     18  N   UNL     1       0.410   9.181  22.351  0.00  0.00    +0.000 N 
ATOM     19  C   UNL     1       0.157  10.474  21.986  0.00  0.00    +0.000 A 
ATOM     20  C   UNL     1       0.533  10.621  20.675  0.00  0.00    +0.000 A 
ATOM     21  C   UNL     1       1.034   9.367  20.221  0.00  0.00    +0.000 A 
ATOM     22  H   UNL     1       0.228   8.788  23.263  0.00  0.00    +0.000 HD
ENDBRANCH  10  14
ENDBRANCH   1  10
BRANCH   2  23
ATOM     23  C   UNL     1       2.069   4.331  17.556  0.00  0.00    +0.000 C 
ATOM     24  N   UNL     1       0.967   3.984  17.497  0.00  0.00    +0.000 NA
ENDBRANCH   2  23
BRANCH   7  25
ATOM     25  C   UNL     1       8.353   8.533  17.678  0.00  0.00    +0.000 C 
ATOM     26  C   UNL     1       8.325   9.559  18.547  0.00  0.00    +0.000 C 
BRANCH  26  27
ATOM     27  C   UNL     1       9.397  10.590  18.550  0.00  0.00    +0.000 C 
ATOM     28  O   UNL     1       9.952  10.879  17.492  0.00  0.00    +0.000 OA
ATOM     29  N   UNL     1       9.697  11.192  19.767  0.00  0.00    +0.000 N 
ATOM     30  C   UNL     1       9.090  10.855  21.050  0.00  0.00    +0.000 C 
BRANCH  29  31
ATOM     31  C   UNL     1      10.760  12.216  19.793  0.00  0.00    +0.000 C 
BRANCH  31  32
ATOM     32  C   UNL     1      10.239  13.652  20.046  0.00  0.00    +0.000 C 
BRANCH  32  33
ATOM     33  N   UNL     1      10.116  14.501  18.835  0.00  0.00    +0.000 NA
ATOM     34  C   UNL     1      11.140  14.183  17.833  0.00  0.00    +0.000 C 
ATOM     35  C   UNL     1       8.789  14.320  18.231  0.00  0.00    +0.000 C 
ENDBRANCH  32  33
ENDBRANCH  31  32
ENDBRANCH  29  31
ENDBRANCH  26  27
ENDBRANCH   7  25
TORSDOF 8
ENDMDL
MODEL 7
REMARK VINA RESULT:      -6.8      4.331      7.730
REMARK  Name = 
REMARK  12 active torsions:
REMARK  status: ('A' for Active; 'I' for Inactive)
REMARK    1  A    between atoms: C_1  and  C_2
REMARK    2  A    between atoms: C_3  and  N_4
REMARK    3  A    between atoms: N_4  and  C_5
REMARK    4  A    between atoms: C_6  and  C_7
REMARK    5  A    between atoms: C_13  and  C_14
REMARK    6  A    between atoms: C_15  and  C_16
REMARK    7  A    between atoms: N_18  and  C_19
REMARK    8  A    between atoms: N_18  and  C_20
REMARK    9  A    between atoms: C_20  and  C_21
REMARK   10  A    between atoms: C_21  and  N_22
REMARK   11  A    between atoms: N_22  and  C_23
REMARK   12  A    between atoms: N_22  and  C_24
REMARK                            x       y       z     vdW  Elec       q    Type
REMARK                         _______ _______ _______ _____ _____    ______ ____
ROOT
ATOM      1  C   UNL     1       0.087  10.700  19.653  0.00  0.00    +0.000 A 
ATOM      2  C   UNL     1      -0.482  10.626  20.942  0.00  0.00    +0.000 A 
ATOM      3  C   UNL     1      -0.138   9.574  21.780  0.00  0.00    +0.000 A 
ATOM      4  N   UNL     1       0.703   8.565  21.471  0.00  0.00    +0.000 NA
ATOM      5  C   UNL     1       1.228   8.642  20.229  0.00  0.00    +0.000 A 
ATOM      6  S   UNL     1       2.290   7.429  19.663  0.00  0.00    +0.000 S 
ATOM      7  C   UNL     1       2.506   8.194  18.139  0.00  0.00    +0.000 A 
ATOM      8  C   UNL     1       1.776   9.370  18.110  0.00  0.00    +0.000 A 
ATOM      9  C   UNL     1       0.995   9.645  19.296  0.00  0.00    +0.000 A 
ENDROOT
BRANCH   1  10
ATOM     10  N   UNL     1      -0.213  11.792  18.798  0.00  0.00    +0.000 N 
ATOM     11  H   UNL     1      -0.552  11.563  17.866  0.00  0.00    +0.000 HD
BRANCH  10  14
ATOM     12  C   UNL     1       2.626  12.540  18.048  0.00  0.00    +0.000 C 
ATOM     13  C   UNL     1       1.581  13.501  18.547  0.00  0.00    +0.000 A 
ATOM     14  C   UNL     1       0.246  13.129  18.851  0.00  0.00    +0.000 A 
ATOM     15  C   UNL     1      -0.698  14.116  19.191  0.00  0.00    +0.000 A 
ATOM     16  C   UNL     1      -0.352  15.463  19.325  0.00  0.00    +0.000 A 
ATOM     17  C   UNL     1       0.992  15.788  19.148  0.00  0.00    +0.000 A 
ATOM     18  N   UNL     1       1.640  16.999  19.264  0.00  0.00    +0.000 N 
ATOM     19  C   UNL     1       2.980  16.844  19.042  0.00  0.00    +0.000 A 
ATOM     20  C   UNL     1       3.205  15.524  18.744  0.00  0.00    +0.000 A 
ATOM     21  C   UNL     1       1.953  14.847  18.785  0.00  0.00    +0.000 A 
ATOM     22  H   UNL     1       1.187  17.870  19.500  0.00  0.00    +0.000 HD
ENDBRANCH  10  14
ENDBRANCH   1  10
BRANCH   2  23
ATOM     23  C   UNL     1      -1.441  11.590  21.425  0.00  0.00    +0.000 C 
ATOM     24  N   UNL     1      -2.203  12.377  21.801  0.00  0.00    +0.000 NA
ENDBRANCH   2  23
BRANCH   7  25
ATOM     25  C   UNL     1       3.343   7.605  17.137  0.00  0.00    +0.000 C 
ATOM     26  C   UNL     1       4.434   6.896  17.473  0.00  0.00    +0.000 C 
BRANCH  26  27
ATOM     27  C   UNL     1       5.299   6.280  16.431  0.00  0.00    +0.000 C 
ATOM     28  O   UNL     1       5.303   6.758  15.298  0.00  0.00    +0.000 OA
ATOM     29  N   UNL     1       6.079   5.195  16.812  0.00  0.00    +0.000 N 
ATOM     30  C   UNL     1       6.078   4.573  18.132  0.00  0.00    +0.000 C 
BRANCH  29  31
ATOM     31  C   UNL     1       6.941   4.565  15.792  0.00  0.00    +0.000 C 
BRANCH  31  32
ATOM     32  C   UNL     1       6.160   3.758  14.726  0.00  0.00    +0.000 C 
BRANCH  32  33
ATOM     33  N   UNL     1       6.252   4.286  13.342  0.00  0.00    +0.000 NA
ATOM     34  C   UNL     1       7.534   4.956  13.092  0.00  0.00    +0.000 C 
ATOM     35  C   UNL     1       6.095   3.189  12.377  0.00  0.00    +0.000 C 
ENDBRANCH  32  33
ENDBRANCH  31  32
ENDBRANCH  29  31
ENDBRANCH  26  27
ENDBRANCH   7  25
TORSDOF 8
ENDMDL
MODEL 8
REMARK VINA RESULT:      -6.8      4.833      8.761
REMARK  Name = 
REMARK  12 active torsions:
REMARK  status: ('A' for Active; 'I' for Inactive)
REMARK    1  A    between atoms: C_1  and  C_2
REMARK    2  A    between atoms: C_3  and  N_4
REMARK    3  A    between atoms: N_4  and  C_5
REMARK    4  A    between atoms: C_6  and  C_7
REMARK    5  A    between atoms: C_13  and  C_14
REMARK    6  A    between atoms: C_15  and  C_16
REMARK    7  A    between atoms: N_18  and  C_19
REMARK    8  A    between atoms: N_18  and  C_20
REMARK    9  A    between atoms: C_20  and  C_21
REMARK   10  A    between atoms: C_21  and  N_22
REMARK   11  A    between atoms: N_22  and  C_23
REMARK   12  A    between atoms: N_22  and  C_24
REMARK                            x       y       z     vdW  Elec       q    Type
REMARK                         _______ _______ _______ _____ _____    ______ ____
ROOT
ATOM      1  C   UNL     1      -1.434  12.055  20.823  0.00  0.00    +0.000 A 
ATOM      2  C   UNL     1      -1.986  12.903  21.807  0.00  0.00    +0.000 A 
ATOM      3  C   UNL     1      -1.852  12.569  23.147  0.00  0.00    +0.000 A 
ATOM      4  N   UNL     1      -1.239  11.467  23.626  0.00  0.00    +0.000 NA
ATOM      5  C   UNL     1      -0.730  10.658  22.672  0.00  0.00    +0.000 A 
ATOM      6  S   UNL     1       0.053   9.202  23.101  0.00  0.00    +0.000 S 
ATOM      7  C   UNL     1       0.396   8.792  21.467  0.00  0.00    +0.000 A 
ATOM      8  C   UNL     1      -0.078   9.792  20.636  0.00  0.00    +0.000 A 
ATOM      9  C   UNL     1      -0.767  10.876  21.300  0.00  0.00    +0.000 A 
ENDROOT
BRANCH   1  10
ATOM     10  N   UNL     1      -1.518  12.401  19.450  0.00  0.00    +0.000 N 
ATOM     11  H   UNL     1      -1.199  13.333  19.193  0.00  0.00    +0.000 HD
BRANCH  10  14
ATOM     12  C   UNL     1      -0.457  10.338  17.502  0.00  0.00    +0.000 C 
ATOM     13  C   UNL     1      -1.846  10.915  17.478  0.00  0.00    +0.000 A 
ATOM     14  C   UNL     1      -2.329  11.850  18.430  0.00  0.00    +0.000 A 
ATOM     15  C   UNL     1      -3.681  12.242  18.406  0.00  0.00    +0.000 A 
ATOM     16  C   UNL     1      -4.566  11.805  17.417  0.00  0.00    +0.000 A 
ATOM     17  C   UNL     1      -4.038  10.988  16.417  0.00  0.00    +0.000 A 
ATOM     18  N   UNL     1      -4.636  10.449  15.298  0.00  0.00    +0.000 N 
ATOM     19  C   UNL     1      -3.723   9.740  14.567  0.00  0.00    +0.000 A 
ATOM     20  C   UNL     1      -2.525   9.789  15.233  0.00  0.00    +0.000 A 
ATOM     21  C   UNL     1      -2.714  10.556  16.418  0.00  0.00    +0.000 A 
ATOM     22  H   UNL     1      -5.605  10.580  15.048  0.00  0.00    +0.000 HD
ENDBRANCH  10  14
ENDBRANCH   1  10
BRANCH   2  23
ATOM     23  C   UNL     1      -2.721  14.102  21.478  0.00  0.00    +0.000 C 
ATOM     24  N   UNL     1      -3.324  15.052  21.208  0.00  0.00    +0.000 NA
ENDBRANCH   2  23
BRANCH   7  25
ATOM     25  C   UNL     1       1.080   7.575  21.147  0.00  0.00    +0.000 C 
ATOM     26  C   UNL     1       1.950   7.515  20.124  0.00  0.00    +0.000 C 
BRANCH  26  27
ATOM     27  C   UNL     1       2.663   6.251  19.797  0.00  0.00    +0.000 C 
ATOM     28  O   UNL     1       2.573   5.297  20.567  0.00  0.00    +0.000 OA
ATOM     29  N   UNL     1       3.385   6.217  18.610  0.00  0.00    +0.000 N 
ATOM     30  C   UNL     1       3.550   7.335  17.687  0.00  0.00    +0.000 C 
BRANCH  29  31
ATOM     31  C   UNL     1       4.104   4.973  18.268  0.00  0.00    +0.000 C 
BRANCH  31  32
ATOM     32  C   UNL     1       5.549   4.915  18.824  0.00  0.00    +0.000 C 
BRANCH  32  33
ATOM     33  N   UNL     1       6.620   4.926  17.797  0.00  0.00    +0.000 NA
ATOM     34  C   UNL     1       6.109   4.587  16.463  0.00  0.00    +0.000 C 
ATOM     35  C   UNL     1       7.244   6.256  17.741  0.00  0.00    +0.000 C 
ENDBRANCH  32  33
ENDBRANCH  31  32
ENDBRANCH  29  31
ENDBRANCH  26  27
ENDBRANCH   7  25
TORSDOF 8
ENDMDL
MODEL 9
REMARK VINA RESULT:      -6.8      1.104      1.842
REMARK  Name = 
REMARK  12 active torsions:
REMARK  status: ('A' for Active; 'I' for Inactive)
REMARK    1  A    between atoms: C_1  and  C_2
REMARK    2  A    between atoms: C_3  and  N_4
REMARK    3  A    between atoms: N_4  and  C_5
REMARK    4  A    between atoms: C_6  and  C_7
REMARK    5  A    between atoms: C_13  and  C_14
REMARK    6  A    between atoms: C_15  and  C_16
REMARK    7  A    between atoms: N_18  and  C_19
REMARK    8  A    between atoms: N_18  and  C_20
REMARK    9  A    between atoms: C_20  and  C_21
REMARK   10  A    between atoms: C_21  and  N_22
REMARK   11  A    between atoms: N_22  and  C_23
REMARK   12  A    between atoms: N_22  and  C_24
REMARK                            x       y       z     vdW  Elec       q    Type
REMARK                         _______ _______ _______ _____ _____    ______ ____
ROOT
ATOM      1  C   UNL     1       3.874   6.200  17.673  0.00  0.00    +0.000 A 
ATOM      2  C   UNL     1       3.545   4.830  17.597  0.00  0.00    +0.000 A 
ATOM      3  C   UNL     1       4.561   3.885  17.569  0.00  0.00    +0.000 A 
ATOM      4  N   UNL     1       5.883   4.151  17.591  0.00  0.00    +0.000 NA
ATOM      5  C   UNL     1       6.183   5.466  17.649  0.00  0.00    +0.000 A 
ATOM      6  S   UNL     1       7.811   5.983  17.653  0.00  0.00    +0.000 S 
ATOM      7  C   UNL     1       7.385   7.646  17.747  0.00  0.00    +0.000 A 
ATOM      8  C   UNL     1       6.007   7.761  17.795  0.00  0.00    +0.000 A 
ATOM      9  C   UNL     1       5.275   6.518  17.707  0.00  0.00    +0.000 A 
ENDROOT
BRANCH   1  10
ATOM     10  N   UNL     1       2.852   7.180  17.750  0.00  0.00    +0.000 N 
ATOM     11  H   UNL     1       2.783   7.832  16.971  0.00  0.00    +0.000 HD
BRANCH  10  14
ATOM     12  C   UNL     1       1.478   9.881  17.729  0.00  0.00    +0.000 C 
ATOM     13  C   UNL     1       1.553   8.958  18.915  0.00  0.00    +0.000 A 
ATOM     14  C   UNL     1       2.167   7.679  18.883  0.00  0.00    +0.000 A 
ATOM     15  C   UNL     1       2.080   6.830  20.003  0.00  0.00    +0.000 A 
ATOM     16  C   UNL     1       1.474   7.231  21.196  0.00  0.00    +0.000 A 
ATOM     17  C   UNL     1       0.990   8.538  21.248  0.00  0.00    +0.000 A 
ATOM     18  N   UNL     1       0.400   9.230  22.283  0.00  0.00    +0.000 N 
ATOM     19  C   UNL     1       0.119  10.512  21.899  0.00  0.00    +0.000 A 
ATOM     20  C   UNL     1       0.500  10.649  20.588  0.00  0.00    +0.000 A 
ATOM     21  C   UNL     1       1.032   9.401  20.155  0.00  0.00    +0.000 A 
ATOM     22  H   UNL     1       0.220   8.846  23.200  0.00  0.00    +0.000 HD
ENDBRANCH  10  14
ENDBRANCH   1  10
BRANCH   2  23
ATOM     23  C   UNL     1       2.182   4.361  17.514  0.00  0.00    +0.000 C 
ATOM     24  N   UNL     1       1.085   3.993  17.465  0.00  0.00    +0.000 NA
ENDBRANCH   2  23
BRANCH   7  25
ATOM     25  C   UNL     1       8.396   8.659  17.771  0.00  0.00    +0.000 C 
ATOM     26  C   UNL     1       8.131   9.894  18.231  0.00  0.00    +0.000 C 
BRANCH  26  27
ATOM     27  C   UNL     1       9.185  10.944  18.260  0.00  0.00    +0.000 C 
ATOM     28  O   UNL     1      10.288  10.671  18.729  0.00  0.00    +0.000 OA
ATOM     29  N   UNL     1       8.861  12.186  17.727  0.00  0.00    +0.000 N 
ATOM     30  C   UNL     1       7.556  12.564  17.195  0.00  0.00    +0.000 C 
BRANCH  29  31
ATOM     31  C   UNL     1       9.890  13.243  17.749  0.00  0.00    +0.000 C 
BRANCH  31  32
ATOM     32  C   UNL     1       9.952  14.027  19.083  0.00  0.00    +0.000 C 
BRANCH  32  33
ATOM     33  N   UNL     1       9.701  15.486  18.970  0.00  0.00    +0.000 NA
ATOM     34  C   UNL     1       9.588  15.919  17.572  0.00  0.00    +0.000 C 
ATOM     35  C   UNL     1       8.460  15.835  19.676  0.00  0.00    +0.000 C 
ENDBRANCH  32  33
ENDBRANCH  31  32
ENDBRANCH  29  31
ENDBRANCH  26  27
ENDBRANCH   7  25
TORSDOF 8
ENDMDL
