MODEL 1
REMARK VINA RESULT:      -8.1      0.000      0.000
REMARK  Name = 
REMARK  4 active torsions:
REMARK  status: ('A' for Active; 'I' for Inactive)
REMARK    1  A    between atoms: C_2  and  C_13
REMARK    2  A    between atoms: N_3  and  C_4
REMARK    3  A    between atoms: C_4  and  C_5
REMARK    4  A    between atoms: N_16  and  C_17
REMARK                            x       y       z     vdW  Elec       q    Type
REMARK                         _______ _______ _______ _____ _____    ______ ____
ROOT
ATOM      1  C   UNL     1       2.444   4.630  18.411  0.00  0.00    +0.000 C 
ATOM      2  C   UNL     1       2.121   5.888  17.591  0.00  0.00    +0.000 C 
ATOM      3  C   UNL     1       2.635   7.160  18.266  0.00  0.00    +0.000 C 
ATOM      4  N   UNL     1       2.080   7.205  19.616  0.00  0.00    +0.000 N 
ATOM      5  C   UNL     1       2.498   6.117  20.498  0.00  0.00    +0.000 C 
ATOM      6  C   UNL     1       2.021   4.797  19.888  0.00  0.00    +0.000 C 
ENDROOT
BRANCH   4   7
ATOM      7  C   UNL     1       1.491   8.346  20.109  0.00  0.00    +0.000 A 
ATOM      8  C   UNL     1       1.111   8.516  21.426  0.00  0.00    +0.000 A 
ATOM      9  N   UNL     1       0.456   9.591  21.923  0.00  0.00    +0.000 NA
ATOM     10  C   UNL     1       0.137  10.574  21.069  0.00  0.00    +0.000 A 
ATOM     11  N   UNL     1      -0.549  11.667  21.526  0.00  0.00    +0.000 N 
ATOM     12  C   UNL     1      -0.947  11.779  22.925  0.00  0.00    +0.000 C 
ATOM     13  C   UNL     1      -2.477  11.842  23.046  0.00  0.00    +0.000 C 
ATOM     14  O   UNL     1      -3.040  12.855  22.193  0.00  0.00    +0.000 OA
ATOM     15  C   UNL     1      -2.712  12.584  20.821  0.00  0.00    +0.000 C 
ATOM     16  C   UNL     1      -1.193  12.586  20.592  0.00  0.00    +0.000 C 
ATOM     17  N   UNL     1       0.475  10.529  19.774  0.00  0.00    +0.000 NA
ATOM     18  C   UNL     1       1.140   9.437  19.340  0.00  0.00    +0.000 A 
ENDBRANCH   4   7
BRANCH   1  20
ATOM     19  O   UNL     1       4.534   3.681  19.180  0.00  0.00    +0.000 OA
ATOM     20  C   UNL     1       3.922   4.264  18.292  0.00  0.00    +0.000 C 
ATOM     21  N   UNL     1       4.519   4.633  17.105  0.00  0.00    +0.000 N 
ATOM     22  H   UNL     1       3.936   4.871  16.311  0.00  0.00    +0.000 HD
BRANCH  21  23
ATOM     23  C   UNL     1       5.907   4.306  16.857  0.00  0.00    +0.000 C 
BRANCH  23  24
ATOM     24  C   UNL     1       6.232   4.349  15.389  0.00  0.00    +0.000 A 
ATOM     25  C   UNL     1       5.418   3.673  14.467  0.00  0.00    +0.000 A 
ATOM     26  C   UNL     1       5.723   3.698  13.107  0.00  0.00    +0.000 A 
ATOM     27  F   UNL     1       4.932   3.047  12.245  0.00  0.00    +0.000 F 
ATOM     28  C   UNL     1       6.829   4.387  12.634  0.00  0.00    +0.000 A 
ATOM     29  C   UNL     1       7.634   5.057  13.546  0.00  0.00    +0.000 A 
ATOM     30  F   UNL     1       8.709   5.728  13.104  0.00  0.00    +0.000 F 
ATOM     31  C   UNL     1       7.352   5.046  14.910  0.00  0.00    +0.000 A 
ENDBRANCH  23  24
ENDBRANCH  21  23
ENDBRANCH   1  20
TORSDOF 4
ENDMDL
MODEL 2
REMARK VINA RESULT:      -8.0      2.287      2.940
REMARK  Name = 
REMARK  4 active torsions:
REMARK  status: ('A' for Active; 'I' for Inactive)
REMARK    1  A    between atoms: C_2  and  C_13
REMARK    2  A    between atoms: N_3  and  C_4
REMARK    3  A    between atoms: C_4  and  C_5
REMARK    4  A    between atoms: N_16  and  C_17
REMARK                            x       y       z     vdW  Elec       q    Type
REMARK                         _______ _______ _______ _____ _____    ______ ____
ROOT
ATOM      1  C   UNL     1       2.046   4.429  18.673  0.00  0.00    +0.000 C 
ATOM      2  C   UNL     1       1.664   5.641  17.810  0.00  0.00    +0.000 C 
ATOM      3  C   UNL     1       2.259   6.941  18.351  0.00  0.00    +0.000 C 
ATOM      4  N   UNL     1       1.839   7.081  19.742  0.00  0.00    +0.000 N 
ATOM      5  C   UNL     1       2.324   6.040  20.647  0.00  0.00    +0.000 C 
ATOM      6  C   UNL     1       1.771   4.696  20.170  0.00  0.00    +0.000 C 
ENDROOT
BRANCH   4   7
ATOM      7  C   UNL     1       1.317   8.261  20.217  0.00  0.00    +0.000 A 
ATOM      8  C   UNL     1       0.828   8.435  21.498  0.00  0.00    +0.000 A 
ATOM      9  N   UNL     1       0.234   9.557  21.967  0.00  0.00    +0.000 NA
ATOM     10  C   UNL     1       0.098  10.588  21.122  0.00  0.00    +0.000 A 
ATOM     11  N   UNL     1      -0.521  11.731  21.549  0.00  0.00    +0.000 N 
ATOM     12  C   UNL     1      -1.042  11.847  22.907  0.00  0.00    +0.000 C 
ATOM     13  C   UNL     1      -2.563  12.059  22.884  0.00  0.00    +0.000 C 
ATOM     14  O   UNL     1      -2.938  13.145  22.018  0.00  0.00    +0.000 OA
ATOM     15  C   UNL     1      -2.505  12.878  20.674  0.00  0.00    +0.000 C 
ATOM     16  C   UNL     1      -0.978  12.734  20.591  0.00  0.00    +0.000 C 
ATOM     17  N   UNL     1       0.555  10.542  19.864  0.00  0.00    +0.000 NA
ATOM     18  C   UNL     1       1.150   9.402  19.457  0.00  0.00    +0.000 A 
ENDBRANCH   4   7
BRANCH   1  20
ATOM     19  O   UNL     1       4.119   3.298  19.203  0.00  0.00    +0.000 OA
ATOM     20  C   UNL     1       3.500   4.026  18.436  0.00  0.00    +0.000 C 
ATOM     21  N   UNL     1       4.066   4.539  17.288  0.00  0.00    +0.000 N 
ATOM     22  H   UNL     1       3.463   4.911  16.563  0.00  0.00    +0.000 HD
BRANCH  21  23
ATOM     23  C   UNL     1       5.426   4.196  16.932  0.00  0.00    +0.000 C 
BRANCH  23  24
ATOM     24  C   UNL     1       6.415   5.163  17.523  0.00  0.00    +0.000 A 
ATOM     25  C   UNL     1       7.217   4.775  18.607  0.00  0.00    +0.000 A 
ATOM     26  C   UNL     1       8.126   5.672  19.167  0.00  0.00    +0.000 A 
ATOM     27  F   UNL     1       8.882   5.281  20.200  0.00  0.00    +0.000 F 
ATOM     28  C   UNL     1       8.258   6.960  18.672  0.00  0.00    +0.000 A 
ATOM     29  C   UNL     1       7.464   7.344  17.599  0.00  0.00    +0.000 A 
ATOM     30  F   UNL     1       7.580   8.587  17.107  0.00  0.00    +0.000 F 
ATOM     31  C   UNL     1       6.549   6.467  17.022  0.00  0.00    +0.000 A 
ENDBRANCH  23  24
ENDBRANCH  21  23
ENDBRANCH   1  20
TORSDOF 4
ENDMDL
MODEL 3
REMARK VINA RESULT:      -7.9      4.122     10.139
REMARK  Name = 
REMARK  4 active torsions:
REMARK  status: ('A' for Active; 'I' for Inactive)
REMARK    1  A    between atoms: C_2  and  C_13
REMARK    2  A    between atoms: N_3  and  C_4
REMARK    3  A    between atoms: C_4  and  C_5
REMARK    4  A    between atoms: N_16  and  C_17
REMARK                            x       y       z     vdW  Elec       q    Type
REMARK                         _______ _______ _______ _____ _____    ______ ____
ROOT
ATOM      1  C   UNL     1      -0.256  11.473  22.341  0.00  0.00    +0.000 C 
ATOM      2  C   UNL     1       0.522  11.803  21.057  0.00  0.00    +0.000 C 
ATOM      3  C   UNL     1       0.271  10.774  19.955  0.00  0.00    +0.000 C 
ATOM      4  N   UNL     1       0.596   9.456  20.492  0.00  0.00    +0.000 N 
ATOM      5  C   UNL     1      -0.235   9.016  21.612  0.00  0.00    +0.000 C 
ATOM      6  C   UNL     1      -0.043  10.003  22.765  0.00  0.00    +0.000 C 
ENDROOT
BRANCH   4   7
ATOM      7  C   UNL     1       1.385   8.574  19.792  0.00  0.00    +0.000 A 
ATOM      8  C   UNL     1       1.821   7.360  20.288  0.00  0.00    +0.000 A 
ATOM      9  N   UNL     1       2.664   6.509  19.657  0.00  0.00    +0.000 NA
ATOM     10  C   UNL     1       3.128   6.873  18.453  0.00  0.00    +0.000 A 
ATOM     11  N   UNL     1       4.003   6.054  17.794  0.00  0.00    +0.000 N 
ATOM     12  C   UNL     1       4.449   4.795  18.380  0.00  0.00    +0.000 C 
ATOM     13  C   UNL     1       5.969   4.810  18.599  0.00  0.00    +0.000 C 
ATOM     14  O   UNL     1       6.678   5.183  17.404  0.00  0.00    +0.000 OA
ATOM     15  C   UNL     1       6.275   6.496  16.980  0.00  0.00    +0.000 C 
ATOM     16  C   UNL     1       4.774   6.549  16.656  0.00  0.00    +0.000 C 
ATOM     17  N   UNL     1       2.756   8.016  17.863  0.00  0.00    +0.000 NA
ATOM     18  C   UNL     1       1.902   8.816  18.535  0.00  0.00    +0.000 A 
ENDBRANCH   4   7
BRANCH   1  20
ATOM     19  O   UNL     1      -2.550  11.660  23.089  0.00  0.00    +0.000 OA
ATOM     20  C   UNL     1      -1.739  11.799  22.181  0.00  0.00    +0.000 C 
ATOM     21  N   UNL     1      -2.100  12.269  20.936  0.00  0.00    +0.000 N 
ATOM     22  H   UNL     1      -1.381  12.611  20.309  0.00  0.00    +0.000 HD
BRANCH  21  23
ATOM     23  C   UNL     1      -3.471  12.651  20.673  0.00  0.00    +0.000 C 
BRANCH  23  24
ATOM     24  C   UNL     1      -3.922  12.196  19.312  0.00  0.00    +0.000 A 
ATOM     25  C   UNL     1      -2.995  11.661  18.406  0.00  0.00    +0.000 A 
ATOM     26  C   UNL     1      -3.405  11.249  17.138  0.00  0.00    +0.000 A 
ATOM     27  F   UNL     1      -2.503  10.741  16.290  0.00  0.00    +0.000 F 
ATOM     28  C   UNL     1      -4.729  11.358  16.745  0.00  0.00    +0.000 A 
ATOM     29  C   UNL     1      -5.648  11.886  17.642  0.00  0.00    +0.000 A 
ATOM     30  F   UNL     1      -6.934  11.998  17.277  0.00  0.00    +0.000 F 
ATOM     31  C   UNL     1      -5.263  12.306  18.914  0.00  0.00    +0.000 A 
ENDBRANCH  23  24
ENDBRANCH  21  23
ENDBRANCH   1  20
TORSDOF 4
ENDMDL
MODEL 4
REMARK VINA RESULT:      -7.9      2.300      2.986
REMARK  Name = 
REMARK  4 active torsions:
REMARK  status: ('A' for Active; 'I' for Inactive)
REMARK    1  A    between atoms: C_2  and  C_13
REMARK    2  A    between atoms: N_3  and  C_4
REMARK    3  A    between atoms: C_4  and  C_5
REMARK    4  A    between atoms: N_16  and  C_17
REMARK                            x       y       z     vdW  Elec       q    Type
REMARK                         _______ _______ _______ _____ _____    ______ ____
ROOT
ATOM      1  C   UNL     1       2.056   4.752  18.506  0.00  0.00    +0.000 C 
ATOM      2  C   UNL     1       1.749   6.022  17.698  0.00  0.00    +0.000 C 
ATOM      3  C   UNL     1       2.313   7.276  18.364  0.00  0.00    +0.000 C 
ATOM      4  N   UNL     1       1.791   7.332  19.727  0.00  0.00    +0.000 N 
ATOM      5  C   UNL     1       2.199   6.229  20.596  0.00  0.00    +0.000 C 
ATOM      6  C   UNL     1       1.672   4.925  19.992  0.00  0.00    +0.000 C 
ENDROOT
BRANCH   4   7
ATOM      7  C   UNL     1       1.245   8.486  20.237  0.00  0.00    +0.000 A 
ATOM      8  C   UNL     1       0.768   8.614  21.528  0.00  0.00    +0.000 A 
ATOM      9  N   UNL     1       0.151   9.709  22.033  0.00  0.00    +0.000 NA
ATOM     10  C   UNL     1      -0.022  10.757  21.216  0.00  0.00    +0.000 A 
ATOM     11  N   UNL     1      -0.664  11.873  21.679  0.00  0.00    +0.000 N 
ATOM     12  C   UNL     1      -1.171  11.940  23.046  0.00  0.00    +0.000 C 
ATOM     13  C   UNL     1      -2.697  12.114  23.046  0.00  0.00    +0.000 C 
ATOM     14  O   UNL     1      -3.111  13.211  22.212  0.00  0.00    +0.000 OA
ATOM     15  C   UNL     1      -2.688  12.989  20.857  0.00  0.00    +0.000 C 
ATOM     16  C   UNL     1      -1.158  12.887  20.753  0.00  0.00    +0.000 C 
ATOM     17  N   UNL     1       0.421  10.755  19.952  0.00  0.00    +0.000 NA
ATOM     18  C   UNL     1       1.040   9.640  19.509  0.00  0.00    +0.000 A 
ENDBRANCH   4   7
BRANCH   1  20
ATOM     19  O   UNL     1       4.144   3.767  19.232  0.00  0.00    +0.000 OA
ATOM     20  C   UNL     1       3.520   4.346  18.351  0.00  0.00    +0.000 C 
ATOM     21  N   UNL     1       4.089   4.674  17.138  0.00  0.00    +0.000 N 
ATOM     22  H   UNL     1       3.488   4.909  16.357  0.00  0.00    +0.000 HD
BRANCH  21  23
ATOM     23  C   UNL     1       5.460   4.306  16.855  0.00  0.00    +0.000 C 
BRANCH  23  24
ATOM     24  C   UNL     1       6.433   5.245  17.512  0.00  0.00    +0.000 A 
ATOM     25  C   UNL     1       6.568   6.561  17.042  0.00  0.00    +0.000 A 
ATOM     26  C   UNL     1       7.479   7.432  17.638  0.00  0.00    +0.000 A 
ATOM     27  F   UNL     1       7.589   8.683  17.175  0.00  0.00    +0.000 F 
ATOM     28  C   UNL     1       8.268   7.024  18.701  0.00  0.00    +0.000 A 
ATOM     29  C   UNL     1       8.135   5.722  19.167  0.00  0.00    +0.000 A 
ATOM     30  F   UNL     1       8.893   5.311  20.196  0.00  0.00    +0.000 F 
ATOM     31  C   UNL     1       7.234   4.832  18.588  0.00  0.00    +0.000 A 
ENDBRANCH  23  24
ENDBRANCH  21  23
ENDBRANCH   1  20
TORSDOF 4
ENDMDL
MODEL 5
REMARK VINA RESULT:      -7.9      4.479     10.700
REMARK  Name = 
REMARK  4 active torsions:
REMARK  status: ('A' for Active; 'I' for Inactive)
REMARK    1  A    between atoms: C_2  and  C_13
REMARK    2  A    between atoms: N_3  and  C_4
REMARK    3  A    between atoms: C_4  and  C_5
REMARK    4  A    between atoms: N_16  and  C_17
REMARK                            x       y       z     vdW  Elec       q    Type
REMARK                         _______ _______ _______ _____ _____    ______ ____
ROOT
ATOM      1  C   UNL     1      -0.259  12.322  21.520  0.00  0.00    +0.000 C 
ATOM      2  C   UNL     1       1.026  12.429  20.684  0.00  0.00    +0.000 C 
ATOM      3  C   UNL     1       0.962  11.572  19.421  0.00  0.00    +0.000 C 
ATOM      4  N   UNL     1       0.661  10.202  19.825  0.00  0.00    +0.000 N 
ATOM      5  C   UNL     1      -0.636  10.014  20.473  0.00  0.00    +0.000 C 
ATOM      6  C   UNL     1      -0.655  10.848  21.756  0.00  0.00    +0.000 C 
ENDROOT
BRANCH   4   7
ATOM      7  C   UNL     1       1.384   9.138  19.338  0.00  0.00    +0.000 A 
ATOM      8  C   UNL     1       1.682   8.004  20.069  0.00  0.00    +0.000 A 
ATOM      9  N   UNL     1       2.460   6.979  19.647  0.00  0.00    +0.000 NA
ATOM     10  C   UNL     1       2.995   7.068  18.421  0.00  0.00    +0.000 A 
ATOM     11  N   UNL     1       3.808   6.066  17.967  0.00  0.00    +0.000 N 
ATOM     12  C   UNL     1       4.110   4.903  18.795  0.00  0.00    +0.000 C 
ATOM     13  C   UNL     1       5.616   4.823  19.083  0.00  0.00    +0.000 C 
ATOM     14  O   UNL     1       6.396   4.902  17.876  0.00  0.00    +0.000 OA
ATOM     15  C   UNL     1       6.137   6.143  17.200  0.00  0.00    +0.000 C 
ATOM     16  C   UNL     1       4.659   6.269  16.798  0.00  0.00    +0.000 C 
ATOM     17  N   UNL     1       2.755   8.110  17.615  0.00  0.00    +0.000 NA
ATOM     18  C   UNL     1       1.961   9.095  18.086  0.00  0.00    +0.000 A 
ENDBRANCH   4   7
BRANCH   1  20
ATOM     19  O   UNL     1      -1.213  13.933  19.986  0.00  0.00    +0.000 OA
ATOM     20  C   UNL     1      -1.397  13.110  20.875  0.00  0.00    +0.000 C 
ATOM     21  N   UNL     1      -2.654  12.821  21.364  0.00  0.00    +0.000 N 
ATOM     22  H   UNL     1      -2.793  11.971  21.897  0.00  0.00    +0.000 HD
BRANCH  21  23
ATOM     23  C   UNL     1      -3.819  13.472  20.804  0.00  0.00    +0.000 C 
BRANCH  23  24
ATOM     24  C   UNL     1      -4.680  12.506  20.039  0.00  0.00    +0.000 A 
ATOM     25  C   UNL     1      -5.918  12.100  20.560  0.00  0.00    +0.000 A 
ATOM     26  C   UNL     1      -6.715  11.194  19.861  0.00  0.00    +0.000 A 
ATOM     27  F   UNL     1      -7.893  10.823  20.376  0.00  0.00    +0.000 F 
ATOM     28  C   UNL     1      -6.306  10.675  18.643  0.00  0.00    +0.000 A 
ATOM     29  C   UNL     1      -5.082  11.076  18.126  0.00  0.00    +0.000 A 
ATOM     30  F   UNL     1      -4.672  10.582  16.947  0.00  0.00    +0.000 F 
ATOM     31  C   UNL     1      -4.267  11.979  18.805  0.00  0.00    +0.000 A 
ENDBRANCH  23  24
ENDBRANCH  21  23
ENDBRANCH   1  20
TORSDOF 4
ENDMDL
MODEL 6
REMARK VINA RESULT:      -7.9      4.112     10.076
REMARK  Name = 
REMARK  4 active torsions:
REMARK  status: ('A' for Active; 'I' for Inactive)
REMARK    1  A    between atoms: C_2  and  C_13
REMARK    2  A    between atoms: N_3  and  C_4
REMARK    3  A    between atoms: C_4  and  C_5
REMARK    4  A    between atoms: N_16  and  C_17
REMARK                            x       y       z     vdW  Elec       q    Type
REMARK                         _______ _______ _______ _____ _____    ______ ____
ROOT
ATOM      1  C   UNL     1      -0.148  11.439  22.246  0.00  0.00    +0.000 C 
ATOM      2  C   UNL     1       0.640  11.760  20.966  0.00  0.00    +0.000 C 
ATOM      3  C   UNL     1       0.377  10.740  19.859  0.00  0.00    +0.000 C 
ATOM      4  N   UNL     1       0.678   9.415  20.392  0.00  0.00    +0.000 N 
ATOM      5  C   UNL     1      -0.165   8.985  21.507  0.00  0.00    +0.000 C 
ATOM      6  C   UNL     1       0.040   9.963  22.665  0.00  0.00    +0.000 C 
ENDROOT
BRANCH   4   7
ATOM      7  C   UNL     1       1.456   8.522  19.692  0.00  0.00    +0.000 A 
ATOM      8  C   UNL     1       1.873   7.301  20.187  0.00  0.00    +0.000 A 
ATOM      9  N   UNL     1       2.706   6.440  19.555  0.00  0.00    +0.000 NA
ATOM     10  C   UNL     1       3.176   6.799  18.352  0.00  0.00    +0.000 A 
ATOM     11  N   UNL     1       4.040   5.969  17.693  0.00  0.00    +0.000 N 
ATOM     12  C   UNL     1       4.467   4.702  18.278  0.00  0.00    +0.000 C 
ATOM     13  C   UNL     1       5.987   4.696  18.499  0.00  0.00    +0.000 C 
ATOM     14  O   UNL     1       6.703   5.061  17.305  0.00  0.00    +0.000 OA
ATOM     15  C   UNL     1       6.319   6.380  16.882  0.00  0.00    +0.000 C 
ATOM     16  C   UNL     1       4.819   6.454  16.557  0.00  0.00    +0.000 C 
ATOM     17  N   UNL     1       2.821   7.948  17.764  0.00  0.00    +0.000 NA
ATOM     18  C   UNL     1       1.977   8.760  18.436  0.00  0.00    +0.000 A 
ENDBRANCH   4   7
BRANCH   1  20
ATOM     19  O   UNL     1      -2.454  11.598  22.963  0.00  0.00    +0.000 OA
ATOM     20  C   UNL     1      -1.625  11.789  22.081  0.00  0.00    +0.000 C 
ATOM     21  N   UNL     1      -1.958  12.346  20.864  0.00  0.00    +0.000 N 
ATOM     22  H   UNL     1      -1.225  12.722  20.275  0.00  0.00    +0.000 HD
BRANCH  21  23
ATOM     23  C   UNL     1      -3.321  12.758  20.602  0.00  0.00    +0.000 C 
BRANCH  23  24
ATOM     24  C   UNL     1      -3.805  12.258  19.269  0.00  0.00    +0.000 A 
ATOM     25  C   UNL     1      -5.171  12.308  18.953  0.00  0.00    +0.000 A 
ATOM     26  C   UNL     1      -5.628  11.832  17.724  0.00  0.00    +0.000 A 
ATOM     27  F   UNL     1      -6.935  11.891  17.443  0.00  0.00    +0.000 F 
ATOM     28  C   UNL     1      -4.750  11.303  16.791  0.00  0.00    +0.000 A 
ATOM     29  C   UNL     1      -3.398  11.255  17.104  0.00  0.00    +0.000 A 
ATOM     30  F   UNL     1      -2.535  10.745  16.211  0.00  0.00    +0.000 F 
ATOM     31  C   UNL     1      -2.917  11.722  18.325  0.00  0.00    +0.000 A 
ENDBRANCH  23  24
ENDBRANCH  21  23
ENDBRANCH   1  20
TORSDOF 4
ENDMDL
MODEL 7
REMARK VINA RESULT:      -7.9      5.521     11.572
REMARK  Name = 
REMARK  4 active torsions:
REMARK  status: ('A' for Active; 'I' for Inactive)
REMARK    1  A    between atoms: C_2  and  C_13
REMARK    2  A    between atoms: N_3  and  C_4
REMARK    3  A    between atoms: C_4  and  C_5
REMARK    4  A    between atoms: N_16  and  C_17
REMARK                            x       y       z     vdW  Elec       q    Type
REMARK                         _______ _______ _______ _____ _____    ______ ____
ROOT
ATOM      1  C   UNL     1       0.360  12.087  20.249  0.00  0.00    +0.000 C 
ATOM      2  C   UNL     1       1.244  11.594  19.093  0.00  0.00    +0.000 C 
ATOM      3  C   UNL     1       0.877  10.177  18.654  0.00  0.00    +0.000 C 
ATOM      4  N   UNL     1       0.946   9.313  19.829  0.00  0.00    +0.000 N 
ATOM      5  C   UNL     1      -0.002   9.634  20.895  0.00  0.00    +0.000 C 
ATOM      6  C   UNL     1       0.298  11.050  21.392  0.00  0.00    +0.000 C 
ENDROOT
BRANCH   4   7
ATOM      7  C   UNL     1       1.608   8.108  19.793  0.00  0.00    +0.000 A 
ATOM      8  C   UNL     1       2.455   7.719  18.774  0.00  0.00    +0.000 A 
ATOM      9  N   UNL     1       3.054   6.509  18.669  0.00  0.00    +0.000 NA
ATOM     10  C   UNL     1       2.803   5.605  19.626  0.00  0.00    +0.000 A 
ATOM     11  N   UNL     1       3.368   4.362  19.544  0.00  0.00    +0.000 N 
ATOM     12  C   UNL     1       4.235   3.998  18.428  0.00  0.00    +0.000 C 
ATOM     13  C   UNL     1       3.629   2.831  17.634  0.00  0.00    +0.000 C 
ATOM     14  O   UNL     1       3.279   1.728  18.488  0.00  0.00    +0.000 OA
ATOM     15  C   UNL     1       2.315   2.148  19.467  0.00  0.00    +0.000 C 
ATOM     16  C   UNL     1       2.873   3.262  20.366  0.00  0.00    +0.000 C 
ATOM     17  N   UNL     1       2.016   5.880  20.674  0.00  0.00    +0.000 NA
ATOM     18  C   UNL     1       1.457   7.107  20.731  0.00  0.00    +0.000 A 
ENDBRANCH   4   7
BRANCH   1  20
ATOM     19  O   UNL     1      -1.279  12.698  18.575  0.00  0.00    +0.000 OA
ATOM     20  C   UNL     1      -1.037  12.453  19.751  0.00  0.00    +0.000 C 
ATOM     21  N   UNL     1      -2.013  12.481  20.725  0.00  0.00    +0.000 N 
ATOM     22  H   UNL     1      -1.836  12.029  21.615  0.00  0.00    +0.000 HD
BRANCH  21  23
ATOM     23  C   UNL     1      -3.385  12.775  20.372  0.00  0.00    +0.000 C 
BRANCH  23  24
ATOM     24  C   UNL     1      -4.274  12.810  21.584  0.00  0.00    +0.000 A 
ATOM     25  C   UNL     1      -3.719  12.700  22.868  0.00  0.00    +0.000 A 
ATOM     26  C   UNL     1      -4.541  12.718  23.995  0.00  0.00    +0.000 A 
ATOM     27  F   UNL     1      -3.989  12.614  25.210  0.00  0.00    +0.000 F 
ATOM     28  C   UNL     1      -5.916  12.844  23.875  0.00  0.00    +0.000 A 
ATOM     29  C   UNL     1      -6.465  12.953  22.605  0.00  0.00    +0.000 A 
ATOM     30  F   UNL     1      -7.795  13.075  22.473  0.00  0.00    +0.000 F 
ATOM     31  C   UNL     1      -5.667  12.936  21.464  0.00  0.00    +0.000 A 
ENDBRANCH  23  24
ENDBRANCH  21  23
ENDBRANCH   1  20
TORSDOF 4
ENDMDL
MODEL 8
REMARK VINA RESULT:      -7.8      2.320      3.748
REMARK  Name = 
REMARK  4 active torsions:
REMARK  status: ('A' for Active; 'I' for Inactive)
REMARK    1  A    between atoms: C_2  and  C_13
REMARK    2  A    between atoms: N_3  and  C_4
REMARK    3  A    between atoms: C_4  and  C_5
REMARK    4  A    between atoms: N_16  and  C_17
REMARK                            x       y       z     vdW  Elec       q    Type
REMARK                         _______ _______ _______ _____ _____    ______ ____
ROOT
ATOM      1  C   UNL     1       6.329   4.617  17.180  0.00  0.00    +0.000 C 
ATOM      2  C   UNL     1       4.854   4.191  17.126  0.00  0.00    +0.000 C 
ATOM      3  C   UNL     1       3.923   5.374  16.863  0.00  0.00    +0.000 C 
ATOM      4  N   UNL     1       4.184   6.383  17.885  0.00  0.00    +0.000 N 
ATOM      5  C   UNL     1       5.530   6.953  17.870  0.00  0.00    +0.000 C 
ATOM      6  C   UNL     1       6.530   5.823  18.124  0.00  0.00    +0.000 C 
ENDROOT
BRANCH   4   7
ATOM      7  C   UNL     1       3.157   6.981  18.578  0.00  0.00    +0.000 A 
ATOM      8  C   UNL     1       2.627   8.218  18.266  0.00  0.00    +0.000 A 
ATOM      9  N   UNL     1       1.676   8.868  18.977  0.00  0.00    +0.000 NA
ATOM     10  C   UNL     1       1.210   8.270  20.083  0.00  0.00    +0.000 A 
ATOM     11  N   UNL     1       0.267   8.905  20.844  0.00  0.00    +0.000 N 
ATOM     12  C   UNL     1      -0.237  10.225  20.479  0.00  0.00    +0.000 C 
ATOM     13  C   UNL     1       0.092  11.249  21.575  0.00  0.00    +0.000 C 
ATOM     14  O   UNL     1      -0.332  10.799  22.873  0.00  0.00    +0.000 OA
ATOM     15  C   UNL     1       0.323   9.564  23.207  0.00  0.00    +0.000 C 
ATOM     16  C   UNL     1      -0.022   8.453  22.202  0.00  0.00    +0.000 C 
ATOM     17  N   UNL     1       1.633   7.061  20.470  0.00  0.00    +0.000 NA
ATOM     18  C   UNL     1       2.573   6.456  19.713  0.00  0.00    +0.000 A 
ENDBRANCH   4   7
BRANCH   1  20
ATOM     19  O   UNL     1       7.765   5.715  15.570  0.00  0.00    +0.000 OA
ATOM     20  C   UNL     1       6.866   4.909  15.780  0.00  0.00    +0.000 C 
ATOM     21  N   UNL     1       6.266   4.191  14.766  0.00  0.00    +0.000 N 
ATOM     22  H   UNL     1       5.725   3.366  14.998  0.00  0.00    +0.000 HD
BRANCH  21  23
ATOM     23  C   UNL     1       6.716   4.349  13.400  0.00  0.00    +0.000 C 
BRANCH  23  24
ATOM     24  C   UNL     1       5.983   3.427  12.465  0.00  0.00    +0.000 A 
ATOM     25  C   UNL     1       4.732   3.798  11.947  0.00  0.00    +0.000 A 
ATOM     26  C   UNL     1       4.042   2.941  11.091  0.00  0.00    +0.000 A 
ATOM     27  F   UNL     1       2.851   3.317  10.608  0.00  0.00    +0.000 F 
ATOM     28  C   UNL     1       4.569   1.711  10.732  0.00  0.00    +0.000 A 
ATOM     29  C   UNL     1       5.807   1.344  11.244  0.00  0.00    +0.000 A 
ATOM     30  F   UNL     1       6.331   0.155  10.906  0.00  0.00    +0.000 F 
ATOM     31  C   UNL     1       6.516   2.181  12.102  0.00  0.00    +0.000 A 
ENDBRANCH  23  24
ENDBRANCH  21  23
ENDBRANCH   1  20
TORSDOF 4
ENDMDL
MODEL 9
REMARK VINA RESULT:      -7.8      0.586      1.608
REMARK  Name = 
REMARK  4 active torsions:
REMARK  status: ('A' for Active; 'I' for Inactive)
REMARK    1  A    between atoms: C_2  and  C_13
REMARK    2  A    between atoms: N_3  and  C_4
REMARK    3  A    between atoms: C_4  and  C_5
REMARK    4  A    between atoms: N_16  and  C_17
REMARK                            x       y       z     vdW  Elec       q    Type
REMARK                         _______ _______ _______ _____ _____    ______ ____
ROOT
ATOM      1  C   UNL     1       2.547   5.363  18.215  0.00  0.00    +0.000 C 
ATOM      2  C   UNL     1       2.185   6.644  17.448  0.00  0.00    +0.000 C 
ATOM      3  C   UNL     1       2.597   7.904  18.208  0.00  0.00    +0.000 C 
ATOM      4  N   UNL     1       1.989   7.846  19.533  0.00  0.00    +0.000 N 
ATOM      5  C   UNL     1       2.434   6.737  20.376  0.00  0.00    +0.000 C 
ATOM      6  C   UNL     1       2.058   5.428  19.679  0.00  0.00    +0.000 C 
ENDROOT
BRANCH   4   7
ATOM      7  C   UNL     1       1.316   8.925  20.059  0.00  0.00    +0.000 A 
ATOM      8  C   UNL     1       1.025   9.079  21.401  0.00  0.00    +0.000 A 
ATOM      9  N   UNL     1       0.294  10.085  21.936  0.00  0.00    +0.000 NA
ATOM     10  C   UNL     1      -0.199  11.009  21.100  0.00  0.00    +0.000 A 
ATOM     11  N   UNL     1      -0.965  12.027  21.597  0.00  0.00    +0.000 N 
ATOM     12  C   UNL     1      -1.262  12.123  23.022  0.00  0.00    +0.000 C 
ATOM     13  C   UNL     1      -2.775  12.019  23.265  0.00  0.00    +0.000 C 
ATOM     14  O   UNL     1      -3.513  12.946  22.449  0.00  0.00    +0.000 OA
ATOM     15  C   UNL     1      -3.266  12.685  21.058  0.00  0.00    +0.000 C 
ATOM     16  C   UNL     1      -1.779  12.851  20.707  0.00  0.00    +0.000 C 
ATOM     17  N   UNL     1       0.039  10.974  19.782  0.00  0.00    +0.000 NA
ATOM     18  C   UNL     1       0.785   9.954  19.309  0.00  0.00    +0.000 A 
ENDBRANCH   4   7
BRANCH   1  20
ATOM     19  O   UNL     1       4.789   5.186  19.111  0.00  0.00    +0.000 OA
ATOM     20  C   UNL     1       4.048   5.087  18.140  0.00  0.00    +0.000 C 
ATOM     21  N   UNL     1       4.508   4.710  16.896  0.00  0.00    +0.000 N 
ATOM     22  H   UNL     1       3.844   4.392  16.199  0.00  0.00    +0.000 HD
BRANCH  21  23
ATOM     23  C   UNL     1       5.904   4.381  16.706  0.00  0.00    +0.000 C 
BRANCH  23  24
ATOM     24  C   UNL     1       6.276   4.362  15.249  0.00  0.00    +0.000 A 
ATOM     25  C   UNL     1       7.371   5.111  14.792  0.00  0.00    +0.000 A 
ATOM     26  C   UNL     1       7.712   5.108  13.440  0.00  0.00    +0.000 A 
ATOM     27  F   UNL     1       8.761   5.828  13.026  0.00  0.00    +0.000 F 
ATOM     28  C   UNL     1       6.983   4.370  12.520  0.00  0.00    +0.000 A 
ATOM     29  C   UNL     1       5.900   3.628  12.972  0.00  0.00    +0.000 A 
ATOM     30  F   UNL     1       5.184   2.908  12.094  0.00  0.00    +0.000 F 
ATOM     31  C   UNL     1       5.538   3.615  14.317  0.00  0.00    +0.000 A 
ENDBRANCH  23  24
ENDBRANCH  21  23
ENDBRANCH   1  20
TORSDOF 4
ENDMDL
