MODEL 1
REMARK VINA RESULT:      -7.2      0.000      0.000
REMARK  Name = 
REMARK  0 active torsions:
REMARK  status: ('A' for Active; 'I' for Inactive)
REMARK                            x       y       z     vdW  Elec       q    Type
REMARK                         _______ _______ _______ _____ _____    ______ ____
ROOT
ATOM      1  O   UNL     1      -3.116  11.733  23.914  0.00  0.00    +0.000 OA
ATOM      2  C   UNL     1      -2.411  12.211  23.025  0.00  0.00    +0.000 C 
ATOM      3  C   UNL     1      -1.332  11.379  22.504  0.00  0.00    +0.000 A 
ATOM      4  C   UNL     1      -0.945  10.273  23.272  0.00  0.00    +0.000 A 
ATOM      5  C   UNL     1       0.115   9.485  22.849  0.00  0.00    +0.000 A 
ATOM      6  C   UNL     1       0.749   9.842  21.675  0.00  0.00    +0.000 A 
ATOM      7  N   UNL     1       0.394  10.913  20.921  0.00  0.00    +0.000 NA
ATOM      8  C   UNL     1      -0.654  11.686  21.337  0.00  0.00    +0.000 A 
ATOM      9  S   UNL     1      -1.021  13.058  20.290  0.00  0.00    +0.000 S 
ATOM     10  C   UNL     1      -2.470  13.756  21.092  0.00  0.00    +0.000 C 
ATOM     11  C   UNL     1      -3.784  13.304  20.523  0.00  0.00    +0.000 A 
ATOM     12  N   UNL     1      -4.055  12.903  19.242  0.00  0.00    +0.000 N 
ATOM     13  C   UNL     1      -5.201  12.133  19.256  0.00  0.00    +0.000 A 
ATOM     14  C   UNL     1      -5.760  11.323  18.263  0.00  0.00    +0.000 A 
ATOM     15  C   UNL     1      -6.825  10.497  18.632  0.00  0.00    +0.000 A 
ATOM     16  C   UNL     1      -7.332  10.506  19.933  0.00  0.00    +0.000 A 
ATOM     17  C   UNL     1      -6.825  11.392  20.885  0.00  0.00    +0.000 A 
ATOM     18  C   UNL     1      -5.744  12.222  20.540  0.00  0.00    +0.000 A 
ATOM     19  C   UNL     1      -4.948  13.142  21.263  0.00  0.00    +0.000 A 
ATOM     20  C   UNL     1      -5.066  13.602  22.685  0.00  0.00    +0.000 C 
ATOM     21  C   UNL     1      -3.718  14.200  23.162  0.00  0.00    +0.000 C 
ATOM     22  N   UNL     1      -2.581  13.508  22.534  0.00  0.00    +0.000 N 
ATOM     23  H   UNL     1      -3.420  12.966  18.457  0.00  0.00    +0.000 HD
ENDROOT
TORSDOF 0
ENDMDL
MODEL 2
REMARK VINA RESULT:      -6.9      3.653      5.162
REMARK  Name = 
REMARK  0 active torsions:
REMARK  status: ('A' for Active; 'I' for Inactive)
REMARK                            x       y       z     vdW  Elec       q    Type
REMARK                         _______ _______ _______ _____ _____    ______ ____
ROOT
ATOM      1  O   UNL     1       1.893  11.806  18.865  0.00  0.00    +0.000 OA
ATOM      2  C   UNL     1       1.166  12.568  19.504  0.00  0.00    +0.000 C 
ATOM      3  C   UNL     1       1.172  13.976  19.125  0.00  0.00    +0.000 A 
ATOM      4  C   UNL     1       2.238  14.425  18.333  0.00  0.00    +0.000 A 
ATOM      5  C   UNL     1       2.320  15.767  17.996  0.00  0.00    +0.000 A 
ATOM      6  C   UNL     1       1.333  16.608  18.471  0.00  0.00    +0.000 A 
ATOM      7  N   UNL     1       0.297  16.195  19.244  0.00  0.00    +0.000 NA
ATOM      8  C   UNL     1       0.215  14.870  19.572  0.00  0.00    +0.000 A 
ATOM      9  S   UNL     1      -1.162  14.445  20.590  0.00  0.00    +0.000 S 
ATOM     10  C   UNL     1      -0.985  12.662  20.725  0.00  0.00    +0.000 C 
ATOM     11  C   UNL     1      -1.800  11.872  19.742  0.00  0.00    +0.000 A 
ATOM     12  N   UNL     1      -2.987  12.223  19.157  0.00  0.00    +0.000 N 
ATOM     13  C   UNL     1      -3.143  11.484  18.000  0.00  0.00    +0.000 A 
ATOM     14  C   UNL     1      -4.057  11.623  16.953  0.00  0.00    +0.000 A 
ATOM     15  C   UNL     1      -3.845  10.850  15.808  0.00  0.00    +0.000 A 
ATOM     16  C   UNL     1      -2.781   9.950  15.728  0.00  0.00    +0.000 A 
ATOM     17  C   UNL     1      -1.935   9.753  16.822  0.00  0.00    +0.000 A 
ATOM     18  C   UNL     1      -2.122  10.531  17.979  0.00  0.00    +0.000 A 
ATOM     19  C   UNL     1      -1.414  10.655  19.198  0.00  0.00    +0.000 A 
ATOM     20  C   UNL     1      -0.220   9.895  19.696  0.00  0.00    +0.000 C 
ATOM     21  C   UNL     1       0.488  10.696  20.817  0.00  0.00    +0.000 C 
ATOM     22  N   UNL     1       0.381  12.146  20.580  0.00  0.00    +0.000 N 
ATOM     23  H   UNL     1      -3.549  13.030  19.398  0.00  0.00    +0.000 HD
ENDROOT
TORSDOF 0
ENDMDL
MODEL 3
REMARK VINA RESULT:      -6.6      6.100     10.410
REMARK  Name = 
REMARK  0 active torsions:
REMARK  status: ('A' for Active; 'I' for Inactive)
REMARK                            x       y       z     vdW  Elec       q    Type
REMARK                         _______ _______ _______ _____ _____    ______ ____
ROOT
ATOM      1  O   UNL     1       2.325   5.520  21.000  0.00  0.00    +0.000 OA
ATOM      2  C   UNL     1       1.983   6.230  20.053  0.00  0.00    +0.000 C 
ATOM      3  C   UNL     1       1.680   7.627  20.339  0.00  0.00    +0.000 A 
ATOM      4  C   UNL     1       1.446   7.975  21.677  0.00  0.00    +0.000 A 
ATOM      5  C   UNL     1       1.096   9.278  21.993  0.00  0.00    +0.000 A 
ATOM      6  C   UNL     1       0.989  10.182  20.954  0.00  0.00    +0.000 A 
ATOM      7  N   UNL     1       1.205   9.865  19.653  0.00  0.00    +0.000 NA
ATOM      8  C   UNL     1       1.553   8.580  19.343  0.00  0.00    +0.000 A 
ATOM      9  S   UNL     1       1.797   8.275  17.623  0.00  0.00    +0.000 S 
ATOM     10  C   UNL     1       2.319   6.555  17.623  0.00  0.00    +0.000 C 
ATOM     11  C   UNL     1       3.806   6.348  17.604  0.00  0.00    +0.000 A 
ATOM     12  N   UNL     1       4.765   7.171  17.076  0.00  0.00    +0.000 N 
ATOM     13  C   UNL     1       5.974   6.879  17.677  0.00  0.00    +0.000 A 
ATOM     14  C   UNL     1       7.189   7.569  17.648  0.00  0.00    +0.000 A 
ATOM     15  C   UNL     1       8.192   7.140  18.522  0.00  0.00    +0.000 A 
ATOM     16  C   UNL     1       7.998   6.045  19.365  0.00  0.00    +0.000 A 
ATOM     17  C   UNL     1       6.813   5.308  19.310  0.00  0.00    +0.000 A 
ATOM     18  C   UNL     1       5.785   5.730  18.448  0.00  0.00    +0.000 A 
ATOM     19  C   UNL     1       4.461   5.288  18.215  0.00  0.00    +0.000 A 
ATOM     20  C   UNL     1       3.726   4.115  18.793  0.00  0.00    +0.000 C 
ATOM     21  C   UNL     1       2.197   4.321  18.641  0.00  0.00    +0.000 C 
ATOM     22  N   UNL     1       1.843   5.746  18.750  0.00  0.00    +0.000 N 
ATOM     23  H   UNL     1       4.592   7.995  16.513  0.00  0.00    +0.000 HD
ENDROOT
TORSDOF 0
ENDMDL
MODEL 4
REMARK VINA RESULT:      -6.4      3.452      5.144
REMARK  Name = 
REMARK  0 active torsions:
REMARK  status: ('A' for Active; 'I' for Inactive)
REMARK                            x       y       z     vdW  Elec       q    Type
REMARK                         _______ _______ _______ _____ _____    ______ ____
ROOT
ATOM      1  O   UNL     1       1.427  13.075  19.187  0.00  0.00    +0.000 OA
ATOM      2  C   UNL     1       0.527  13.652  19.800  0.00  0.00    +0.000 C 
ATOM      3  C   UNL     1       0.219  15.021  19.406  0.00  0.00    +0.000 A 
ATOM      4  C   UNL     1       1.173  15.700  18.635  0.00  0.00    +0.000 A 
ATOM      5  C   UNL     1       0.953  17.023  18.285  0.00  0.00    +0.000 A 
ATOM      6  C   UNL     1      -0.213  17.617  18.727  0.00  0.00    +0.000 A 
ATOM      7  N   UNL     1      -1.146  16.980  19.479  0.00  0.00    +0.000 NA
ATOM      8  C   UNL     1      -0.929  15.673  19.820  0.00  0.00    +0.000 A 
ATOM      9  S   UNL     1      -2.198  14.948  20.808  0.00  0.00    +0.000 S 
ATOM     10  C   UNL     1      -1.619  13.254  20.967  0.00  0.00    +0.000 C 
ATOM     11  C   UNL     1      -2.204  12.292  19.973  0.00  0.00    +0.000 A 
ATOM     12  N   UNL     1      -3.424  12.357  19.355  0.00  0.00    +0.000 N 
ATOM     13  C   UNL     1      -3.375  11.597  18.203  0.00  0.00    +0.000 A 
ATOM     14  C   UNL     1      -4.269  11.517  17.132  0.00  0.00    +0.000 A 
ATOM     15  C   UNL     1      -3.855  10.808  16.001  0.00  0.00    +0.000 A 
ATOM     16  C   UNL     1      -2.610  10.177  15.957  0.00  0.00    +0.000 A 
ATOM     17  C   UNL     1      -1.771  10.186  17.073  0.00  0.00    +0.000 A 
ATOM     18  C   UNL     1      -2.162  10.905  18.216  0.00  0.00    +0.000 A 
ATOM     19  C   UNL     1      -1.534  11.195  19.451  0.00  0.00    +0.000 A 
ATOM     20  C   UNL     1      -0.211  10.733  19.986  0.00  0.00    +0.000 C 
ATOM     21  C   UNL     1       0.264  11.681  21.116  0.00  0.00    +0.000 C 
ATOM     22  N   UNL     1      -0.167  13.065  20.860  0.00  0.00    +0.000 N 
ATOM     23  H   UNL     1      -4.163  13.015  19.573  0.00  0.00    +0.000 HD
ENDROOT
TORSDOF 0
ENDMDL
MODEL 5
REMARK VINA RESULT:      -6.4      2.226      5.638
REMARK  Name = 
REMARK  0 active torsions:
REMARK  status: ('A' for Active; 'I' for Inactive)
REMARK                            x       y       z     vdW  Elec       q    Type
REMARK                         _______ _______ _______ _____ _____    ______ ____
ROOT
ATOM      1  O   UNL     1      -4.539  13.189  19.791  0.00  0.00    +0.000 OA
ATOM      2  C   UNL     1      -4.599  13.440  20.995  0.00  0.00    +0.000 C 
ATOM      3  C   UNL     1      -5.668  12.808  21.759  0.00  0.00    +0.000 A 
ATOM      4  C   UNL     1      -6.743  12.270  21.039  0.00  0.00    +0.000 A 
ATOM      5  C   UNL     1      -7.812  11.712  21.722  0.00  0.00    +0.000 A 
ATOM      6  C   UNL     1      -7.765  11.720  23.102  0.00  0.00    +0.000 A 
ATOM      7  N   UNL     1      -6.737  12.242  23.819  0.00  0.00    +0.000 NA
ATOM      8  C   UNL     1      -5.681  12.789  23.143  0.00  0.00    +0.000 A 
ATOM      9  S   UNL     1      -4.408  13.448  24.171  0.00  0.00    +0.000 S 
ATOM     10  C   UNL     1      -3.191  13.975  22.959  0.00  0.00    +0.000 C 
ATOM     11  C   UNL     1      -2.098  12.980  22.690  0.00  0.00    +0.000 A 
ATOM     12  N   UNL     1      -1.594  12.032  23.540  0.00  0.00    +0.000 N 
ATOM     13  C   UNL     1      -0.986  11.046  22.788  0.00  0.00    +0.000 A 
ATOM     14  C   UNL     1      -0.523   9.780  23.158  0.00  0.00    +0.000 A 
ATOM     15  C   UNL     1      -0.134   8.914  22.133  0.00  0.00    +0.000 A 
ATOM     16  C   UNL     1      -0.173   9.310  20.795  0.00  0.00    +0.000 A 
ATOM     17  C   UNL     1      -0.545  10.612  20.452  0.00  0.00    +0.000 A 
ATOM     18  C   UNL     1      -0.955  11.495  21.466  0.00  0.00    +0.000 A 
ATOM     19  C   UNL     1      -1.469  12.813  21.464  0.00  0.00    +0.000 A 
ATOM     20  C   UNL     1      -1.676  13.761  20.320  0.00  0.00    +0.000 C 
ATOM     21  C   UNL     1      -2.700  14.855  20.717  0.00  0.00    +0.000 C 
ATOM     22  N   UNL     1      -3.719  14.317  21.634  0.00  0.00    +0.000 N 
ATOM     23  H   UNL     1      -1.813  11.944  24.524  0.00  0.00    +0.000 HD
ENDROOT
TORSDOF 0
ENDMDL
MODEL 6
REMARK VINA RESULT:      -6.4      3.950      5.550
REMARK  Name = 
REMARK  0 active torsions:
REMARK  status: ('A' for Active; 'I' for Inactive)
REMARK                            x       y       z     vdW  Elec       q    Type
REMARK                         _______ _______ _______ _____ _____    ______ ____
ROOT
ATOM      1  O   UNL     1      -5.730  12.078  21.627  0.00  0.00    +0.000 OA
ATOM      2  C   UNL     1      -6.289  12.821  20.820  0.00  0.00    +0.000 C 
ATOM      3  C   UNL     1      -5.828  14.203  20.750  0.00  0.00    +0.000 A 
ATOM      4  C   UNL     1      -5.060  14.681  21.821  0.00  0.00    +0.000 A 
ATOM      5  C   UNL     1      -4.648  16.004  21.828  0.00  0.00    +0.000 A 
ATOM      6  C   UNL     1      -5.028  16.799  20.765  0.00  0.00    +0.000 A 
ATOM      7  N   UNL     1      -5.776  16.358  19.722  0.00  0.00    +0.000 NA
ATOM      8  C   UNL     1      -6.178  15.051  19.714  0.00  0.00    +0.000 A 
ATOM      9  S   UNL     1      -7.155  14.588  18.320  0.00  0.00    +0.000 S 
ATOM     10  C   UNL     1      -7.403  12.832  18.610  0.00  0.00    +0.000 C 
ATOM     11  C   UNL     1      -6.433  11.933  17.900  0.00  0.00    +0.000 A 
ATOM     12  N   UNL     1      -5.775  12.166  16.722  0.00  0.00    +0.000 N 
ATOM     13  C   UNL     1      -4.658  11.355  16.674  0.00  0.00    +0.000 A 
ATOM     14  C   UNL     1      -3.563  11.371  15.805  0.00  0.00    +0.000 A 
ATOM     15  C   UNL     1      -2.477  10.552  16.125  0.00  0.00    +0.000 A 
ATOM     16  C   UNL     1      -2.499   9.726  17.250  0.00  0.00    +0.000 A 
ATOM     17  C   UNL     1      -3.640   9.651  18.052  0.00  0.00    +0.000 A 
ATOM     18  C   UNL     1      -4.739  10.476  17.757  0.00  0.00    +0.000 A 
ATOM     19  C   UNL     1      -5.979  10.718  18.394  0.00  0.00    +0.000 A 
ATOM     20  C   UNL     1      -6.575  10.072  19.610  0.00  0.00    +0.000 C 
ATOM     21  C   UNL     1      -7.678  10.983  20.206  0.00  0.00    +0.000 C 
ATOM     22  N   UNL     1      -7.351  12.406  20.013  0.00  0.00    +0.000 N 
ATOM     23  H   UNL     1      -5.942  12.944  16.096  0.00  0.00    +0.000 HD
ENDROOT
TORSDOF 0
ENDMDL
MODEL 7
REMARK VINA RESULT:      -6.3      3.023      3.673
REMARK  Name = 
REMARK  0 active torsions:
REMARK  status: ('A' for Active; 'I' for Inactive)
REMARK                            x       y       z     vdW  Elec       q    Type
REMARK                         _______ _______ _______ _____ _____    ______ ____
ROOT
ATOM      1  O   UNL     1      -5.063  12.218  24.269  0.00  0.00    +0.000 OA
ATOM      2  C   UNL     1      -5.130  13.376  23.854  0.00  0.00    +0.000 C 
ATOM      3  C   UNL     1      -3.885  14.015  23.446  0.00  0.00    +0.000 A 
ATOM      4  C   UNL     1      -2.688  13.430  23.880  0.00  0.00    +0.000 A 
ATOM      5  C   UNL     1      -1.480  14.033  23.568  0.00  0.00    +0.000 A 
ATOM      6  C   UNL     1      -1.519  15.205  22.838  0.00  0.00    +0.000 A 
ATOM      7  N   UNL     1      -2.666  15.791  22.413  0.00  0.00    +0.000 NA
ATOM      8  C   UNL     1      -3.857  15.193  22.719  0.00  0.00    +0.000 A 
ATOM      9  S   UNL     1      -5.285  16.046  22.130  0.00  0.00    +0.000 S 
ATOM     10  C   UNL     1      -6.609  14.938  22.630  0.00  0.00    +0.000 C 
ATOM     11  C   UNL     1      -7.064  13.980  21.567  0.00  0.00    +0.000 A 
ATOM     12  N   UNL     1      -7.027  14.149  20.208  0.00  0.00    +0.000 N 
ATOM     13  C   UNL     1      -7.068  12.905  19.609  0.00  0.00    +0.000 A 
ATOM     14  C   UNL     1      -6.840  12.531  18.282  0.00  0.00    +0.000 A 
ATOM     15  C   UNL     1      -6.752  11.164  18.007  0.00  0.00    +0.000 A 
ATOM     16  C   UNL     1      -6.921  10.210  19.012  0.00  0.00    +0.000 A 
ATOM     17  C   UNL     1      -7.247  10.600  20.312  0.00  0.00    +0.000 A 
ATOM     18  C   UNL     1      -7.325  11.971  20.615  0.00  0.00    +0.000 A 
ATOM     19  C   UNL     1      -7.533  12.697  21.812  0.00  0.00    +0.000 A 
ATOM     20  C   UNL     1      -7.830  12.201  23.196  0.00  0.00    +0.000 C 
ATOM     21  C   UNL     1      -7.482  13.296  24.237  0.00  0.00    +0.000 C 
ATOM     22  N   UNL     1      -6.327  14.095  23.797  0.00  0.00    +0.000 N 
ATOM     23  H   UNL     1      -6.789  15.007  19.726  0.00  0.00    +0.000 HD
ENDROOT
TORSDOF 0
ENDMDL
MODEL 8
REMARK VINA RESULT:      -6.3      8.113     11.614
REMARK  Name = 
REMARK  0 active torsions:
REMARK  status: ('A' for Active; 'I' for Inactive)
REMARK                            x       y       z     vdW  Elec       q    Type
REMARK                         _______ _______ _______ _____ _____    ______ ____
ROOT
ATOM      1  O   UNL     1       5.350  15.129  17.573  0.00  0.00    +0.000 OA
ATOM      2  C   UNL     1       5.332  15.298  18.792  0.00  0.00    +0.000 C 
ATOM      3  C   UNL     1       4.267  14.647  19.545  0.00  0.00    +0.000 A 
ATOM      4  C   UNL     1       3.156  14.189  18.823  0.00  0.00    +0.000 A 
ATOM      5  C   UNL     1       2.090  13.616  19.499  0.00  0.00    +0.000 A 
ATOM      6  C   UNL     1       2.178  13.529  20.875  0.00  0.00    +0.000 A 
ATOM      7  N   UNL     1       3.240  13.971  21.593  0.00  0.00    +0.000 NA
ATOM      8  C   UNL     1       4.292  14.533  20.924  0.00  0.00    +0.000 A 
ATOM      9  S   UNL     1       5.613  15.085  21.955  0.00  0.00    +0.000 S 
ATOM     10  C   UNL     1       6.811  15.659  20.744  0.00  0.00    +0.000 C 
ATOM     11  C   UNL     1       7.865  14.654  20.376  0.00  0.00    +0.000 A 
ATOM     12  N   UNL     1       8.365  13.637  21.144  0.00  0.00    +0.000 N 
ATOM     13  C   UNL     1       8.921  12.687  20.309  0.00  0.00    +0.000 A 
ATOM     14  C   UNL     1       9.356  11.387  20.579  0.00  0.00    +0.000 A 
ATOM     15  C   UNL     1       9.690  10.582  19.486  0.00  0.00    +0.000 A 
ATOM     16  C   UNL     1       9.625  11.070  18.180  0.00  0.00    +0.000 A 
ATOM     17  C   UNL     1       9.282  12.402  17.937  0.00  0.00    +0.000 A 
ATOM     18  C   UNL     1       8.928  13.225  19.020  0.00  0.00    +0.000 A 
ATOM     19  C   UNL     1       8.454  14.554  19.123  0.00  0.00    +0.000 A 
ATOM     20  C   UNL     1       8.243  15.583  18.052  0.00  0.00    +0.000 C 
ATOM     21  C   UNL     1       7.264  16.675  18.552  0.00  0.00    +0.000 C 
ATOM     22  N   UNL     1       6.256  16.106  19.462  0.00  0.00    +0.000 N 
ATOM     23  H   UNL     1       8.171  13.488  22.127  0.00  0.00    +0.000 HD
ENDROOT
TORSDOF 0
ENDMDL
MODEL 9
REMARK VINA RESULT:      -6.2      2.622      3.627
REMARK  Name = 
REMARK  0 active torsions:
REMARK  status: ('A' for Active; 'I' for Inactive)
REMARK                            x       y       z     vdW  Elec       q    Type
REMARK                         _______ _______ _______ _____ _____    ______ ____
ROOT
ATOM      1  O   UNL     1      -0.490  10.345  22.045  0.00  0.00    +0.000 OA
ATOM      2  C   UNL     1       0.297  10.508  21.113  0.00  0.00    +0.000 C 
ATOM      3  C   UNL     1       0.899   9.316  20.526  0.00  0.00    +0.000 A 
ATOM      4  C   UNL     1       0.834   8.130  21.270  0.00  0.00    +0.000 A 
ATOM      5  C   UNL     1       1.442   6.984  20.782  0.00  0.00    +0.000 A 
ATOM      6  C   UNL     1       2.098   7.073  19.570  0.00  0.00    +0.000 A 
ATOM      7  N   UNL     1       2.178   8.213  18.838  0.00  0.00    +0.000 NA
ATOM      8  C   UNL     1       1.574   9.342  19.318  0.00  0.00    +0.000 A 
ATOM      9  S   UNL     1       1.752  10.767  18.294  0.00  0.00    +0.000 S 
ATOM     10  C   UNL     1       0.775  11.985  19.185  0.00  0.00    +0.000 C 
ATOM     11  C   UNL     1      -0.638  12.135  18.701  0.00  0.00    +0.000 A 
ATOM     12  N   UNL     1      -1.125  11.915  17.440  0.00  0.00    +0.000 N 
ATOM     13  C   UNL     1      -2.486  11.691  17.527  0.00  0.00    +0.000 A 
ATOM     14  C   UNL     1      -3.388  11.212  16.573  0.00  0.00    +0.000 A 
ATOM     15  C   UNL     1      -4.677  10.895  17.011  0.00  0.00    +0.000 A 
ATOM     16  C   UNL     1      -5.057  11.081  18.341  0.00  0.00    +0.000 A 
ATOM     17  C   UNL     1      -4.172  11.652  19.258  0.00  0.00    +0.000 A 
ATOM     18  C   UNL     1      -2.866  11.966  18.843  0.00  0.00    +0.000 A 
ATOM     19  C   UNL     1      -1.718  12.453  19.513  0.00  0.00    +0.000 A 
ATOM     20  C   UNL     1      -1.551  12.886  20.939  0.00  0.00    +0.000 C 
ATOM     21  C   UNL     1      -0.052  12.857  21.329  0.00  0.00    +0.000 C 
ATOM     22  N   UNL     1       0.655  11.770  20.631  0.00  0.00    +0.000 N 
ATOM     23  H   UNL     1      -0.569  11.727  16.616  0.00  0.00    +0.000 HD
ENDROOT
TORSDOF 0
ENDMDL
