MODEL 1
REMARK VINA RESULT:      -8.6      0.000      0.000
REMARK  Name = 
REMARK  9 active torsions:
REMARK  status: ('A' for Active; 'I' for Inactive)
REMARK    1  A    between atoms: C_1  and  N_2
REMARK    2  A    between atoms: C_7  and  C_8
REMARK    3  A    between atoms: C_11  and  N_12
REMARK    4  A    between atoms: N_15  and  C_16
REMARK    5  A    between atoms: C_23  and  O_24
REMARK    6  A    between atoms: O_24  and  C_25
REMARK    7  A    between atoms: C_26  and  O_27
REMARK    8  A    between atoms: O_27  and  C_28
REMARK    9  A    between atoms: C_32  and  C_33
REMARK                            x       y       z     vdW  Elec       q    Type
REMARK                         _______ _______ _______ _____ _____    ______ ____
ROOT
ATOM      1  C   UNL     1       5.480   0.987  21.906  0.00  0.00    +0.000 C 
ATOM      2  N   UNL     1       4.743   1.895  21.070  0.00  0.00    +0.000 N 
ATOM      3  C   UNL     1       4.434   1.574  19.773  0.00  0.00    +0.000 C 
ATOM      4  O   UNL     1       4.801   0.523  19.248  0.00  0.00    +0.000 OA
ATOM      5  N   UNL     1       3.682   2.553  19.113  0.00  0.00    +0.000 N 
ATOM      6  N   UNL     1       3.250   3.681  19.786  0.00  0.00    +0.000 NA
ATOM      7  C   UNL     1       3.388   4.816  19.156  0.00  0.00    +0.000 C 
ATOM      8  C   UNL     1       4.235   5.017  17.926  0.00  0.00    +0.000 A 
ATOM      9  C   UNL     1       5.127   6.109  17.899  0.00  0.00    +0.000 A 
ATOM     10  C   UNL     1       5.909   6.399  16.767  0.00  0.00    +0.000 A 
ATOM     11  C   UNL     1       5.830   5.542  15.659  0.00  0.00    +0.000 A 
ATOM     12  C   UNL     1       4.956   4.446  15.704  0.00  0.00    +0.000 A 
ATOM     13  C   UNL     1       4.146   4.170  16.818  0.00  0.00    +0.000 A 
ATOM     14  C   UNL     1       3.137   3.061  16.703  0.00  0.00    +0.000 C 
ATOM     15  C   UNL     1       2.926   2.153  17.923  0.00  0.00    +0.000 C 
ATOM     16  C   UNL     1       1.427   2.017  18.236  0.00  0.00    +0.000 C 
ATOM     17  H   UNL     1       4.162   2.631  21.450  0.00  0.00    +0.000 HD
ENDROOT
BRANCH   7  18
ATOM     18  C   UNL     1       2.660   6.009  19.699  0.00  0.00    +0.000 A 
ATOM     19  C   UNL     1       1.948   5.933  20.895  0.00  0.00    +0.000 A 
ATOM     20  C   UNL     1       1.246   7.054  21.368  0.00  0.00    +0.000 A 
ATOM     21  C   UNL     1       1.242   8.269  20.658  0.00  0.00    +0.000 A 
ATOM     22  C   UNL     1       1.937   8.311  19.449  0.00  0.00    +0.000 A 
ATOM     23  C   UNL     1       2.632   7.199  18.964  0.00  0.00    +0.000 A 
BRANCH  21  24
ATOM     24  N   UNL     1       0.620   9.390  21.209  0.00  0.00    +0.000 N 
ATOM     25  C   UNL     1       0.388   9.421  22.666  0.00  0.00    +0.000 C 
ATOM     26  C   UNL     1      -0.702  10.463  22.986  0.00  0.00    +0.000 C 
ATOM     27  N   UNL     1      -0.350  11.820  22.511  0.00  0.00    +0.000 NA
ATOM     28  C   UNL     1      -1.459  12.737  22.766  0.00  0.00    +0.000 C 
ATOM     29  C   UNL     1      -0.031  11.773  21.062  0.00  0.00    +0.000 C 
ATOM     30  C   UNL     1       1.041  10.712  20.696  0.00  0.00    +0.000 C 
ENDBRANCH  21  24
ENDBRANCH   7  18
BRANCH  10  31
ATOM     31  O   UNL     1       6.738   7.484  16.686  0.00  0.00    +0.000 OA
ATOM     32  C   UNL     1       7.733   7.660  17.684  0.00  0.00    +0.000 C 
ENDBRANCH  10  31
BRANCH  11  33
ATOM     33  O   UNL     1       6.491   5.611  14.463  0.00  0.00    +0.000 OA
ATOM     34  C   UNL     1       6.605   4.445  13.662  0.00  0.00    +0.000 C 
ENDBRANCH  11  33
TORSDOF 4
ENDMDL
MODEL 2
REMARK VINA RESULT:      -8.2      0.415      1.249
REMARK  Name = 
REMARK  9 active torsions:
REMARK  status: ('A' for Active; 'I' for Inactive)
REMARK    1  A    between atoms: C_1  and  N_2
REMARK    2  A    between atoms: C_7  and  C_8
REMARK    3  A    between atoms: C_11  and  N_12
REMARK    4  A    between atoms: N_15  and  C_16
REMARK    5  A    between atoms: C_23  and  O_24
REMARK    6  A    between atoms: O_24  and  C_25
REMARK    7  A    between atoms: C_26  and  O_27
REMARK    8  A    between atoms: O_27  and  C_28
REMARK    9  A    between atoms: C_32  and  C_33
REMARK                            x       y       z     vdW  Elec       q    Type
REMARK                         _______ _______ _______ _____ _____    ______ ____
ROOT
ATOM      1  C   UNL     1       5.390   1.016  21.939  0.00  0.00    +0.000 C 
ATOM      2  N   UNL     1       4.691   1.912  21.059  0.00  0.00    +0.000 N 
ATOM      3  C   UNL     1       4.423   1.567  19.760  0.00  0.00    +0.000 C 
ATOM      4  O   UNL     1       4.798   0.502  19.269  0.00  0.00    +0.000 OA
ATOM      5  N   UNL     1       3.703   2.537  19.054  0.00  0.00    +0.000 N 
ATOM      6  N   UNL     1       3.259   3.684  19.688  0.00  0.00    +0.000 NA
ATOM      7  C   UNL     1       3.428   4.804  19.040  0.00  0.00    +0.000 C 
ATOM      8  C   UNL     1       4.319   4.971  17.835  0.00  0.00    +0.000 A 
ATOM      9  C   UNL     1       5.221   6.055  17.817  0.00  0.00    +0.000 A 
ATOM     10  C   UNL     1       6.044   6.314  16.706  0.00  0.00    +0.000 A 
ATOM     11  C   UNL     1       5.994   5.435  15.614  0.00  0.00    +0.000 A 
ATOM     12  C   UNL     1       5.109   4.347  15.652  0.00  0.00    +0.000 A 
ATOM     13  C   UNL     1       4.259   4.102  16.743  0.00  0.00    +0.000 A 
ATOM     14  C   UNL     1       3.244   3.000  16.617  0.00  0.00    +0.000 C 
ATOM     15  C   UNL     1       2.983   2.119  17.847  0.00  0.00    +0.000 C 
ATOM     16  C   UNL     1       1.474   2.003  18.112  0.00  0.00    +0.000 C 
ATOM     17  H   UNL     1       4.104   2.661  21.404  0.00  0.00    +0.000 HD
ENDROOT
BRANCH   7  18
ATOM     18  C   UNL     1       2.694   6.014  19.533  0.00  0.00    +0.000 A 
ATOM     19  C   UNL     1       2.619   7.173  18.763  0.00  0.00    +0.000 A 
ATOM     20  C   UNL     1       1.955   8.306  19.260  0.00  0.00    +0.000 A 
ATOM     21  C   UNL     1       1.353   8.303  20.532  0.00  0.00    +0.000 A 
ATOM     22  C   UNL     1       1.468   7.142  21.297  0.00  0.00    +0.000 A 
ATOM     23  C   UNL     1       2.134   6.010  20.815  0.00  0.00    +0.000 A 
BRANCH  21  24
ATOM     24  N   UNL     1       0.614   9.410  20.951  0.00  0.00    +0.000 N 
ATOM     25  C   UNL     1      -0.069  10.227  19.929  0.00  0.00    +0.000 C 
ATOM     26  C   UNL     1      -0.394  11.614  20.519  0.00  0.00    +0.000 C 
ATOM     27  N   UNL     1      -1.237  11.532  21.734  0.00  0.00    +0.000 NA
ATOM     28  C   UNL     1      -1.434  12.870  22.290  0.00  0.00    +0.000 C 
ATOM     29  C   UNL     1      -0.592  10.640  22.728  0.00  0.00    +0.000 C 
ATOM     30  C   UNL     1      -0.220   9.244  22.161  0.00  0.00    +0.000 C 
ENDBRANCH  21  24
ENDBRANCH   7  18
BRANCH  10  31
ATOM     31  O   UNL     1       6.885   7.390  16.630  0.00  0.00    +0.000 OA
ATOM     32  C   UNL     1       7.729   7.677  17.737  0.00  0.00    +0.000 C 
ENDBRANCH  10  31
BRANCH  11  33
ATOM     33  O   UNL     1       6.696   5.473  14.439  0.00  0.00    +0.000 OA
ATOM     34  C   UNL     1       6.664   4.350  13.573  0.00  0.00    +0.000 C 
ENDBRANCH  11  33
TORSDOF 4
ENDMDL
MODEL 3
REMARK VINA RESULT:      -7.7      4.287     10.040
REMARK  Name = 
REMARK  9 active torsions:
REMARK  status: ('A' for Active; 'I' for Inactive)
REMARK    1  A    between atoms: C_1  and  N_2
REMARK    2  A    between atoms: C_7  and  C_8
REMARK    3  A    between atoms: C_11  and  N_12
REMARK    4  A    between atoms: N_15  and  C_16
REMARK    5  A    between atoms: C_23  and  O_24
REMARK    6  A    between atoms: O_24  and  C_25
REMARK    7  A    between atoms: C_26  and  O_27
REMARK    8  A    between atoms: O_27  and  C_28
REMARK    9  A    between atoms: C_32  and  C_33
REMARK                            x       y       z     vdW  Elec       q    Type
REMARK                         _______ _______ _______ _____ _____    ______ ____
ROOT
ATOM      1  C   UNL     1      -5.215  12.588  18.656  0.00  0.00    +0.000 C 
ATOM      2  N   UNL     1      -3.931  12.295  19.232  0.00  0.00    +0.000 N 
ATOM      3  C   UNL     1      -3.471  12.980  20.327  0.00  0.00    +0.000 C 
ATOM      4  O   UNL     1      -4.105  13.899  20.845  0.00  0.00    +0.000 OA
ATOM      5  N   UNL     1      -2.221  12.544  20.782  0.00  0.00    +0.000 N 
ATOM      6  N   UNL     1      -1.595  11.463  20.189  0.00  0.00    +0.000 NA
ATOM      7  C   UNL     1      -0.320  11.598  19.944  0.00  0.00    +0.000 C 
ATOM      8  C   UNL     1       0.424  12.908  19.970  0.00  0.00    +0.000 A 
ATOM      9  C   UNL     1       1.262  13.223  18.881  0.00  0.00    +0.000 A 
ATOM     10  C   UNL     1       2.035  14.398  18.857  0.00  0.00    +0.000 A 
ATOM     11  C   UNL     1       1.922  15.298  19.926  0.00  0.00    +0.000 A 
ATOM     12  C   UNL     1       1.068  14.986  20.995  0.00  0.00    +0.000 A 
ATOM     13  C   UNL     1       0.321  13.798  21.043  0.00  0.00    +0.000 A 
ATOM     14  C   UNL     1      -0.445  13.492  22.300  0.00  0.00    +0.000 C 
ATOM     15  C   UNL     1      -1.840  12.866  22.160  0.00  0.00    +0.000 C 
ATOM     16  C   UNL     1      -1.970  11.638  23.075  0.00  0.00    +0.000 C 
ATOM     17  H   UNL     1      -3.461  11.411  19.085  0.00  0.00    +0.000 HD
ENDROOT
BRANCH   7  18
ATOM     18  C   UNL     1       0.460  10.364  19.600  0.00  0.00    +0.000 A 
ATOM     19  C   UNL     1       0.804   9.435  20.580  0.00  0.00    +0.000 A 
ATOM     20  C   UNL     1       1.563   8.304  20.241  0.00  0.00    +0.000 A 
ATOM     21  C   UNL     1       1.992   8.078  18.919  0.00  0.00    +0.000 A 
ATOM     22  C   UNL     1       1.661   9.037  17.962  0.00  0.00    +0.000 A 
ATOM     23  C   UNL     1       0.912  10.172  18.290  0.00  0.00    +0.000 A 
BRANCH  21  24
ATOM     24  N   UNL     1       2.655   6.893  18.599  0.00  0.00    +0.000 N 
ATOM     25  C   UNL     1       3.880   6.972  17.780  0.00  0.00    +0.000 C 
ATOM     26  C   UNL     1       4.162   5.592  17.151  0.00  0.00    +0.000 C 
ATOM     27  N   UNL     1       4.311   4.524  18.165  0.00  0.00    +0.000 NA
ATOM     28  C   UNL     1       4.487   3.233  17.501  0.00  0.00    +0.000 C 
ATOM     29  C   UNL     1       3.116   4.502  19.045  0.00  0.00    +0.000 C 
ATOM     30  C   UNL     1       2.782   5.882  19.672  0.00  0.00    +0.000 C 
ENDBRANCH  21  24
ENDBRANCH   7  18
BRANCH  10  31
ATOM     31  O   UNL     1       2.903  14.704  17.845  0.00  0.00    +0.000 OA
ATOM     32  C   UNL     1       4.298  14.559  18.072  0.00  0.00    +0.000 C 
ENDBRANCH  10  31
BRANCH  11  33
ATOM     33  O   UNL     1       2.557  16.495  20.121  0.00  0.00    +0.000 OA
ATOM     34  C   UNL     1       1.912  17.696  19.728  0.00  0.00    +0.000 C 
ENDBRANCH  11  33
TORSDOF 4
ENDMDL
MODEL 4
REMARK VINA RESULT:      -7.7      1.149      1.447
REMARK  Name = 
REMARK  9 active torsions:
REMARK  status: ('A' for Active; 'I' for Inactive)
REMARK    1  A    between atoms: C_1  and  N_2
REMARK    2  A    between atoms: C_7  and  C_8
REMARK    3  A    between atoms: C_11  and  N_12
REMARK    4  A    between atoms: N_15  and  C_16
REMARK    5  A    between atoms: C_23  and  O_24
REMARK    6  A    between atoms: O_24  and  C_25
REMARK    7  A    between atoms: C_26  and  O_27
REMARK    8  A    between atoms: O_27  and  C_28
REMARK    9  A    between atoms: C_32  and  C_33
REMARK                            x       y       z     vdW  Elec       q    Type
REMARK                         _______ _______ _______ _____ _____    ______ ____
ROOT
ATOM      1  C   UNL     1       4.830   1.318  21.889  0.00  0.00    +0.000 C 
ATOM      2  N   UNL     1       4.356   2.227  20.883  0.00  0.00    +0.000 N 
ATOM      3  C   UNL     1       4.272   1.851  19.568  0.00  0.00    +0.000 C 
ATOM      4  O   UNL     1       4.633   0.742  19.175  0.00  0.00    +0.000 OA
ATOM      5  N   UNL     1       3.755   2.844  18.727  0.00  0.00    +0.000 N 
ATOM      6  N   UNL     1       3.310   4.045  19.248  0.00  0.00    +0.000 NA
ATOM      7  C   UNL     1       3.671   5.122  18.605  0.00  0.00    +0.000 C 
ATOM      8  C   UNL     1       4.754   5.172  17.558  0.00  0.00    +0.000 A 
ATOM      9  C   UNL     1       5.732   6.183  17.656  0.00  0.00    +0.000 A 
ATOM     10  C   UNL     1       6.740   6.334  16.687  0.00  0.00    +0.000 A 
ATOM     11  C   UNL     1       6.795   5.418  15.627  0.00  0.00    +0.000 A 
ATOM     12  C   UNL     1       5.830   4.402  15.550  0.00  0.00    +0.000 A 
ATOM     13  C   UNL     1       4.799   4.267  16.495  0.00  0.00    +0.000 A 
ATOM     14  C   UNL     1       3.732   3.240  16.237  0.00  0.00    +0.000 C 
ATOM     15  C   UNL     1       3.207   2.432  17.432  0.00  0.00    +0.000 C 
ATOM     16  C   UNL     1       1.669   2.442  17.451  0.00  0.00    +0.000 C 
ATOM     17  H   UNL     1       3.784   3.032  21.107  0.00  0.00    +0.000 HD
ENDROOT
BRANCH   7  18
ATOM     18  C   UNL     1       2.968   6.404  18.939  0.00  0.00    +0.000 A 
ATOM     19  C   UNL     1       2.396   6.604  20.194  0.00  0.00    +0.000 A 
ATOM     20  C   UNL     1       1.713   7.798  20.473  0.00  0.00    +0.000 A 
ATOM     21  C   UNL     1       1.589   8.814  19.507  0.00  0.00    +0.000 A 
ATOM     22  C   UNL     1       2.143   8.578  18.249  0.00  0.00    +0.000 A 
ATOM     23  C   UNL     1       2.818   7.388  17.957  0.00  0.00    +0.000 A 
BRANCH  21  24
ATOM     24  N   UNL     1       0.994  10.028  19.852  0.00  0.00    +0.000 N 
ATOM     25  C   UNL     1       1.304  11.219  19.038  0.00  0.00    +0.000 C 
ATOM     26  C   UNL     1       0.963  12.490  19.843  0.00  0.00    +0.000 C 
ATOM     27  N   UNL     1      -0.456  12.532  20.264  0.00  0.00    +0.000 NA
ATOM     28  C   UNL     1      -0.691  13.712  21.095  0.00  0.00    +0.000 C 
ATOM     29  C   UNL     1      -0.792  11.293  21.008  0.00  0.00    +0.000 C 
ATOM     30  C   UNL     1      -0.433   9.992  20.242  0.00  0.00    +0.000 C 
ENDBRANCH  21  24
ENDBRANCH   7  18
BRANCH  10  31
ATOM     31  O   UNL     1       7.668   7.339  16.719  0.00  0.00    +0.000 OA
ATOM     32  C   UNL     1       7.788   8.121  17.900  0.00  0.00    +0.000 C 
ENDBRANCH  10  31
BRANCH  11  33
ATOM     33  O   UNL     1       7.677   5.355  14.581  0.00  0.00    +0.000 OA
ATOM     34  C   UNL     1       7.234   4.860  13.327  0.00  0.00    +0.000 C 
ENDBRANCH  11  33
TORSDOF 4
ENDMDL
MODEL 5
REMARK VINA RESULT:      -7.6      4.356     10.135
REMARK  Name = 
REMARK  9 active torsions:
REMARK  status: ('A' for Active; 'I' for Inactive)
REMARK    1  A    between atoms: C_1  and  N_2
REMARK    2  A    between atoms: C_7  and  C_8
REMARK    3  A    between atoms: C_11  and  N_12
REMARK    4  A    between atoms: N_15  and  C_16
REMARK    5  A    between atoms: C_23  and  O_24
REMARK    6  A    between atoms: O_24  and  C_25
REMARK    7  A    between atoms: C_26  and  O_27
REMARK    8  A    between atoms: O_27  and  C_28
REMARK    9  A    between atoms: C_32  and  C_33
REMARK                            x       y       z     vdW  Elec       q    Type
REMARK                         _______ _______ _______ _____ _____    ______ ____
ROOT
ATOM      1  C   UNL     1      -5.344  12.519  18.486  0.00  0.00    +0.000 C 
ATOM      2  N   UNL     1      -4.084  12.291  19.137  0.00  0.00    +0.000 N 
ATOM      3  C   UNL     1      -3.696  13.041  20.217  0.00  0.00    +0.000 C 
ATOM      4  O   UNL     1      -4.378  13.967  20.656  0.00  0.00    +0.000 OA
ATOM      5  N   UNL     1      -2.460  12.663  20.754  0.00  0.00    +0.000 N 
ATOM      6  N   UNL     1      -1.778  11.571  20.248  0.00  0.00    +0.000 NA
ATOM      7  C   UNL     1      -0.496  11.728  20.059  0.00  0.00    +0.000 C 
ATOM      8  C   UNL     1       0.213  13.059  20.054  0.00  0.00    +0.000 A 
ATOM      9  C   UNL     1       1.096  13.341  18.992  0.00  0.00    +0.000 A 
ATOM     10  C   UNL     1       1.840  14.534  18.946  0.00  0.00    +0.000 A 
ATOM     11  C   UNL     1       1.651  15.483  19.961  0.00  0.00    +0.000 A 
ATOM     12  C   UNL     1       0.753  15.201  21.002  0.00  0.00    +0.000 A 
ATOM     13  C   UNL     1       0.034  13.997  21.074  0.00  0.00    +0.000 A 
ATOM     14  C   UNL     1      -0.785  13.733  22.307  0.00  0.00    +0.000 C 
ATOM     15  C   UNL     1      -2.155  13.063  22.131  0.00  0.00    +0.000 C 
ATOM     16  C   UNL     1      -2.301  11.879  23.099  0.00  0.00    +0.000 C 
ATOM     17  H   UNL     1      -3.585  11.414  19.059  0.00  0.00    +0.000 HD
ENDROOT
BRANCH   7  18
ATOM     18  C   UNL     1       0.330  10.500  19.816  0.00  0.00    +0.000 A 
ATOM     19  C   UNL     1       0.714  10.136  18.527  0.00  0.00    +0.000 A 
ATOM     20  C   UNL     1       1.459   8.964  18.321  0.00  0.00    +0.000 A 
ATOM     21  C   UNL     1       1.834   8.136  19.395  0.00  0.00    +0.000 A 
ATOM     22  C   UNL     1       1.413   8.506  20.672  0.00  0.00    +0.000 A 
ATOM     23  C   UNL     1       0.663   9.667  20.888  0.00  0.00    +0.000 A 
BRANCH  21  24
ATOM     24  N   UNL     1       2.661   7.035  19.164  0.00  0.00    +0.000 N 
ATOM     25  C   UNL     1       2.229   5.715  19.660  0.00  0.00    +0.000 C 
ATOM     26  C   UNL     1       3.450   4.776  19.742  0.00  0.00    +0.000 C 
ATOM     27  N   UNL     1       4.134   4.617  18.438  0.00  0.00    +0.000 NA
ATOM     28  C   UNL     1       5.328   3.790  18.604  0.00  0.00    +0.000 C 
ATOM     29  C   UNL     1       4.491   5.952  17.898  0.00  0.00    +0.000 C 
ATOM     30  C   UNL     1       3.293   6.936  17.830  0.00  0.00    +0.000 C 
ENDBRANCH  21  24
ENDBRANCH   7  18
BRANCH  10  31
ATOM     31  O   UNL     1       2.749  14.813  17.963  0.00  0.00    +0.000 OA
ATOM     32  C   UNL     1       4.126  14.569  18.215  0.00  0.00    +0.000 C 
ENDBRANCH  10  31
BRANCH  11  33
ATOM     33  O   UNL     1       2.245  16.705  20.126  0.00  0.00    +0.000 OA
ATOM     34  C   UNL     1       1.599  17.865  19.626  0.00  0.00    +0.000 C 
ENDBRANCH  11  33
TORSDOF 4
ENDMDL
MODEL 6
REMARK VINA RESULT:      -7.4      2.338      5.140
REMARK  Name = 
REMARK  9 active torsions:
REMARK  status: ('A' for Active; 'I' for Inactive)
REMARK    1  A    between atoms: C_1  and  N_2
REMARK    2  A    between atoms: C_7  and  C_8
REMARK    3  A    between atoms: C_11  and  N_12
REMARK    4  A    between atoms: N_15  and  C_16
REMARK    5  A    between atoms: C_23  and  O_24
REMARK    6  A    between atoms: O_24  and  C_25
REMARK    7  A    between atoms: C_26  and  O_27
REMARK    8  A    between atoms: O_27  and  C_28
REMARK    9  A    between atoms: C_32  and  C_33
REMARK                            x       y       z     vdW  Elec       q    Type
REMARK                         _______ _______ _______ _____ _____    ______ ____
ROOT
ATOM      1  C   UNL     1       5.940   5.039  13.288  0.00  0.00    +0.000 C 
ATOM      2  N   UNL     1       5.645   5.458  14.631  0.00  0.00    +0.000 N 
ATOM      3  C   UNL     1       6.485   5.153  15.671  0.00  0.00    +0.000 C 
ATOM      4  O   UNL     1       7.502   4.476  15.521  0.00  0.00    +0.000 OA
ATOM      5  N   UNL     1       6.068   5.669  16.904  0.00  0.00    +0.000 N 
ATOM      6  N   UNL     1       4.947   6.475  16.987  0.00  0.00    +0.000 NA
ATOM      7  C   UNL     1       4.127   6.222  17.970  0.00  0.00    +0.000 C 
ATOM      8  C   UNL     1       4.149   4.966  18.803  0.00  0.00    +0.000 A 
ATOM      9  C   UNL     1       2.933   4.284  19.015  0.00  0.00    +0.000 A 
ATOM     10  C   UNL     1       2.859   3.138  19.829  0.00  0.00    +0.000 A 
ATOM     11  C   UNL     1       4.040   2.642  20.397  0.00  0.00    +0.000 A 
ATOM     12  C   UNL     1       5.249   3.316  20.162  0.00  0.00    +0.000 A 
ATOM     13  C   UNL     1       5.324   4.480  19.380  0.00  0.00    +0.000 A 
ATOM     14  C   UNL     1       6.639   5.207  19.317  0.00  0.00    +0.000 C 
ATOM     15  C   UNL     1       7.068   5.801  17.968  0.00  0.00    +0.000 C 
ATOM     16  C   UNL     1       7.504   7.265  18.142  0.00  0.00    +0.000 C 
ATOM     17  H   UNL     1       5.021   6.228  14.833  0.00  0.00    +0.000 HD
ENDROOT
BRANCH   7  18
ATOM     18  C   UNL     1       3.079   7.247  18.286  0.00  0.00    +0.000 A 
ATOM     19  C   UNL     1       2.711   8.211  17.349  0.00  0.00    +0.000 A 
ATOM     20  C   UNL     1       1.752   9.182  17.680  0.00  0.00    +0.000 A 
ATOM     21  C   UNL     1       1.144   9.209  18.949  0.00  0.00    +0.000 A 
ATOM     22  C   UNL     1       1.551   8.253  19.879  0.00  0.00    +0.000 A 
ATOM     23  C   UNL     1       2.512   7.286  19.564  0.00  0.00    +0.000 A 
BRANCH  21  24
ATOM     24  N   UNL     1       0.122  10.124  19.207  0.00  0.00    +0.000 N 
ATOM     25  C   UNL     1       0.442  11.334  19.988  0.00  0.00    +0.000 C 
ATOM     26  C   UNL     1      -0.860  11.930  20.561  0.00  0.00    +0.000 C 
ATOM     27  N   UNL     1      -1.845  12.265  19.508  0.00  0.00    +0.000 NA
ATOM     28  C   UNL     1      -3.084  12.740  20.122  0.00  0.00    +0.000 C 
ATOM     29  C   UNL     1      -2.101  11.069  18.667  0.00  0.00    +0.000 C 
ATOM     30  C   UNL     1      -0.810  10.422  18.098  0.00  0.00    +0.000 C 
ENDBRANCH  21  24
ENDBRANCH   7  18
BRANCH  10  31
ATOM     31  O   UNL     1       1.687   2.488  20.103  0.00  0.00    +0.000 OA
ATOM     32  C   UNL     1       0.706   2.385  19.081  0.00  0.00    +0.000 C 
ENDBRANCH  10  31
BRANCH  11  33
ATOM     33  O   UNL     1       4.221   1.552  21.206  0.00  0.00    +0.000 OA
ATOM     34  C   UNL     1       5.520   1.002  21.354  0.00  0.00    +0.000 C 
ENDBRANCH  11  33
TORSDOF 4
ENDMDL
MODEL 7
REMARK VINA RESULT:      -7.3      2.138      2.617
REMARK  Name = 
REMARK  9 active torsions:
REMARK  status: ('A' for Active; 'I' for Inactive)
REMARK    1  A    between atoms: C_1  and  N_2
REMARK    2  A    between atoms: C_7  and  C_8
REMARK    3  A    between atoms: C_11  and  N_12
REMARK    4  A    between atoms: N_15  and  C_16
REMARK    5  A    between atoms: C_23  and  O_24
REMARK    6  A    between atoms: O_24  and  C_25
REMARK    7  A    between atoms: C_26  and  O_27
REMARK    8  A    between atoms: O_27  and  C_28
REMARK    9  A    between atoms: C_32  and  C_33
REMARK                            x       y       z     vdW  Elec       q    Type
REMARK                         _______ _______ _______ _____ _____    ______ ____
ROOT
ATOM      1  C   UNL     1       1.941   2.404  22.424  0.00  0.00    +0.000 C 
ATOM      2  N   UNL     1       2.019   3.289  21.294  0.00  0.00    +0.000 N 
ATOM      3  C   UNL     1       2.216   2.807  20.026  0.00  0.00    +0.000 C 
ATOM      4  O   UNL     1       2.378   1.608  19.794  0.00  0.00    +0.000 OA
ATOM      5  N   UNL     1       2.229   3.799  19.039  0.00  0.00    +0.000 N 
ATOM      6  N   UNL     1       1.978   5.119  19.365  0.00  0.00    +0.000 NA
ATOM      7  C   UNL     1       2.768   6.007  18.827  0.00  0.00    +0.000 C 
ATOM      8  C   UNL     1       4.078   5.691  18.151  0.00  0.00    +0.000 A 
ATOM      9  C   UNL     1       5.213   6.449  18.506  0.00  0.00    +0.000 A 
ATOM     10  C   UNL     1       6.457   6.256  17.880  0.00  0.00    +0.000 A 
ATOM     11  C   UNL     1       6.573   5.246  16.914  0.00  0.00    +0.000 A 
ATOM     12  C   UNL     1       5.442   4.483  16.583  0.00  0.00    +0.000 A 
ATOM     13  C   UNL     1       4.188   4.694  17.179  0.00  0.00    +0.000 A 
ATOM     14  C   UNL     1       3.012   3.925  16.645  0.00  0.00    +0.000 C 
ATOM     15  C   UNL     1       1.982   3.393  17.652  0.00  0.00    +0.000 C 
ATOM     16  C   UNL     1       0.558   3.766  17.209  0.00  0.00    +0.000 C 
ATOM     17  H   UNL     1       1.632   4.224  21.311  0.00  0.00    +0.000 HD
ENDROOT
BRANCH   7  18
ATOM     18  C   UNL     1       2.351   7.446  18.894  0.00  0.00    +0.000 A 
ATOM     19  C   UNL     1       1.791   7.978  20.054  0.00  0.00    +0.000 A 
ATOM     20  C   UNL     1       1.376   9.319  20.084  0.00  0.00    +0.000 A 
ATOM     21  C   UNL     1       1.513  10.153  18.959  0.00  0.00    +0.000 A 
ATOM     22  C   UNL     1       2.048   9.590  17.800  0.00  0.00    +0.000 A 
ATOM     23  C   UNL     1       2.457   8.252  17.757  0.00  0.00    +0.000 A 
BRANCH  21  24
ATOM     24  N   UNL     1       1.186  11.506  19.056  0.00  0.00    +0.000 N 
ATOM     25  C   UNL     1       2.131  12.499  18.509  0.00  0.00    +0.000 C 
ATOM     26  C   UNL     1       1.839  13.879  19.133  0.00  0.00    +0.000 C 
ATOM     27  N   UNL     1       0.450  14.330  18.892  0.00  0.00    +0.000 NA
ATOM     28  C   UNL     1       0.214  15.597  19.582  0.00  0.00    +0.000 C 
ATOM     29  C   UNL     1      -0.500  13.291  19.363  0.00  0.00    +0.000 C 
ATOM     30  C   UNL     1      -0.218  11.881  18.781  0.00  0.00    +0.000 C 
ENDBRANCH  21  24
ENDBRANCH   7  18
BRANCH  10  31
ATOM     31  O   UNL     1       7.562   7.013  18.157  0.00  0.00    +0.000 OA
ATOM     32  C   UNL     1       7.705   8.275  17.520  0.00  0.00    +0.000 C 
ENDBRANCH  10  31
BRANCH  11  33
ATOM     33  O   UNL     1       7.667   4.868  16.183  0.00  0.00    +0.000 OA
ATOM     34  C   UNL     1       7.596   4.881  14.766  0.00  0.00    +0.000 C 
ENDBRANCH  11  33
TORSDOF 4
ENDMDL
MODEL 8
REMARK VINA RESULT:      -7.3      1.274      1.437
REMARK  Name = 
REMARK  9 active torsions:
REMARK  status: ('A' for Active; 'I' for Inactive)
REMARK    1  A    between atoms: C_1  and  N_2
REMARK    2  A    between atoms: C_7  and  C_8
REMARK    3  A    between atoms: C_11  and  N_12
REMARK    4  A    between atoms: N_15  and  C_16
REMARK    5  A    between atoms: C_23  and  O_24
REMARK    6  A    between atoms: O_24  and  C_25
REMARK    7  A    between atoms: C_26  and  O_27
REMARK    8  A    between atoms: O_27  and  C_28
REMARK    9  A    between atoms: C_32  and  C_33
REMARK                            x       y       z     vdW  Elec       q    Type
REMARK                         _______ _______ _______ _____ _____    ______ ____
ROOT
ATOM      1  C   UNL     1       3.939   1.629  21.842  0.00  0.00    +0.000 C 
ATOM      2  N   UNL     1       3.596   2.592  20.832  0.00  0.00    +0.000 N 
ATOM      3  C   UNL     1       3.592   2.256  19.503  0.00  0.00    +0.000 C 
ATOM      4  O   UNL     1       3.918   1.138  19.104  0.00  0.00    +0.000 OA
ATOM      5  N   UNL     1       3.199   3.300  18.658  0.00  0.00    +0.000 N 
ATOM      6  N   UNL     1       2.785   4.511  19.181  0.00  0.00    +0.000 NA
ATOM      7  C   UNL     1       3.255   5.582  18.601  0.00  0.00    +0.000 C 
ATOM      8  C   UNL     1       4.416   5.595  17.640  0.00  0.00    +0.000 A 
ATOM      9  C   UNL     1       5.440   6.543  17.843  0.00  0.00    +0.000 A 
ATOM     10  C   UNL     1       6.527   6.660  16.957  0.00  0.00    +0.000 A 
ATOM     11  C   UNL     1       6.610   5.771  15.876  0.00  0.00    +0.000 A 
ATOM     12  C   UNL     1       5.597   4.817  15.696  0.00  0.00    +0.000 A 
ATOM     13  C   UNL     1       4.491   4.718  16.555  0.00  0.00    +0.000 A 
ATOM     14  C   UNL     1       3.390   3.763  16.186  0.00  0.00    +0.000 C 
ATOM     15  C   UNL     1       2.729   2.957  17.312  0.00  0.00    +0.000 C 
ATOM     16  C   UNL     1       1.198   3.057  17.216  0.00  0.00    +0.000 C 
ATOM     17  H   UNL     1       3.056   3.422  21.037  0.00  0.00    +0.000 HD
ENDROOT
BRANCH   7  18
ATOM     18  C   UNL     1       2.602   6.893  18.920  0.00  0.00    +0.000 A 
ATOM     19  C   UNL     1       2.165   7.182  20.212  0.00  0.00    +0.000 A 
ATOM     20  C   UNL     1       1.526   8.403  20.481  0.00  0.00    +0.000 A 
ATOM     21  C   UNL     1       1.313   9.357  19.468  0.00  0.00    +0.000 A 
ATOM     22  C   UNL     1       1.732   9.032  18.178  0.00  0.00    +0.000 A 
ATOM     23  C   UNL     1       2.362   7.815  17.897  0.00  0.00    +0.000 A 
BRANCH  21  24
ATOM     24  N   UNL     1       0.769  10.601  19.793  0.00  0.00    +0.000 N 
ATOM     25  C   UNL     1       0.485  10.896  21.210  0.00  0.00    +0.000 C 
ATOM     26  C   UNL     1      -0.524  12.060  21.296  0.00  0.00    +0.000 C 
ATOM     27  N   UNL     1      -0.039  13.285  20.621  0.00  0.00    +0.000 NA
ATOM     28  C   UNL     1      -1.075  14.315  20.663  0.00  0.00    +0.000 C 
ATOM     29  C   UNL     1       0.328  12.968  19.219  0.00  0.00    +0.000 C 
ATOM     30  C   UNL     1       1.319  11.780  19.090  0.00  0.00    +0.000 C 
ENDBRANCH  21  24
ENDBRANCH   7  18
BRANCH  10  31
ATOM     31  O   UNL     1       7.505   7.607  17.091  0.00  0.00    +0.000 OA
ATOM     32  C   UNL     1       8.180   7.723  18.336  0.00  0.00    +0.000 C 
ENDBRANCH  10  31
BRANCH  11  33
ATOM     33  O   UNL     1       7.565   5.684  14.899  0.00  0.00    +0.000 OA
ATOM     34  C   UNL     1       7.314   4.888  13.751  0.00  0.00    +0.000 C 
ENDBRANCH  11  33
TORSDOF 4
ENDMDL
MODEL 9
REMARK VINA RESULT:      -7.2      2.283      5.009
REMARK  Name = 
REMARK  9 active torsions:
REMARK  status: ('A' for Active; 'I' for Inactive)
REMARK    1  A    between atoms: C_1  and  N_2
REMARK    2  A    between atoms: C_7  and  C_8
REMARK    3  A    between atoms: C_11  and  N_12
REMARK    4  A    between atoms: N_15  and  C_16
REMARK    5  A    between atoms: C_23  and  O_24
REMARK    6  A    between atoms: O_24  and  C_25
REMARK    7  A    between atoms: C_26  and  O_27
REMARK    8  A    between atoms: O_27  and  C_28
REMARK    9  A    between atoms: C_32  and  C_33
REMARK                            x       y       z     vdW  Elec       q    Type
REMARK                         _______ _______ _______ _____ _____    ______ ____
ROOT
ATOM      1  C   UNL     1       5.471   4.666  13.231  0.00  0.00    +0.000 C 
ATOM      2  N   UNL     1       5.296   5.138  14.577  0.00  0.00    +0.000 N 
ATOM      3  C   UNL     1       6.210   4.845  15.557  0.00  0.00    +0.000 C 
ATOM      4  O   UNL     1       7.196   4.137  15.349  0.00  0.00    +0.000 OA
ATOM      5  N   UNL     1       5.908   5.413  16.800  0.00  0.00    +0.000 N 
ATOM      6  N   UNL     1       4.817   6.251  16.944  0.00  0.00    +0.000 NA
ATOM      7  C   UNL     1       4.074   6.053  17.998  0.00  0.00    +0.000 C 
ATOM      8  C   UNL     1       4.133   4.826  18.871  0.00  0.00    +0.000 A 
ATOM      9  C   UNL     1       2.923   4.184  19.205  0.00  0.00    +0.000 A 
ATOM     10  C   UNL     1       2.888   3.069  20.062  0.00  0.00    +0.000 A 
ATOM     11  C   UNL     1       4.100   2.560  20.551  0.00  0.00    +0.000 A 
ATOM     12  C   UNL     1       5.301   3.194  20.195  0.00  0.00    +0.000 A 
ATOM     13  C   UNL     1       5.340   4.328  19.369  0.00  0.00    +0.000 A 
ATOM     14  C   UNL     1       6.662   5.017  19.174  0.00  0.00    +0.000 C 
ATOM     15  C   UNL     1       6.994   5.554  17.774  0.00  0.00    +0.000 C 
ATOM     16  C   UNL     1       7.478   7.011  17.861  0.00  0.00    +0.000 C 
ATOM     17  H   UNL     1       4.709   5.931  14.802  0.00  0.00    +0.000 HD
ENDROOT
BRANCH   7  18
ATOM     18  C   UNL     1       3.080   7.116  18.362  0.00  0.00    +0.000 A 
ATOM     19  C   UNL     1       2.532   7.179  19.641  0.00  0.00    +0.000 A 
ATOM     20  C   UNL     1       1.578   8.163  19.949  0.00  0.00    +0.000 A 
ATOM     21  C   UNL     1       1.156   9.100  18.989  0.00  0.00    +0.000 A 
ATOM     22  C   UNL     1       1.697   8.998  17.707  0.00  0.00    +0.000 A 
ATOM     23  C   UNL     1       2.641   8.017  17.386  0.00  0.00    +0.000 A 
BRANCH  21  24
ATOM     24  N   UNL     1       0.285  10.126  19.359  0.00  0.00    +0.000 N 
ATOM     25  C   UNL     1       0.813  11.238  20.171  0.00  0.00    +0.000 C 
ATOM     26  C   UNL     1      -0.358  11.969  20.859  0.00  0.00    +0.000 C 
ATOM     27  N   UNL     1      -1.351  12.489  19.892  0.00  0.00    +0.000 NA
ATOM     28  C   UNL     1      -2.474  13.088  20.611  0.00  0.00    +0.000 C 
ATOM     29  C   UNL     1      -1.818  11.385  19.017  0.00  0.00    +0.000 C 
ATOM     30  C   UNL     1      -0.665  10.605  18.331  0.00  0.00    +0.000 C 
ENDBRANCH  21  24
ENDBRANCH   7  18
BRANCH  10  31
ATOM     31  O   UNL     1       1.728   2.459  20.453  0.00  0.00    +0.000 OA
ATOM     32  C   UNL     1       1.204   2.749  21.742  0.00  0.00    +0.000 C 
ENDBRANCH  10  31
BRANCH  11  33
ATOM     33  O   UNL     1       4.320   1.494  21.381  0.00  0.00    +0.000 OA
ATOM     34  C   UNL     1       5.570   0.824  21.337  0.00  0.00    +0.000 C 
ENDBRANCH  11  33
TORSDOF 4
ENDMDL
