MODEL 1
REMARK VINA RESULT:      -7.1      0.000      0.000
REMARK  Name = 
REMARK  5 active torsions:
REMARK  status: ('A' for Active; 'I' for Inactive)
REMARK    1  A    between atoms: C_1  and  N_2
REMARK    2  A    between atoms: N_2  and  C_12
REMARK    3  A    between atoms: C_3  and  C_5
REMARK    4  A    between atoms: C_12  and  N_14
REMARK    5  A    between atoms: N_17  and  C_18
REMARK                            x       y       z     vdW  Elec       q    Type
REMARK                         _______ _______ _______ _____ _____    ______ ____
ROOT
ATOM      1  C   UNL     1       3.490   3.985  18.970  0.00  0.00    +0.000 C 
ATOM      2  S   UNL     1       3.704   2.883  20.219  0.00  0.00    +0.000 S 
ENDROOT
BRANCH   1   3
ATOM      3  N   UNL     1       2.929   5.248  19.196  0.00  0.00    +0.000 N 
ATOM      4  C   UNL     1       2.067   5.478  20.371  0.00  0.00    +0.000 C 
ATOM      5  C   UNL     1       2.091   6.968  20.790  0.00  0.00    +0.000 C 
ATOM      6  N   UNL     1       1.792   7.810  19.618  0.00  0.00    +0.000 N 
ATOM      7  C   UNL     1       2.636   7.560  18.434  0.00  0.00    +0.000 C 
ATOM      8  C   UNL     1       2.529   6.082  18.046  0.00  0.00    +0.000 C 
BRANCH   6   9
ATOM      9  C   UNL     1       1.056   8.973  19.703  0.00  0.00    +0.000 A 
ATOM     10  C   UNL     1       0.913   9.865  18.633  0.00  0.00    +0.000 A 
ATOM     11  C   UNL     1       0.200  11.063  18.770  0.00  0.00    +0.000 A 
ATOM     12  C   UNL     1      -0.375  11.401  19.988  0.00  0.00    +0.000 A 
ATOM     13  C   UNL     1      -0.251  10.534  21.069  0.00  0.00    +0.000 A 
ATOM     14  C   UNL     1       0.459   9.342  20.922  0.00  0.00    +0.000 A 
ENDBRANCH   6   9
ENDBRANCH   1   3
BRANCH   1  16
ATOM     15  C   UNL     1       2.937   2.932  16.822  0.00  0.00    +0.000 C 
ATOM     16  N   UNL     1       3.835   3.793  17.591  0.00  0.00    +0.000 N 
ATOM     17  C   UNL     1       5.066   4.048  16.934  0.00  0.00    +0.000 C 
ATOM     18  O   UNL     1       5.442   3.407  15.951  0.00  0.00    +0.000 OA
BRANCH  17  19
ATOM     19  C   UNL     1       5.958   5.147  17.388  0.00  0.00    +0.000 A 
ATOM     20  C   UNL     1       5.808   6.394  16.767  0.00  0.00    +0.000 A 
ATOM     21  C   UNL     1       6.641   7.459  17.113  0.00  0.00    +0.000 A 
ATOM     22  C   UNL     1       7.617   7.281  18.090  0.00  0.00    +0.000 A 
ATOM     23 CL   UNL     1       8.684   8.574  18.474  0.00  0.00    +0.000 Cl
ATOM     24  C   UNL     1       7.736   6.062  18.755  0.00  0.00    +0.000 A 
ATOM     25  C   UNL     1       6.884   5.001  18.427  0.00  0.00    +0.000 A 
ENDBRANCH  17  19
ENDBRANCH   1  16
TORSDOF 4
ENDMDL
MODEL 2
REMARK VINA RESULT:      -7.1      4.944      8.993
REMARK  Name = 
REMARK  5 active torsions:
REMARK  status: ('A' for Active; 'I' for Inactive)
REMARK    1  A    between atoms: C_1  and  N_2
REMARK    2  A    between atoms: N_2  and  C_12
REMARK    3  A    between atoms: C_3  and  C_5
REMARK    4  A    between atoms: C_12  and  N_14
REMARK    5  A    between atoms: N_17  and  C_18
REMARK                            x       y       z     vdW  Elec       q    Type
REMARK                         _______ _______ _______ _____ _____    ______ ____
ROOT
ATOM      1  C   UNL     1      -0.090  11.408  19.068  0.00  0.00    +0.000 C 
ATOM      2  S   UNL     1      -1.549  11.499  18.242  0.00  0.00    +0.000 S 
ENDROOT
BRANCH   1   3
ATOM      3  N   UNL     1       0.598  10.197  19.209  0.00  0.00    +0.000 N 
ATOM      4  C   UNL     1       1.057   9.462  18.014  0.00  0.00    +0.000 C 
ATOM      5  C   UNL     1       2.281   8.575  18.348  0.00  0.00    +0.000 C 
ATOM      6  N   UNL     1       1.972   7.737  19.521  0.00  0.00    +0.000 N 
ATOM      7  C   UNL     1       1.487   8.471  20.706  0.00  0.00    +0.000 C 
ATOM      8  C   UNL     1       0.251   9.287  20.317  0.00  0.00    +0.000 C 
BRANCH   6   9
ATOM      9  C   UNL     1       2.430   6.443  19.655  0.00  0.00    +0.000 A 
ATOM     10  C   UNL     1       3.453   5.911  18.862  0.00  0.00    +0.000 A 
ATOM     11  C   UNL     1       3.859   4.577  18.990  0.00  0.00    +0.000 A 
ATOM     12  C   UNL     1       3.237   3.740  19.908  0.00  0.00    +0.000 A 
ATOM     13  C   UNL     1       2.217   4.241  20.711  0.00  0.00    +0.000 A 
ATOM     14  C   UNL     1       1.823   5.573  20.578  0.00  0.00    +0.000 A 
ENDBRANCH   6   9
ENDBRANCH   1   3
BRANCH   1  16
ATOM     15  C   UNL     1       1.742  13.039  18.960  0.00  0.00    +0.000 C 
ATOM     16  N   UNL     1       0.605  12.493  19.699  0.00  0.00    +0.000 N 
ATOM     17  C   UNL     1       0.560  12.916  21.052  0.00  0.00    +0.000 C 
ATOM     18  O   UNL     1       1.512  13.465  21.610  0.00  0.00    +0.000 OA
BRANCH  17  19
ATOM     19  C   UNL     1      -0.675  12.746  21.863  0.00  0.00    +0.000 A 
ATOM     20  C   UNL     1      -1.631  13.769  21.799  0.00  0.00    +0.000 A 
ATOM     21  C   UNL     1      -2.794  13.695  22.566  0.00  0.00    +0.000 A 
ATOM     22  C   UNL     1      -3.008  12.594  23.390  0.00  0.00    +0.000 A 
ATOM     23 CL   UNL     1      -4.410  12.532  24.384  0.00  0.00    +0.000 Cl
ATOM     24  C   UNL     1      -2.090  11.545  23.418  0.00  0.00    +0.000 A 
ATOM     25  C   UNL     1      -0.936  11.605  22.629  0.00  0.00    +0.000 A 
ENDBRANCH  17  19
ENDBRANCH   1  16
TORSDOF 4
ENDMDL
MODEL 3
REMARK VINA RESULT:      -7.0      4.735      8.861
REMARK  Name = 
REMARK  5 active torsions:
REMARK  status: ('A' for Active; 'I' for Inactive)
REMARK    1  A    between atoms: C_1  and  N_2
REMARK    2  A    between atoms: N_2  and  C_12
REMARK    3  A    between atoms: C_3  and  C_5
REMARK    4  A    between atoms: C_12  and  N_14
REMARK    5  A    between atoms: N_17  and  C_18
REMARK                            x       y       z     vdW  Elec       q    Type
REMARK                         _______ _______ _______ _____ _____    ______ ____
ROOT
ATOM      1  C   UNL     1       0.537  10.805  20.152  0.00  0.00    +0.000 C 
ATOM      2  S   UNL     1      -0.184  10.797  21.669  0.00  0.00    +0.000 S 
ENDROOT
BRANCH   1   3
ATOM      3  N   UNL     1       1.121   9.652  19.613  0.00  0.00    +0.000 N 
ATOM      4  C   UNL     1       1.124   9.436  18.153  0.00  0.00    +0.000 C 
ATOM      5  C   UNL     1       2.305   8.529  17.732  0.00  0.00    +0.000 C 
ATOM      6  N   UNL     1       2.295   7.301  18.549  0.00  0.00    +0.000 N 
ATOM      7  C   UNL     1       2.263   7.519  20.008  0.00  0.00    +0.000 C 
ATOM      8  C   UNL     1       1.047   8.382  20.359  0.00  0.00    +0.000 C 
BRANCH   6   9
ATOM      9  C   UNL     1       2.651   6.068  18.047  0.00  0.00    +0.000 A 
ATOM     10  C   UNL     1       1.801   4.955  18.084  0.00  0.00    +0.000 A 
ATOM     11  C   UNL     1       2.214   3.704  17.611  0.00  0.00    +0.000 A 
ATOM     12  C   UNL     1       3.494   3.535  17.100  0.00  0.00    +0.000 A 
ATOM     13  C   UNL     1       4.361   4.622  17.048  0.00  0.00    +0.000 A 
ATOM     14  C   UNL     1       3.939   5.866  17.520  0.00  0.00    +0.000 A 
ENDBRANCH   6   9
ENDBRANCH   1   3
BRANCH   1  16
ATOM     15  C   UNL     1       1.984  12.473  19.077  0.00  0.00    +0.000 C 
ATOM     16  N   UNL     1       0.641  11.924  19.260  0.00  0.00    +0.000 N 
ATOM     17  C   UNL     1      -0.383  12.774  18.770  0.00  0.00    +0.000 C 
ATOM     18  O   UNL     1      -0.183  13.951  18.466  0.00  0.00    +0.000 OA
BRANCH  17  19
ATOM     19  C   UNL     1      -1.763  12.261  18.561  0.00  0.00    +0.000 A 
ATOM     20  C   UNL     1      -2.730  12.612  19.513  0.00  0.00    +0.000 A 
ATOM     21  C   UNL     1      -4.035  12.131  19.402  0.00  0.00    +0.000 A 
ATOM     22  C   UNL     1      -4.378  11.307  18.333  0.00  0.00    +0.000 A 
ATOM     23 CL   UNL     1      -5.969  10.662  18.230  0.00  0.00    +0.000 Cl
ATOM     24  C   UNL     1      -3.438  10.999  17.350  0.00  0.00    +0.000 A 
ATOM     25  C   UNL     1      -2.137  11.503  17.446  0.00  0.00    +0.000 A 
ENDBRANCH  17  19
ENDBRANCH   1  16
TORSDOF 4
ENDMDL
MODEL 4
REMARK VINA RESULT:      -7.0      0.291      1.009
REMARK  Name = 
REMARK  5 active torsions:
REMARK  status: ('A' for Active; 'I' for Inactive)
REMARK    1  A    between atoms: C_1  and  N_2
REMARK    2  A    between atoms: N_2  and  C_12
REMARK    3  A    between atoms: C_3  and  C_5
REMARK    4  A    between atoms: C_12  and  N_14
REMARK    5  A    between atoms: N_17  and  C_18
REMARK                            x       y       z     vdW  Elec       q    Type
REMARK                         _______ _______ _______ _____ _____    ______ ____
ROOT
ATOM      1  C   UNL     1       3.336   4.202  19.127  0.00  0.00    +0.000 C 
ATOM      2  S   UNL     1       3.654   3.187  20.427  0.00  0.00    +0.000 S 
ENDROOT
BRANCH   1   3
ATOM      3  N   UNL     1       2.780   5.474  19.310  0.00  0.00    +0.000 N 
ATOM      4  C   UNL     1       1.888   5.735  20.456  0.00  0.00    +0.000 C 
ATOM      5  C   UNL     1       1.912   7.233  20.844  0.00  0.00    +0.000 C 
ATOM      6  N   UNL     1       1.653   8.053  19.646  0.00  0.00    +0.000 N 
ATOM      7  C   UNL     1       2.528   7.771  18.492  0.00  0.00    +0.000 C 
ATOM      8  C   UNL     1       2.419   6.286  18.133  0.00  0.00    +0.000 C 
BRANCH   6   9
ATOM      9  C   UNL     1       0.926   9.224  19.686  0.00  0.00    +0.000 A 
ATOM     10  C   UNL     1       0.861  10.119  18.612  0.00  0.00    +0.000 A 
ATOM     11  C   UNL     1       0.153  11.323  18.705  0.00  0.00    +0.000 A 
ATOM     12  C   UNL     1      -0.496  11.666  19.884  0.00  0.00    +0.000 A 
ATOM     13  C   UNL     1      -0.451  10.796  20.969  0.00  0.00    +0.000 A 
ATOM     14  C   UNL     1       0.254   9.597  20.864  0.00  0.00    +0.000 A 
ENDBRANCH   6   9
ENDBRANCH   1   3
BRANCH   1  16
ATOM     15  C   UNL     1       2.599   3.059  17.083  0.00  0.00    +0.000 C 
ATOM     16  N   UNL     1       3.580   3.920  17.742  0.00  0.00    +0.000 N 
ATOM     17  C   UNL     1       4.773   4.085  16.993  0.00  0.00    +0.000 C 
ATOM     18  O   UNL     1       5.056   3.376  16.026  0.00  0.00    +0.000 OA
BRANCH  17  19
ATOM     19  C   UNL     1       5.737   5.167  17.325  0.00  0.00    +0.000 A 
ATOM     20  C   UNL     1       6.734   4.874  18.265  0.00  0.00    +0.000 A 
ATOM     21  C   UNL     1       7.645   5.855  18.655  0.00  0.00    +0.000 A 
ATOM     22  C   UNL     1       7.568   7.129  18.098  0.00  0.00    +0.000 A 
ATOM     23 CL   UNL     1       8.650   8.357  18.625  0.00  0.00    +0.000 Cl
ATOM     24  C   UNL     1       6.616   7.415  17.121  0.00  0.00    +0.000 A 
ATOM     25  C   UNL     1       5.718   6.423  16.709  0.00  0.00    +0.000 A 
ENDBRANCH  17  19
ENDBRANCH   1  16
TORSDOF 4
ENDMDL
MODEL 5
REMARK VINA RESULT:      -7.0      4.778      8.879
REMARK  Name = 
REMARK  5 active torsions:
REMARK  status: ('A' for Active; 'I' for Inactive)
REMARK    1  A    between atoms: C_1  and  N_2
REMARK    2  A    between atoms: N_2  and  C_12
REMARK    3  A    between atoms: C_3  and  C_5
REMARK    4  A    between atoms: C_12  and  N_14
REMARK    5  A    between atoms: N_17  and  C_18
REMARK                            x       y       z     vdW  Elec       q    Type
REMARK                         _______ _______ _______ _____ _____    ______ ____
ROOT
ATOM      1  C   UNL     1       0.425  10.771  20.265  0.00  0.00    +0.000 C 
ATOM      2  S   UNL     1      -0.326  10.727  21.767  0.00  0.00    +0.000 S 
ENDROOT
BRANCH   1   3
ATOM      3  N   UNL     1       1.040   9.637  19.721  0.00  0.00    +0.000 N 
ATOM      4  C   UNL     1       0.998   9.397  18.265  0.00  0.00    +0.000 C 
ATOM      5  C   UNL     1       2.203   8.537  17.813  0.00  0.00    +0.000 C 
ATOM      6  N   UNL     1       2.278   7.323  18.648  0.00  0.00    +0.000 N 
ATOM      7  C   UNL     1       2.292   7.563  20.103  0.00  0.00    +0.000 C 
ATOM      8  C   UNL     1       1.052   8.377  20.488  0.00  0.00    +0.000 C 
BRANCH   6   9
ATOM      9  C   UNL     1       2.670   6.099  18.150  0.00  0.00    +0.000 A 
ATOM     10  C   UNL     1       3.920   5.882  17.556  0.00  0.00    +0.000 A 
ATOM     11  C   UNL     1       4.266   4.637  17.016  0.00  0.00    +0.000 A 
ATOM     12  C   UNL     1       3.362   3.584  17.046  0.00  0.00    +0.000 A 
ATOM     13  C   UNL     1       2.113   3.768  17.630  0.00  0.00    +0.000 A 
ATOM     14  C   UNL     1       1.779   5.011  18.169  0.00  0.00    +0.000 A 
ENDBRANCH   6   9
ENDBRANCH   1   3
BRANCH   1  16
ATOM     15  C   UNL     1       1.877  12.421  19.172  0.00  0.00    +0.000 C 
ATOM     16  N   UNL     1       0.527  11.905  19.393  0.00  0.00    +0.000 N 
ATOM     17  C   UNL     1      -0.490  12.792  18.958  0.00  0.00    +0.000 C 
ATOM     18  O   UNL     1      -0.269  13.970  18.671  0.00  0.00    +0.000 OA
BRANCH  17  19
ATOM     19  C   UNL     1      -1.890  12.321  18.790  0.00  0.00    +0.000 A 
ATOM     20  C   UNL     1      -2.175  11.541  17.660  0.00  0.00    +0.000 A 
ATOM     21  C   UNL     1      -3.476  11.102  17.417  0.00  0.00    +0.000 A 
ATOM     22  C   UNL     1      -4.494  11.431  18.309  0.00  0.00    +0.000 A 
ATOM     23 CL   UNL     1      -6.109  10.943  17.978  0.00  0.00    +0.000 Cl
ATOM     24  C   UNL     1      -4.211  12.158  19.465  0.00  0.00    +0.000 A 
ATOM     25  C   UNL     1      -2.901  12.577  19.723  0.00  0.00    +0.000 A 
ENDBRANCH  17  19
ENDBRANCH   1  16
TORSDOF 4
ENDMDL
MODEL 6
REMARK VINA RESULT:      -6.9      4.868      8.964
REMARK  Name = 
REMARK  5 active torsions:
REMARK  status: ('A' for Active; 'I' for Inactive)
REMARK    1  A    between atoms: C_1  and  N_2
REMARK    2  A    between atoms: N_2  and  C_12
REMARK    3  A    between atoms: C_3  and  C_5
REMARK    4  A    between atoms: C_12  and  N_14
REMARK    5  A    between atoms: N_17  and  C_18
REMARK                            x       y       z     vdW  Elec       q    Type
REMARK                         _______ _______ _______ _____ _____    ______ ____
ROOT
ATOM      1  C   UNL     1       0.085  11.215  19.176  0.00  0.00    +0.000 C 
ATOM      2  S   UNL     1      -1.432  11.337  18.467  0.00  0.00    +0.000 S 
ENDROOT
BRANCH   1   3
ATOM      3  N   UNL     1       0.734   9.982  19.310  0.00  0.00    +0.000 N 
ATOM      4  C   UNL     1       1.159   9.233  18.111  0.00  0.00    +0.000 C 
ATOM      5  C   UNL     1       2.356   8.307  18.435  0.00  0.00    +0.000 C 
ATOM      6  N   UNL     1       2.029   7.478  19.610  0.00  0.00    +0.000 N 
ATOM      7  C   UNL     1       1.578   8.226  20.799  0.00  0.00    +0.000 C 
ATOM      8  C   UNL     1       0.366   9.083  20.421  0.00  0.00    +0.000 C 
BRANCH   6   9
ATOM      9  C   UNL     1       2.445   6.170  19.739  0.00  0.00    +0.000 A 
ATOM     10  C   UNL     1       1.731   5.211  20.468  0.00  0.00    +0.000 A 
ATOM     11  C   UNL     1       2.208   3.904  20.620  0.00  0.00    +0.000 A 
ATOM     12  C   UNL     1       3.420   3.529  20.055  0.00  0.00    +0.000 A 
ATOM     13  C   UNL     1       4.152   4.459  19.323  0.00  0.00    +0.000 A 
ATOM     14  C   UNL     1       3.666   5.759  19.175  0.00  0.00    +0.000 A 
ENDBRANCH   6   9
ENDBRANCH   1   3
BRANCH   1  16
ATOM     15  C   UNL     1       2.048  12.668  18.921  0.00  0.00    +0.000 C 
ATOM     16  N   UNL     1       0.872  12.293  19.704  0.00  0.00    +0.000 N 
ATOM     17  C   UNL     1       0.870  12.844  21.011  0.00  0.00    +0.000 C 
ATOM     18  O   UNL     1       1.867  13.361  21.518  0.00  0.00    +0.000 OA
BRANCH  17  19
ATOM     19  C   UNL     1      -0.371  12.857  21.829  0.00  0.00    +0.000 A 
ATOM     20  C   UNL     1      -0.708  11.676  22.505  0.00  0.00    +0.000 A 
ATOM     21  C   UNL     1      -1.881  11.604  23.257  0.00  0.00    +0.000 A 
ATOM     22  C   UNL     1      -2.714  12.716  23.343  0.00  0.00    +0.000 A 
ATOM     23 CL   UNL     1      -4.191  12.610  24.218  0.00  0.00    +0.000 Cl
ATOM     24  C   UNL     1      -2.360  13.913  22.722  0.00  0.00    +0.000 A 
ATOM     25  C   UNL     1      -1.170  13.994  21.990  0.00  0.00    +0.000 A 
ENDBRANCH  17  19
ENDBRANCH   1  16
TORSDOF 4
ENDMDL
MODEL 7
REMARK VINA RESULT:      -6.9      4.785      8.929
REMARK  Name = 
REMARK  5 active torsions:
REMARK  status: ('A' for Active; 'I' for Inactive)
REMARK    1  A    between atoms: C_1  and  N_2
REMARK    2  A    between atoms: N_2  and  C_12
REMARK    3  A    between atoms: C_3  and  C_5
REMARK    4  A    between atoms: C_12  and  N_14
REMARK    5  A    between atoms: N_17  and  C_18
REMARK                            x       y       z     vdW  Elec       q    Type
REMARK                         _______ _______ _______ _____ _____    ______ ____
ROOT
ATOM      1  C   UNL     1       0.330  10.765  20.701  0.00  0.00    +0.000 C 
ATOM      2  S   UNL     1      -0.493  10.589  22.154  0.00  0.00    +0.000 S 
ENDROOT
BRANCH   1   3
ATOM      3  N   UNL     1       0.953   9.678  20.075  0.00  0.00    +0.000 N 
ATOM      4  C   UNL     1       0.990   9.592  18.603  0.00  0.00    +0.000 C 
ATOM      5  C   UNL     1       2.202   8.752  18.130  0.00  0.00    +0.000 C 
ATOM      6  N   UNL     1       2.205   7.457  18.836  0.00  0.00    +0.000 N 
ATOM      7  C   UNL     1       2.139   7.545  20.307  0.00  0.00    +0.000 C 
ATOM      8  C   UNL     1       0.895   8.346  20.706  0.00  0.00    +0.000 C 
BRANCH   6   9
ATOM      9  C   UNL     1       2.601   6.281  18.235  0.00  0.00    +0.000 A 
ATOM     10  C   UNL     1       1.815   5.123  18.235  0.00  0.00    +0.000 A 
ATOM     11  C   UNL     1       2.270   3.931  17.659  0.00  0.00    +0.000 A 
ATOM     12  C   UNL     1       3.532   3.868  17.081  0.00  0.00    +0.000 A 
ATOM     13  C   UNL     1       4.336   5.003  17.065  0.00  0.00    +0.000 A 
ATOM     14  C   UNL     1       3.871   6.187  17.639  0.00  0.00    +0.000 A 
ENDBRANCH   6   9
ENDBRANCH   1   3
BRANCH   1  16
ATOM     15  C   UNL     1       1.846  12.525  19.907  0.00  0.00    +0.000 C 
ATOM     16  N   UNL     1       0.491  11.977  19.951  0.00  0.00    +0.000 N 
ATOM     17  C   UNL     1      -0.498  12.892  19.507  0.00  0.00    +0.000 C 
ATOM     18  O   UNL     1      -0.272  14.093  19.352  0.00  0.00    +0.000 OA
BRANCH  17  19
ATOM     19  C   UNL     1      -1.867  12.425  19.164  0.00  0.00    +0.000 A 
ATOM     20  C   UNL     1      -2.024  11.721  17.963  0.00  0.00    +0.000 A 
ATOM     21  C   UNL     1      -3.289  11.291  17.559  0.00  0.00    +0.000 A 
ATOM     22  C   UNL     1      -4.396  11.554  18.360  0.00  0.00    +0.000 A 
ATOM     23 CL   UNL     1      -5.963  11.080  17.833  0.00  0.00    +0.000 Cl
ATOM     24  C   UNL     1      -4.242  12.204  19.584  0.00  0.00    +0.000 A 
ATOM     25  C   UNL     1      -2.971  12.612  20.003  0.00  0.00    +0.000 A 
ENDBRANCH  17  19
ENDBRANCH   1  16
TORSDOF 4
ENDMDL
MODEL 8
REMARK VINA RESULT:      -6.9      0.756      1.624
REMARK  Name = 
REMARK  5 active torsions:
REMARK  status: ('A' for Active; 'I' for Inactive)
REMARK    1  A    between atoms: C_1  and  N_2
REMARK    2  A    between atoms: N_2  and  C_12
REMARK    3  A    between atoms: C_3  and  C_5
REMARK    4  A    between atoms: C_12  and  N_14
REMARK    5  A    between atoms: N_17  and  C_18
REMARK                            x       y       z     vdW  Elec       q    Type
REMARK                         _______ _______ _______ _____ _____    ______ ____
ROOT
ATOM      1  C   UNL     1       3.774   3.862  19.027  0.00  0.00    +0.000 C 
ATOM      2  S   UNL     1       4.243   2.708  20.152  0.00  0.00    +0.000 S 
ENDROOT
BRANCH   1   3
ATOM      3  N   UNL     1       3.078   5.016  19.408  0.00  0.00    +0.000 N 
ATOM      4  C   UNL     1       3.538   6.343  18.955  0.00  0.00    +0.000 C 
ATOM      5  C   UNL     1       2.363   7.350  18.913  0.00  0.00    +0.000 C 
ATOM      6  N   UNL     1       1.661   7.337  20.210  0.00  0.00    +0.000 N 
ATOM      7  C   UNL     1       1.226   6.005  20.674  0.00  0.00    +0.000 C 
ATOM      8  C   UNL     1       2.442   5.076  20.738  0.00  0.00    +0.000 C 
BRANCH   6   9
ATOM      9  C   UNL     1       1.122   8.471  20.778  0.00  0.00    +0.000 A 
ATOM     10  C   UNL     1       0.751   8.547  22.126  0.00  0.00    +0.000 A 
ATOM     11  C   UNL     1       0.160   9.699  22.658  0.00  0.00    +0.000 A 
ATOM     12  C   UNL     1      -0.085  10.800  21.847  0.00  0.00    +0.000 A 
ATOM     13  C   UNL     1       0.274  10.756  20.504  0.00  0.00    +0.000 A 
ATOM     14  C   UNL     1       0.865   9.603  19.984  0.00  0.00    +0.000 A 
ENDBRANCH   6   9
ENDBRANCH   1   3
BRANCH   1  16
ATOM     15  C   UNL     1       3.074   3.022  16.828  0.00  0.00    +0.000 C 
ATOM     16  N   UNL     1       4.012   3.825  17.612  0.00  0.00    +0.000 N 
ATOM     17  C   UNL     1       5.180   4.183  16.893  0.00  0.00    +0.000 C 
ATOM     18  O   UNL     1       5.490   3.660  15.821  0.00  0.00    +0.000 OA
BRANCH  17  19
ATOM     19  C   UNL     1       6.082   5.256  17.391  0.00  0.00    +0.000 A 
ATOM     20  C   UNL     1       5.985   6.512  16.779  0.00  0.00    +0.000 A 
ATOM     21  C   UNL     1       6.830   7.553  17.167  0.00  0.00    +0.000 A 
ATOM     22  C   UNL     1       7.766   7.341  18.176  0.00  0.00    +0.000 A 
ATOM     23 CL   UNL     1       8.850   8.603  18.611  0.00  0.00    +0.000 Cl
ATOM     24  C   UNL     1       7.832   6.112  18.830  0.00  0.00    +0.000 A 
ATOM     25  C   UNL     1       6.966   5.076  18.460  0.00  0.00    +0.000 A 
ENDBRANCH  17  19
ENDBRANCH   1  16
TORSDOF 4
ENDMDL
MODEL 9
REMARK VINA RESULT:      -6.9      2.793      4.246
REMARK  Name = 
REMARK  5 active torsions:
REMARK  status: ('A' for Active; 'I' for Inactive)
REMARK    1  A    between atoms: C_1  and  N_2
REMARK    2  A    between atoms: N_2  and  C_12
REMARK    3  A    between atoms: C_3  and  C_5
REMARK    4  A    between atoms: C_12  and  N_14
REMARK    5  A    between atoms: N_17  and  C_18
REMARK                            x       y       z     vdW  Elec       q    Type
REMARK                         _______ _______ _______ _____ _____    ______ ____
ROOT
ATOM      1  C   UNL     1       5.035   5.250  17.683  0.00  0.00    +0.000 C 
ATOM      2  S   UNL     1       6.664   5.450  18.042  0.00  0.00    +0.000 S 
ENDROOT
BRANCH   1   3
ATOM      3  N   UNL     1       4.057   6.093  18.224  0.00  0.00    +0.000 N 
ATOM      4  C   UNL     1       3.807   7.419  17.624  0.00  0.00    +0.000 C 
ATOM      5  C   UNL     1       2.358   7.886  17.904  0.00  0.00    +0.000 C 
ATOM      6  N   UNL     1       2.084   7.789  19.350  0.00  0.00    +0.000 N 
ATOM      7  C   UNL     1       2.361   6.471  19.953  0.00  0.00    +0.000 C 
ATOM      8  C   UNL     1       3.820   6.092  19.680  0.00  0.00    +0.000 C 
BRANCH   6   9
ATOM      9  C   UNL     1       1.300   8.701  20.023  0.00  0.00    +0.000 A 
ATOM     10  C   UNL     1       0.934   8.548  21.366  0.00  0.00    +0.000 A 
ATOM     11  C   UNL     1       0.095   9.469  22.005  0.00  0.00    +0.000 A 
ATOM     12  C   UNL     1      -0.410  10.559  21.308  0.00  0.00    +0.000 A 
ATOM     13  C   UNL     1      -0.064  10.738  19.972  0.00  0.00    +0.000 A 
ATOM     14  C   UNL     1       0.776   9.817  19.346  0.00  0.00    +0.000 A 
ENDBRANCH   6   9
ENDBRANCH   1   3
BRANCH   1  16
ATOM     15  C   UNL     1       4.991   4.204  15.462  0.00  0.00    +0.000 C 
ATOM     16  N   UNL     1       4.465   4.251  16.826  0.00  0.00    +0.000 N 
ATOM     17  C   UNL     1       3.266   3.512  16.990  0.00  0.00    +0.000 C 
ATOM     18  O   UNL     1       2.603   3.097  16.037  0.00  0.00    +0.000 OA
BRANCH  17  19
ATOM     19  C   UNL     1       2.765   3.165  18.346  0.00  0.00    +0.000 A 
ATOM     20  C   UNL     1       1.390   3.307  18.579  0.00  0.00    +0.000 A 
ATOM     21  C   UNL     1       0.858   3.039  19.841  0.00  0.00    +0.000 A 
ATOM     22  C   UNL     1       1.698   2.619  20.869  0.00  0.00    +0.000 A 
ATOM     23 CL   UNL     1       1.054   2.351  22.441  0.00  0.00    +0.000 Cl
ATOM     24  C   UNL     1       3.058   2.421  20.632  0.00  0.00    +0.000 A 
ATOM     25  C   UNL     1       3.588   2.663  19.360  0.00  0.00    +0.000 A 
ENDBRANCH  17  19
ENDBRANCH   1  16
TORSDOF 4
ENDMDL
