MODEL 1
REMARK VINA RESULT:      -8.9      0.000      0.000
REMARK  Name = 
REMARK  12 active torsions:
REMARK  status: ('A' for Active; 'I' for Inactive)
REMARK    1  A    between atoms: C_1  and  C_2
REMARK    2  A    between atoms: C_2  and  C_3
REMARK    3  A    between atoms: C_3  and  C_4
REMARK    4  A    between atoms: C_3  and  C_6
REMARK    5  A    between atoms: C_4  and  C_5
REMARK    6  A    between atoms: N_8  and  C_9
REMARK    7  A    between atoms: C_11  and  N_12
REMARK    8  A    between atoms: C_13  and  C_15
REMARK    9  A    between atoms: C_16  and  C_17
REMARK   10  A    between atoms: C_20  and  O_21
REMARK   11  A    between atoms: C_22  and  O_23
REMARK   12  A    between atoms: C_27  and  O_28
REMARK                            x       y       z     vdW  Elec       q    Type
REMARK                         _______ _______ _______ _____ _____    ______ ____
ROOT
ATOM      1  C   UNL     1       4.644   4.773  17.967  0.00  0.00    +0.000 A 
ATOM      2  C   UNL     1       5.302   6.008  18.005  0.00  0.00    +0.000 A 
ATOM      3  C   UNL     1       6.275   6.365  17.068  0.00  0.00    +0.000 A 
ATOM      4  C   UNL     1       6.583   5.459  16.051  0.00  0.00    +0.000 A 
ATOM      5  C   UNL     1       5.969   4.196  16.016  0.00  0.00    +0.000 A 
ATOM      6  C   UNL     1       5.013   3.858  16.983  0.00  0.00    +0.000 A 
ENDROOT
BRANCH   1   9
ATOM      7  C   UNL     1       2.288   4.699  18.747  0.00  0.00    +0.000 C 
ATOM      8  O   UNL     1       1.772   5.085  17.698  0.00  0.00    +0.000 OA
ATOM      9  N   UNL     1       3.636   4.431  18.909  0.00  0.00    +0.000 N 
ATOM     10  H   UNL     1       3.948   3.845  19.677  0.00  0.00    +0.000 HD
BRANCH   7  11
ATOM     11  C   UNL     1       1.399   4.389  19.950  0.00  0.00    +0.000 C 
BRANCH  11  13
ATOM     12  C   UNL     1       1.137   2.144  18.660  0.00  0.00    +0.000 C 
ATOM     13  C   UNL     1       0.506   3.177  19.579  0.00  0.00    +0.000 C 
ENDBRANCH  11  13
BRANCH  11  14
ATOM     14  C   UNL     1       2.276   4.178  21.195  0.00  0.00    +0.000 C 
ATOM     15  C   UNL     1       2.035   2.857  21.920  0.00  0.00    +0.000 C 
ENDBRANCH  11  14
ENDBRANCH   7  11
ENDBRANCH   1   9
BRANCH   3  16
ATOM     16  N   UNL     1       6.935   7.619  17.114  0.00  0.00    +0.000 N 
ATOM     17  C   UNL     1       7.913   7.968  18.033  0.00  0.00    +0.000 C 
ATOM     18  O   UNL     1       8.438   7.229  18.857  0.00  0.00    +0.000 OA
ATOM     19  H   UNL     1       6.715   8.275  16.378  0.00  0.00    +0.000 HD
BRANCH  17  20
ATOM     20  C   UNL     1       8.379   9.376  17.908  0.00  0.00    +0.000 C 
ATOM     21  C   UNL     1       9.170   9.864  18.880  0.00  0.00    +0.000 C 
BRANCH  21  22
ATOM     22  C   UNL     1       9.748  11.212  18.909  0.00  0.00    +0.000 A 
ATOM     23  C   UNL     1      10.249  11.714  20.125  0.00  0.00    +0.000 A 
ATOM     24  C   UNL     1      10.832  12.986  20.194  0.00  0.00    +0.000 A 
ATOM     25  C   UNL     1      10.920  13.750  19.039  0.00  0.00    +0.000 A 
ATOM     26  C   UNL     1      10.457  13.245  17.827  0.00  0.00    +0.000 A 
ATOM     27  C   UNL     1       9.881  11.984  17.751  0.00  0.00    +0.000 A 
BRANCH  25  28
ATOM     28  O   UNL     1      11.459  15.006  19.039  0.00  0.00    +0.000 OA
ATOM     29  H   UNL     1      11.638  15.257  18.116  0.00  0.00    +0.000 HD
ENDBRANCH  25  28
BRANCH  26  30
ATOM     30  O   UNL     1      10.566  13.991  16.687  0.00  0.00    +0.000 OA
ATOM     31  H   UNL     1      10.778  13.340  15.991  0.00  0.00    +0.000 HD
ENDBRANCH  26  30
ENDBRANCH  21  22
ENDBRANCH  17  20
ENDBRANCH   3  16
BRANCH   6  32
ATOM     32  O   UNL     1       4.407   2.628  16.963  0.00  0.00    +0.000 OA
ATOM     33  H   UNL     1       3.712   2.618  17.643  0.00  0.00    +0.000 HD
ENDBRANCH   6  32
TORSDOF 10
ENDMDL
MODEL 2
REMARK VINA RESULT:      -8.7      0.807      1.633
REMARK  Name = 
REMARK  12 active torsions:
REMARK  status: ('A' for Active; 'I' for Inactive)
REMARK    1  A    between atoms: C_1  and  C_2
REMARK    2  A    between atoms: C_2  and  C_3
REMARK    3  A    between atoms: C_3  and  C_4
REMARK    4  A    between atoms: C_3  and  C_6
REMARK    5  A    between atoms: C_4  and  C_5
REMARK    6  A    between atoms: N_8  and  C_9
REMARK    7  A    between atoms: C_11  and  N_12
REMARK    8  A    between atoms: C_13  and  C_15
REMARK    9  A    between atoms: C_16  and  C_17
REMARK   10  A    between atoms: C_20  and  O_21
REMARK   11  A    between atoms: C_22  and  O_23
REMARK   12  A    between atoms: C_27  and  O_28
REMARK                            x       y       z     vdW  Elec       q    Type
REMARK                         _______ _______ _______ _____ _____    ______ ____
ROOT
ATOM      1  C   UNL     1       4.509   4.748  18.012  0.00  0.00    +0.000 A 
ATOM      2  C   UNL     1       5.197   5.967  18.035  0.00  0.00    +0.000 A 
ATOM      3  C   UNL     1       6.189   6.283  17.104  0.00  0.00    +0.000 A 
ATOM      4  C   UNL     1       6.487   5.351  16.108  0.00  0.00    +0.000 A 
ATOM      5  C   UNL     1       5.842   4.103  16.089  0.00  0.00    +0.000 A 
ATOM      6  C   UNL     1       4.867   3.806  17.049  0.00  0.00    +0.000 A 
ENDROOT
BRANCH   1   9
ATOM      7  C   UNL     1       2.129   4.485  18.665  0.00  0.00    +0.000 C 
ATOM      8  O   UNL     1       1.652   4.588  17.535  0.00  0.00    +0.000 OA
ATOM      9  N   UNL     1       3.483   4.449  18.948  0.00  0.00    +0.000 N 
ATOM     10  H   UNL     1       3.806   4.068  19.832  0.00  0.00    +0.000 HD
BRANCH   7  11
ATOM     11  C   UNL     1       1.194   4.282  19.857  0.00  0.00    +0.000 C 
BRANCH  11  13
ATOM     12  C   UNL     1       1.813   2.536  21.684  0.00  0.00    +0.000 C 
ATOM     13  C   UNL     1       1.286   2.794  20.283  0.00  0.00    +0.000 C 
ENDBRANCH  11  13
BRANCH  11  14
ATOM     14  C   UNL     1       1.550   5.286  20.965  0.00  0.00    +0.000 C 
ATOM     15  C   UNL     1       1.548   6.745  20.518  0.00  0.00    +0.000 C 
ENDBRANCH  11  14
ENDBRANCH   7  11
ENDBRANCH   1   9
BRANCH   3  16
ATOM     16  N   UNL     1       6.880   7.521  17.135  0.00  0.00    +0.000 N 
ATOM     17  C   UNL     1       7.878   7.851  18.038  0.00  0.00    +0.000 C 
ATOM     18  O   UNL     1       8.397   7.103  18.859  0.00  0.00    +0.000 OA
ATOM     19  H   UNL     1       6.665   8.179  16.399  0.00  0.00    +0.000 HD
BRANCH  17  20
ATOM     20  C   UNL     1       8.375   9.247  17.900  0.00  0.00    +0.000 C 
ATOM     21  C   UNL     1       9.082   9.765  18.921  0.00  0.00    +0.000 C 
BRANCH  21  22
ATOM     22  C   UNL     1       9.676  11.107  18.949  0.00  0.00    +0.000 A 
ATOM     23  C   UNL     1      10.108  11.688  17.742  0.00  0.00    +0.000 A 
ATOM     24  C   UNL     1      10.659  12.975  17.719  0.00  0.00    +0.000 A 
ATOM     25  C   UNL     1      10.768  13.683  18.908  0.00  0.00    +0.000 A 
ATOM     26  C   UNL     1      10.311  13.126  20.100  0.00  0.00    +0.000 A 
ATOM     27  C   UNL     1       9.761  11.852  20.129  0.00  0.00    +0.000 A 
BRANCH  25  28
ATOM     28  O   UNL     1      11.312  14.935  18.960  0.00  0.00    +0.000 OA
ATOM     29  H   UNL     1      11.480  15.152  19.893  0.00  0.00    +0.000 HD
ENDBRANCH  25  28
BRANCH  26  30
ATOM     30  O   UNL     1      10.399  13.835  21.264  0.00  0.00    +0.000 OA
ATOM     31  H   UNL     1      11.224  13.516  21.680  0.00  0.00    +0.000 HD
ENDBRANCH  26  30
ENDBRANCH  21  22
ENDBRANCH  17  20
ENDBRANCH   3  16
BRANCH   6  32
ATOM     32  O   UNL     1       4.232   2.591  17.045  0.00  0.00    +0.000 OA
ATOM     33  H   UNL     1       3.381   2.692  16.584  0.00  0.00    +0.000 HD
ENDBRANCH   6  32
TORSDOF 10
ENDMDL
MODEL 3
REMARK VINA RESULT:      -8.5      0.579      1.257
REMARK  Name = 
REMARK  12 active torsions:
REMARK  status: ('A' for Active; 'I' for Inactive)
REMARK    1  A    between atoms: C_1  and  C_2
REMARK    2  A    between atoms: C_2  and  C_3
REMARK    3  A    between atoms: C_3  and  C_4
REMARK    4  A    between atoms: C_3  and  C_6
REMARK    5  A    between atoms: C_4  and  C_5
REMARK    6  A    between atoms: N_8  and  C_9
REMARK    7  A    between atoms: C_11  and  N_12
REMARK    8  A    between atoms: C_13  and  C_15
REMARK    9  A    between atoms: C_16  and  C_17
REMARK   10  A    between atoms: C_20  and  O_21
REMARK   11  A    between atoms: C_22  and  O_23
REMARK   12  A    between atoms: C_27  and  O_28
REMARK                            x       y       z     vdW  Elec       q    Type
REMARK                         _______ _______ _______ _____ _____    ______ ____
ROOT
ATOM      1  C   UNL     1       4.590   4.625  17.912  0.00  0.00    +0.000 A 
ATOM      2  C   UNL     1       5.240   5.863  17.980  0.00  0.00    +0.000 A 
ATOM      3  C   UNL     1       6.219   6.244  17.058  0.00  0.00    +0.000 A 
ATOM      4  C   UNL     1       6.541   5.359  16.028  0.00  0.00    +0.000 A 
ATOM      5  C   UNL     1       5.935   4.093  15.964  0.00  0.00    +0.000 A 
ATOM      6  C   UNL     1       4.973   3.731  16.915  0.00  0.00    +0.000 A 
ENDROOT
BRANCH   1   9
ATOM      7  C   UNL     1       2.257   4.672  18.761  0.00  0.00    +0.000 C 
ATOM      8  O   UNL     1       1.756   5.237  17.788  0.00  0.00    +0.000 OA
ATOM      9  N   UNL     1       3.576   4.260  18.840  0.00  0.00    +0.000 N 
ATOM     10  H   UNL     1       3.847   3.553  19.515  0.00  0.00    +0.000 HD
BRANCH   7  11
ATOM     11  C   UNL     1       1.370   4.293  19.946  0.00  0.00    +0.000 C 
BRANCH  11  13
ATOM     12  C   UNL     1       1.254   2.123  18.515  0.00  0.00    +0.000 C 
ATOM     13  C   UNL     1       0.600   3.002  19.567  0.00  0.00    +0.000 C 
ENDBRANCH  11  13
BRANCH  11  14
ATOM     14  C   UNL     1       2.232   4.173  21.214  0.00  0.00    +0.000 C 
ATOM     15  C   UNL     1       2.139   2.820  21.914  0.00  0.00    +0.000 C 
ENDBRANCH  11  14
ENDBRANCH   7  11
ENDBRANCH   1   9
BRANCH   3  16
ATOM     16  N   UNL     1       6.871   7.501  17.134  0.00  0.00    +0.000 N 
ATOM     17  C   UNL     1       7.867   7.825  18.042  0.00  0.00    +0.000 C 
ATOM     18  O   UNL     1       8.416   7.061  18.828  0.00  0.00    +0.000 OA
ATOM     19  H   UNL     1       6.630   8.181  16.426  0.00  0.00    +0.000 HD
BRANCH  17  20
ATOM     20  C   UNL     1       8.320   9.240  17.956  0.00  0.00    +0.000 C 
ATOM     21  C   UNL     1       9.187   9.679  18.886  0.00  0.00    +0.000 C 
BRANCH  21  22
ATOM     22  C   UNL     1       9.765  11.027  18.941  0.00  0.00    +0.000 A 
ATOM     23  C   UNL     1      10.257  11.608  17.757  0.00  0.00    +0.000 A 
ATOM     24  C   UNL     1      10.795  12.901  17.759  0.00  0.00    +0.000 A 
ATOM     25  C   UNL     1      10.830  13.614  18.949  0.00  0.00    +0.000 A 
ATOM     26  C   UNL     1      10.314  13.057  20.116  0.00  0.00    +0.000 A 
ATOM     27  C   UNL     1       9.777  11.778  20.120  0.00  0.00    +0.000 A 
BRANCH  25  28
ATOM     28  O   UNL     1      11.358  14.873  19.025  0.00  0.00    +0.000 OA
ATOM     29  H   UNL     1      11.722  15.100  18.153  0.00  0.00    +0.000 HD
ENDBRANCH  25  28
BRANCH  26  30
ATOM     30  O   UNL     1      10.330  13.771  21.281  0.00  0.00    +0.000 OA
ATOM     31  H   UNL     1      10.843  14.574  21.066  0.00  0.00    +0.000 HD
ENDBRANCH  26  30
ENDBRANCH  21  22
ENDBRANCH  17  20
ENDBRANCH   3  16
BRANCH   6  32
ATOM     32  O   UNL     1       4.375   2.498  16.867  0.00  0.00    +0.000 OA
ATOM     33  H   UNL     1       3.423   2.626  16.716  0.00  0.00    +0.000 HD
ENDBRANCH   6  32
TORSDOF 10
ENDMDL
MODEL 4
REMARK VINA RESULT:      -8.4      0.998      1.598
REMARK  Name = 
REMARK  12 active torsions:
REMARK  status: ('A' for Active; 'I' for Inactive)
REMARK    1  A    between atoms: C_1  and  C_2
REMARK    2  A    between atoms: C_2  and  C_3
REMARK    3  A    between atoms: C_3  and  C_4
REMARK    4  A    between atoms: C_3  and  C_6
REMARK    5  A    between atoms: C_4  and  C_5
REMARK    6  A    between atoms: N_8  and  C_9
REMARK    7  A    between atoms: C_11  and  N_12
REMARK    8  A    between atoms: C_13  and  C_15
REMARK    9  A    between atoms: C_16  and  C_17
REMARK   10  A    between atoms: C_20  and  O_21
REMARK   11  A    between atoms: C_22  and  O_23
REMARK   12  A    between atoms: C_27  and  O_28
REMARK                            x       y       z     vdW  Elec       q    Type
REMARK                         _______ _______ _______ _____ _____    ______ ____
ROOT
ATOM      1  C   UNL     1       4.852   4.944  17.697  0.00  0.00    +0.000 A 
ATOM      2  C   UNL     1       5.472   6.197  17.745  0.00  0.00    +0.000 A 
ATOM      3  C   UNL     1       6.556   6.526  16.927  0.00  0.00    +0.000 A 
ATOM      4  C   UNL     1       7.020   5.570  16.022  0.00  0.00    +0.000 A 
ATOM      5  C   UNL     1       6.443   4.289  15.986  0.00  0.00    +0.000 A 
ATOM      6  C   UNL     1       5.372   3.982  16.833  0.00  0.00    +0.000 A 
ENDROOT
BRANCH   1   9
ATOM      7  C   UNL     1       3.727   3.657  19.498  0.00  0.00    +0.000 C 
ATOM      8  O   UNL     1       4.731   3.080  19.918  0.00  0.00    +0.000 OA
ATOM      9  N   UNL     1       3.732   4.631  18.515  0.00  0.00    +0.000 N 
ATOM     10  H   UNL     1       2.946   5.267  18.428  0.00  0.00    +0.000 HD
BRANCH   7  11
ATOM     11  C   UNL     1       2.375   3.376  20.151  0.00  0.00    +0.000 C 
BRANCH  11  13
ATOM     12  C   UNL     1       1.611   5.768  20.834  0.00  0.00    +0.000 C 
ATOM     13  C   UNL     1       2.165   4.424  21.275  0.00  0.00    +0.000 C 
ENDBRANCH  11  13
BRANCH  11  14
ATOM     14  C   UNL     1       1.277   3.367  19.073  0.00  0.00    +0.000 C 
ATOM     15  C   UNL     1       0.831   1.974  18.640  0.00  0.00    +0.000 C 
ENDBRANCH  11  14
ENDBRANCH   7  11
ENDBRANCH   1   9
BRANCH   3  16
ATOM     16  N   UNL     1       7.178   7.800  16.982  0.00  0.00    +0.000 N 
ATOM     17  C   UNL     1       8.049   8.216  17.977  0.00  0.00    +0.000 C 
ATOM     18  O   UNL     1       8.506   7.529  18.883  0.00  0.00    +0.000 OA
ATOM     19  H   UNL     1       7.018   8.417  16.198  0.00  0.00    +0.000 HD
BRANCH  17  20
ATOM     20  C   UNL     1       8.490   9.630  17.835  0.00  0.00    +0.000 C 
ATOM     21  C   UNL     1       9.403  10.094  18.707  0.00  0.00    +0.000 C 
BRANCH  21  22
ATOM     22  C   UNL     1       9.977  11.444  18.701  0.00  0.00    +0.000 A 
ATOM     23  C   UNL     1      10.283  12.062  19.928  0.00  0.00    +0.000 A 
ATOM     24  C   UNL     1      10.853  13.340  19.969  0.00  0.00    +0.000 A 
ATOM     25  C   UNL     1      11.127  13.994  18.775  0.00  0.00    +0.000 A 
ATOM     26  C   UNL     1      10.859  13.373  17.558  0.00  0.00    +0.000 A 
ATOM     27  C   UNL     1      10.296  12.106  17.511  0.00  0.00    +0.000 A 
BRANCH  25  28
ATOM     28  O   UNL     1      11.667  15.249  18.742  0.00  0.00    +0.000 OA
ATOM     29  H   UNL     1      11.995  15.459  19.633  0.00  0.00    +0.000 HD
ENDBRANCH  25  28
BRANCH  26  30
ATOM     30  O   UNL     1      11.150  14.010  16.385  0.00  0.00    +0.000 OA
ATOM     31  H   UNL     1      10.299  14.037  15.906  0.00  0.00    +0.000 HD
ENDBRANCH  26  30
ENDBRANCH  21  22
ENDBRANCH  17  20
ENDBRANCH   3  16
BRANCH   6  32
ATOM     32  O   UNL     1       4.800   2.736  16.811  0.00  0.00    +0.000 OA
ATOM     33  H   UNL     1       4.510   2.548  15.901  0.00  0.00    +0.000 HD
ENDBRANCH   6  32
TORSDOF 10
ENDMDL
MODEL 5
REMARK VINA RESULT:      -8.2      0.886      1.468
REMARK  Name = 
REMARK  12 active torsions:
REMARK  status: ('A' for Active; 'I' for Inactive)
REMARK    1  A    between atoms: C_1  and  C_2
REMARK    2  A    between atoms: C_2  and  C_3
REMARK    3  A    between atoms: C_3  and  C_4
REMARK    4  A    between atoms: C_3  and  C_6
REMARK    5  A    between atoms: C_4  and  C_5
REMARK    6  A    between atoms: N_8  and  C_9
REMARK    7  A    between atoms: C_11  and  N_12
REMARK    8  A    between atoms: C_13  and  C_15
REMARK    9  A    between atoms: C_16  and  C_17
REMARK   10  A    between atoms: C_20  and  O_21
REMARK   11  A    between atoms: C_22  and  O_23
REMARK   12  A    between atoms: C_27  and  O_28
REMARK                            x       y       z     vdW  Elec       q    Type
REMARK                         _______ _______ _______ _____ _____    ______ ____
ROOT
ATOM      1  C   UNL     1       4.964   4.882  17.978  0.00  0.00    +0.000 A 
ATOM      2  C   UNL     1       5.598   6.131  17.989  0.00  0.00    +0.000 A 
ATOM      3  C   UNL     1       6.525   6.507  17.014  0.00  0.00    +0.000 A 
ATOM      4  C   UNL     1       6.812   5.605  15.987  0.00  0.00    +0.000 A 
ATOM      5  C   UNL     1       6.223   4.330  15.977  0.00  0.00    +0.000 A 
ATOM      6  C   UNL     1       5.314   3.973  16.981  0.00  0.00    +0.000 A 
ENDROOT
BRANCH   1   9
ATOM      7  C   UNL     1       2.655   4.829  18.887  0.00  0.00    +0.000 C 
ATOM      8  O   UNL     1       2.091   5.275  17.887  0.00  0.00    +0.000 OA
ATOM      9  N   UNL     1       4.003   4.522  18.960  0.00  0.00    +0.000 N 
ATOM     10  H   UNL     1       4.341   3.893  19.682  0.00  0.00    +0.000 HD
BRANCH   7  11
ATOM     11  C   UNL     1       1.826   4.485  20.123  0.00  0.00    +0.000 C 
BRANCH  11  13
ATOM     12  C   UNL     1       2.029   7.035  20.595  0.00  0.00    +0.000 C 
ATOM     13  C   UNL     1       1.158   5.791  20.625  0.00  0.00    +0.000 C 
ENDBRANCH  11  13
BRANCH  11  14
ATOM     14  C   UNL     1       0.841   3.354  19.781  0.00  0.00    +0.000 C 
ATOM     15  C   UNL     1       1.502   2.067  19.298  0.00  0.00    +0.000 C 
ENDBRANCH  11  14
ENDBRANCH   7  11
ENDBRANCH   1   9
BRANCH   3  16
ATOM     16  N   UNL     1       7.161   7.774  17.032  0.00  0.00    +0.000 N 
ATOM     17  C   UNL     1       8.073   8.191  17.990  0.00  0.00    +0.000 C 
ATOM     18  O   UNL     1       8.557   7.507  18.884  0.00  0.00    +0.000 OA
ATOM     19  H   UNL     1       6.977   8.386  16.250  0.00  0.00    +0.000 HD
BRANCH  17  20
ATOM     20  C   UNL     1       8.522   9.599  17.817  0.00  0.00    +0.000 C 
ATOM     21  C   UNL     1       9.174  10.180  18.841  0.00  0.00    +0.000 C 
BRANCH  21  22
ATOM     22  C   UNL     1       9.717  11.543  18.840  0.00  0.00    +0.000 A 
ATOM     23  C   UNL     1      10.967  11.781  19.441  0.00  0.00    +0.000 A 
ATOM     24  C   UNL     1      11.534  13.061  19.443  0.00  0.00    +0.000 A 
ATOM     25  C   UNL     1      10.850  14.102  18.830  0.00  0.00    +0.000 A 
ATOM     26  C   UNL     1       9.629  13.865  18.203  0.00  0.00    +0.000 A 
ATOM     27  C   UNL     1       9.063  12.598  18.196  0.00  0.00    +0.000 A 
BRANCH  25  28
ATOM     28  O   UNL     1      11.337  15.378  18.810  0.00  0.00    +0.000 OA
ATOM     29  H   UNL     1      11.167  15.779  19.680  0.00  0.00    +0.000 HD
ENDBRANCH  25  28
BRANCH  26  30
ATOM     30  O   UNL     1       8.969  14.887  17.582  0.00  0.00    +0.000 OA
ATOM     31  H   UNL     1       9.410  15.695  17.909  0.00  0.00    +0.000 HD
ENDBRANCH  26  30
ENDBRANCH  21  22
ENDBRANCH  17  20
ENDBRANCH   3  16
BRANCH   6  32
ATOM     32  O   UNL     1       4.733   2.731  16.986  0.00  0.00    +0.000 OA
ATOM     33  H   UNL     1       4.242   2.619  16.154  0.00  0.00    +0.000 HD
ENDBRANCH   6  32
TORSDOF 10
ENDMDL
MODEL 6
REMARK VINA RESULT:      -8.2      1.012      1.202
REMARK  Name = 
REMARK  12 active torsions:
REMARK  status: ('A' for Active; 'I' for Inactive)
REMARK    1  A    between atoms: C_1  and  C_2
REMARK    2  A    between atoms: C_2  and  C_3
REMARK    3  A    between atoms: C_3  and  C_4
REMARK    4  A    between atoms: C_3  and  C_6
REMARK    5  A    between atoms: C_4  and  C_5
REMARK    6  A    between atoms: N_8  and  C_9
REMARK    7  A    between atoms: C_11  and  N_12
REMARK    8  A    between atoms: C_13  and  C_15
REMARK    9  A    between atoms: C_16  and  C_17
REMARK   10  A    between atoms: C_20  and  O_21
REMARK   11  A    between atoms: C_22  and  O_23
REMARK   12  A    between atoms: C_27  and  O_28
REMARK                            x       y       z     vdW  Elec       q    Type
REMARK                         _______ _______ _______ _____ _____    ______ ____
ROOT
ATOM      1  C   UNL     1       4.589   5.241  17.434  0.00  0.00    +0.000 A 
ATOM      2  C   UNL     1       5.298   6.446  17.491  0.00  0.00    +0.000 A 
ATOM      3  C   UNL     1       6.553   6.604  16.896  0.00  0.00    +0.000 A 
ATOM      4  C   UNL     1       7.102   5.520  16.207  0.00  0.00    +0.000 A 
ATOM      5  C   UNL     1       6.430   4.287  16.173  0.00  0.00    +0.000 A 
ATOM      6  C   UNL     1       5.184   4.153  16.798  0.00  0.00    +0.000 A 
ENDROOT
BRANCH   1   9
ATOM      7  C   UNL     1       3.065   4.556  19.270  0.00  0.00    +0.000 C 
ATOM      8  O   UNL     1       3.938   4.306  20.103  0.00  0.00    +0.000 OA
ATOM      9  N   UNL     1       3.302   5.101  18.021  0.00  0.00    +0.000 N 
ATOM     10  H   UNL     1       2.548   5.555  17.514  0.00  0.00    +0.000 HD
BRANCH   7  11
ATOM     11  C   UNL     1       1.596   4.357  19.642  0.00  0.00    +0.000 C 
BRANCH  11  13
ATOM     12  C   UNL     1       0.782   2.060  18.731  0.00  0.00    +0.000 C 
ATOM     13  C   UNL     1       1.372   2.844  19.891  0.00  0.00    +0.000 C 
ENDBRANCH  11  13
BRANCH  11  14
ATOM     14  C   UNL     1       1.243   5.260  20.836  0.00  0.00    +0.000 C 
ATOM     15  C   UNL     1       1.560   6.737  20.624  0.00  0.00    +0.000 C 
ENDBRANCH  11  14
ENDBRANCH   7  11
ENDBRANCH   1   9
BRANCH   3  16
ATOM     16  N   UNL     1       7.264   7.829  16.958  0.00  0.00    +0.000 N 
ATOM     17  C   UNL     1       8.115   8.202  17.987  0.00  0.00    +0.000 C 
ATOM     18  O   UNL     1       8.476   7.502  18.926  0.00  0.00    +0.000 OA
ATOM     19  H   UNL     1       7.187   8.439  16.157  0.00  0.00    +0.000 HD
BRANCH  17  20
ATOM     20  C   UNL     1       8.666   9.576  17.841  0.00  0.00    +0.000 C 
ATOM     21  C   UNL     1       9.223  10.147  18.925  0.00  0.00    +0.000 C 
BRANCH  21  22
ATOM     22  C   UNL     1       9.843  11.476  18.962  0.00  0.00    +0.000 A 
ATOM     23  C   UNL     1      10.903  11.711  19.857  0.00  0.00    +0.000 A 
ATOM     24  C   UNL     1      11.541  12.957  19.910  0.00  0.00    +0.000 A 
ATOM     25  C   UNL     1      11.119  13.965  19.054  0.00  0.00    +0.000 A 
ATOM     26  C   UNL     1      10.094  13.729  18.142  0.00  0.00    +0.000 A 
ATOM     27  C   UNL     1       9.460  12.495  18.084  0.00  0.00    +0.000 A 
BRANCH  25  28
ATOM     28  O   UNL     1      11.685  15.209  19.065  0.00  0.00    +0.000 OA
ATOM     29  H   UNL     1      11.707  15.538  18.150  0.00  0.00    +0.000 HD
ENDBRANCH  25  28
BRANCH  26  30
ATOM     30  O   UNL     1       9.697  14.717  17.287  0.00  0.00    +0.000 OA
ATOM     31  H   UNL     1       8.757  14.519  17.108  0.00  0.00    +0.000 HD
ENDBRANCH  26  30
ENDBRANCH  21  22
ENDBRANCH  17  20
ENDBRANCH   3  16
BRANCH   6  32
ATOM     32  O   UNL     1       4.518   2.955  16.775  0.00  0.00    +0.000 OA
ATOM     33  H   UNL     1       4.349   2.717  15.847  0.00  0.00    +0.000 HD
ENDBRANCH   6  32
TORSDOF 10
ENDMDL
MODEL 7
REMARK VINA RESULT:      -8.1      2.516      4.693
REMARK  Name = 
REMARK  12 active torsions:
REMARK  status: ('A' for Active; 'I' for Inactive)
REMARK    1  A    between atoms: C_1  and  C_2
REMARK    2  A    between atoms: C_2  and  C_3
REMARK    3  A    between atoms: C_3  and  C_4
REMARK    4  A    between atoms: C_3  and  C_6
REMARK    5  A    between atoms: C_4  and  C_5
REMARK    6  A    between atoms: N_8  and  C_9
REMARK    7  A    between atoms: C_11  and  N_12
REMARK    8  A    between atoms: C_13  and  C_15
REMARK    9  A    between atoms: C_16  and  C_17
REMARK   10  A    between atoms: C_20  and  O_21
REMARK   11  A    between atoms: C_22  and  O_23
REMARK   12  A    between atoms: C_27  and  O_28
REMARK                            x       y       z     vdW  Elec       q    Type
REMARK                         _______ _______ _______ _____ _____    ______ ____
ROOT
ATOM      1  C   UNL     1       5.157   4.699  15.873  0.00  0.00    +0.000 A 
ATOM      2  C   UNL     1       5.909   5.879  15.913  0.00  0.00    +0.000 A 
ATOM      3  C   UNL     1       6.049   6.637  17.079  0.00  0.00    +0.000 A 
ATOM      4  C   UNL     1       5.426   6.185  18.244  0.00  0.00    +0.000 A 
ATOM      5  C   UNL     1       4.630   5.028  18.219  0.00  0.00    +0.000 A 
ATOM      6  C   UNL     1       4.490   4.301  17.030  0.00  0.00    +0.000 A 
ENDROOT
BRANCH   1   9
ATOM      7  C   UNL     1       5.991   3.892  13.679  0.00  0.00    +0.000 C 
ATOM      8  O   UNL     1       7.122   4.373  13.763  0.00  0.00    +0.000 OA
ATOM      9  N   UNL     1       5.045   3.923  14.688  0.00  0.00    +0.000 N 
ATOM     10  H   UNL     1       4.269   3.268  14.675  0.00  0.00    +0.000 HD
BRANCH   7  11
ATOM     11  C   UNL     1       5.600   3.113  12.423  0.00  0.00    +0.000 C 
BRANCH  11  13
ATOM     12  C   UNL     1       3.649   3.098  10.703  0.00  0.00    +0.000 C 
ATOM     13  C   UNL     1       4.450   3.884  11.727  0.00  0.00    +0.000 C 
ENDBRANCH  11  13
BRANCH  11  14
ATOM     14  C   UNL     1       6.845   2.896  11.547  0.00  0.00    +0.000 C 
ATOM     15  C   UNL     1       7.016   1.468  11.037  0.00  0.00    +0.000 C 
ENDBRANCH  11  14
ENDBRANCH   7  11
ENDBRANCH   1   9
BRANCH   3  16
ATOM     16  N   UNL     1       6.814   7.831  17.110  0.00  0.00    +0.000 N 
ATOM     17  C   UNL     1       7.888   8.063  17.956  0.00  0.00    +0.000 C 
ATOM     18  O   UNL     1       8.413   7.252  18.709  0.00  0.00    +0.000 OA
ATOM     19  H   UNL     1       6.591   8.531  16.417  0.00  0.00    +0.000 HD
BRANCH  17  20
ATOM     20  C   UNL     1       8.458   9.433  17.838  0.00  0.00    +0.000 C 
ATOM     21  C   UNL     1       9.058   9.958  18.921  0.00  0.00    +0.000 C 
BRANCH  21  22
ATOM     22  C   UNL     1       9.702  11.275  18.982  0.00  0.00    +0.000 A 
ATOM     23  C   UNL     1      10.636  11.531  20.004  0.00  0.00    +0.000 A 
ATOM     24  C   UNL     1      11.293  12.766  20.087  0.00  0.00    +0.000 A 
ATOM     25  C   UNL     1      11.019  13.739  19.135  0.00  0.00    +0.000 A 
ATOM     26  C   UNL     1      10.122  13.478  18.103  0.00  0.00    +0.000 A 
ATOM     27  C   UNL     1       9.470  12.256  18.014  0.00  0.00    +0.000 A 
BRANCH  25  28
ATOM     28  O   UNL     1      11.610  14.971  19.167  0.00  0.00    +0.000 OA
ATOM     29  H   UNL     1      10.924  15.629  19.371  0.00  0.00    +0.000 HD
ENDBRANCH  25  28
BRANCH  26  30
ATOM     30  O   UNL     1       9.872  14.431  17.156  0.00  0.00    +0.000 OA
ATOM     31  H   UNL     1      10.508  14.235  16.441  0.00  0.00    +0.000 HD
ENDBRANCH  26  30
ENDBRANCH  21  22
ENDBRANCH  17  20
ENDBRANCH   3  16
BRANCH   6  32
ATOM     32  O   UNL     1       3.714   3.172  16.990  0.00  0.00    +0.000 OA
ATOM     33  H   UNL     1       3.244   3.093  17.838  0.00  0.00    +0.000 HD
ENDBRANCH   6  32
TORSDOF 10
ENDMDL
MODEL 8
REMARK VINA RESULT:      -8.0      0.814      1.859
REMARK  Name = 
REMARK  12 active torsions:
REMARK  status: ('A' for Active; 'I' for Inactive)
REMARK    1  A    between atoms: C_1  and  C_2
REMARK    2  A    between atoms: C_2  and  C_3
REMARK    3  A    between atoms: C_3  and  C_4
REMARK    4  A    between atoms: C_3  and  C_6
REMARK    5  A    between atoms: C_4  and  C_5
REMARK    6  A    between atoms: N_8  and  C_9
REMARK    7  A    between atoms: C_11  and  N_12
REMARK    8  A    between atoms: C_13  and  C_15
REMARK    9  A    between atoms: C_16  and  C_17
REMARK   10  A    between atoms: C_20  and  O_21
REMARK   11  A    between atoms: C_22  and  O_23
REMARK   12  A    between atoms: C_27  and  O_28
REMARK                            x       y       z     vdW  Elec       q    Type
REMARK                         _______ _______ _______ _____ _____    ______ ____
ROOT
ATOM      1  C   UNL     1       5.133   4.573  17.777  0.00  0.00    +0.000 A 
ATOM      2  C   UNL     1       5.711   5.843  17.889  0.00  0.00    +0.000 A 
ATOM      3  C   UNL     1       6.568   6.363  16.915  0.00  0.00    +0.000 A 
ATOM      4  C   UNL     1       6.837   5.588  15.785  0.00  0.00    +0.000 A 
ATOM      5  C   UNL     1       6.304   4.293  15.669  0.00  0.00    +0.000 A 
ATOM      6  C   UNL     1       5.466   3.791  16.673  0.00  0.00    +0.000 A 
ENDROOT
BRANCH   1   9
ATOM      7  C   UNL     1       2.879   4.308  18.784  0.00  0.00    +0.000 C 
ATOM      8  O   UNL     1       2.243   4.821  17.862  0.00  0.00    +0.000 OA
ATOM      9  N   UNL     1       4.242   4.067  18.761  0.00  0.00    +0.000 N 
ATOM     10  H   UNL     1       4.646   3.388  19.398  0.00  0.00    +0.000 HD
BRANCH   7  11
ATOM     11  C   UNL     1       2.133   3.799  20.016  0.00  0.00    +0.000 C 
BRANCH  11  13
ATOM     12  C   UNL     1       1.566   6.230  20.748  0.00  0.00    +0.000 C 
ATOM     13  C   UNL     1       2.208   4.901  21.104  0.00  0.00    +0.000 C 
ENDBRANCH  11  13
BRANCH  11  14
ATOM     14  C   UNL     1       0.705   3.391  19.618  0.00  0.00    +0.000 C 
ATOM     15  C   UNL     1       0.620   2.098  18.811  0.00  0.00    +0.000 C 
ENDBRANCH  11  14
ENDBRANCH   7  11
ENDBRANCH   1   9
BRANCH   3  16
ATOM     16  N   UNL     1       7.148   7.651  17.037  0.00  0.00    +0.000 N 
ATOM     17  C   UNL     1       8.019   8.037  18.044  0.00  0.00    +0.000 C 
ATOM     18  O   UNL     1       8.510   7.313  18.903  0.00  0.00    +0.000 OA
ATOM     19  H   UNL     1       6.957   8.307  16.293  0.00  0.00    +0.000 HD
BRANCH  17  20
ATOM     20  C   UNL     1       8.412   9.471  17.980  0.00  0.00    +0.000 C 
ATOM     21  C   UNL     1       9.251   9.935  18.924  0.00  0.00    +0.000 C 
BRANCH  21  22
ATOM     22  C   UNL     1       9.771  11.305  19.001  0.00  0.00    +0.000 A 
ATOM     23  C   UNL     1      10.175  11.950  17.818  0.00  0.00    +0.000 A 
ATOM     24  C   UNL     1      10.655  13.265  17.841  0.00  0.00    +0.000 A 
ATOM     25  C   UNL     1      10.719  13.937  19.055  0.00  0.00    +0.000 A 
ATOM     26  C   UNL     1      10.288  13.315  20.224  0.00  0.00    +0.000 A 
ATOM     27  C   UNL     1       9.809  12.013  20.206  0.00  0.00    +0.000 A 
BRANCH  25  28
ATOM     28  O   UNL     1      11.194  15.215  19.152  0.00  0.00    +0.000 OA
ATOM     29  H   UNL     1      11.896  15.224  19.825  0.00  0.00    +0.000 HD
ENDBRANCH  25  28
BRANCH  26  30
ATOM     30  O   UNL     1      10.331  13.987  21.412  0.00  0.00    +0.000 OA
ATOM     31  H   UNL     1      10.694  14.865  21.182  0.00  0.00    +0.000 HD
ENDBRANCH  26  30
ENDBRANCH  21  22
ENDBRANCH  17  20
ENDBRANCH   3  16
BRANCH   6  32
ATOM     32  O   UNL     1       4.941   2.528  16.575  0.00  0.00    +0.000 OA
ATOM     33  H   UNL     1       5.675   1.890  16.581  0.00  0.00    +0.000 HD
ENDBRANCH   6  32
TORSDOF 10
ENDMDL
MODEL 9
REMARK VINA RESULT:      -8.0      5.100      8.539
REMARK  Name = 
REMARK  12 active torsions:
REMARK  status: ('A' for Active; 'I' for Inactive)
REMARK    1  A    between atoms: C_1  and  C_2
REMARK    2  A    between atoms: C_2  and  C_3
REMARK    3  A    between atoms: C_3  and  C_4
REMARK    4  A    between atoms: C_3  and  C_6
REMARK    5  A    between atoms: C_4  and  C_5
REMARK    6  A    between atoms: N_8  and  C_9
REMARK    7  A    between atoms: C_11  and  N_12
REMARK    8  A    between atoms: C_13  and  C_15
REMARK    9  A    between atoms: C_16  and  C_17
REMARK   10  A    between atoms: C_20  and  O_21
REMARK   11  A    between atoms: C_22  and  O_23
REMARK   12  A    between atoms: C_27  and  O_28
REMARK                            x       y       z     vdW  Elec       q    Type
REMARK                         _______ _______ _______ _____ _____    ______ ____
ROOT
ATOM      1  C   UNL     1       4.128   4.257  19.261  0.00  0.00    +0.000 A 
ATOM      2  C   UNL     1       3.353   5.335  19.703  0.00  0.00    +0.000 A 
ATOM      3  C   UNL     1       2.342   5.188  20.657  0.00  0.00    +0.000 A 
ATOM      4  C   UNL     1       2.116   3.919  21.194  0.00  0.00    +0.000 A 
ATOM      5  C   UNL     1       2.850   2.813  20.735  0.00  0.00    +0.000 A 
ATOM      6  C   UNL     1       3.842   2.988  19.762  0.00  0.00    +0.000 A 
ENDROOT
BRANCH   1   9
ATOM      7  C   UNL     1       6.424   4.935  18.605  0.00  0.00    +0.000 C 
ATOM      8  O   UNL     1       6.855   5.124  19.743  0.00  0.00    +0.000 OA
ATOM      9  N   UNL     1       5.172   4.425  18.311  0.00  0.00    +0.000 N 
ATOM     10  H   UNL     1       4.992   4.017  17.399  0.00  0.00    +0.000 HD
BRANCH   7  11
ATOM     11  C   UNL     1       7.342   5.176  17.407  0.00  0.00    +0.000 C 
BRANCH  11  13
ATOM     12  C   UNL     1       6.434   4.923  14.982  0.00  0.00    +0.000 C 
ATOM     13  C   UNL     1       6.883   4.238  16.261  0.00  0.00    +0.000 C 
ENDBRANCH  11  13
BRANCH  11  14
ATOM     14  C   UNL     1       7.335   6.672  17.049  0.00  0.00    +0.000 C 
ATOM     15  C   UNL     1       7.968   7.575  18.104  0.00  0.00    +0.000 C 
ENDBRANCH  11  14
ENDBRANCH   7  11
ENDBRANCH   1   9
BRANCH   3  16
ATOM     16  N   UNL     1       1.563   6.286  21.100  0.00  0.00    +0.000 N 
ATOM     17  C   UNL     1       1.617   7.565  20.566  0.00  0.00    +0.000 C 
ATOM     18  O   UNL     1       2.243   7.916  19.573  0.00  0.00    +0.000 OA
ATOM     19  H   UNL     1       0.874   6.096  21.814  0.00  0.00    +0.000 HD
BRANCH  17  20
ATOM     20  C   UNL     1       0.753   8.548  21.275  0.00  0.00    +0.000 C 
ATOM     21  C   UNL     1       0.251   9.572  20.562  0.00  0.00    +0.000 C 
BRANCH  21  22
ATOM     22  C   UNL     1      -0.642  10.613  21.081  0.00  0.00    +0.000 A 
ATOM     23  C   UNL     1      -0.816  10.733  22.472  0.00  0.00    +0.000 A 
ATOM     24  C   UNL     1      -1.640  11.727  23.013  0.00  0.00    +0.000 A 
ATOM     25  C   UNL     1      -2.282  12.610  22.155  0.00  0.00    +0.000 A 
ATOM     26  C   UNL     1      -2.086  12.518  20.780  0.00  0.00    +0.000 A 
ATOM     27  C   UNL     1      -1.269  11.536  20.238  0.00  0.00    +0.000 A 
BRANCH  25  28
ATOM     28  O   UNL     1      -3.114  13.592  22.614  0.00  0.00    +0.000 OA
ATOM     29  H   UNL     1      -2.683  14.450  22.457  0.00  0.00    +0.000 HD
ENDBRANCH  25  28
BRANCH  26  30
ATOM     30  O   UNL     1      -2.702  13.402  19.940  0.00  0.00    +0.000 OA
ATOM     31  H   UNL     1      -3.578  13.004  19.769  0.00  0.00    +0.000 HD
ENDBRANCH  26  30
ENDBRANCH  21  22
ENDBRANCH  17  20
ENDBRANCH   3  16
BRANCH   6  32
ATOM     32  O   UNL     1       4.565   1.918  19.302  0.00  0.00    +0.000 OA
ATOM     33  H   UNL     1       4.435   1.851  18.340  0.00  0.00    +0.000 HD
ENDBRANCH   6  32
TORSDOF 10
ENDMDL
