MODEL 1
REMARK VINA RESULT:      -7.5      0.000      0.000
REMARK  Name = 
REMARK  5 active torsions:
REMARK  status: ('A' for Active; 'I' for Inactive)
REMARK    1  A    between atoms: C_1  and  C_2
REMARK    2  A    between atoms: C_4  and  C_5
REMARK    3  A    between atoms: C_17  and  C_18
REMARK    4  A    between atoms: C_19  and  N_20
REMARK    5  A    between atoms: C_21  and  C_23
REMARK                            x       y       z     vdW  Elec       q    Type
REMARK                         _______ _______ _______ _____ _____    ______ ____
ROOT
ATOM      1  C   UNL     1       0.814  13.784  20.666  0.00  0.00    +0.000 C 
ATOM      2  C   UNL     1       0.376  12.602  19.876  0.00  0.00    +0.000 A 
ATOM      3  N   UNL     1       1.311  11.687  19.457  0.00  0.00    +0.000 N 
ATOM      4  C   UNL     1       0.713  10.686  18.749  0.00  0.00    +0.000 A 
ATOM      5  C   UNL     1      -0.643  10.970  18.668  0.00  0.00    +0.000 A 
ATOM      6  C   UNL     1      -1.636  10.095  17.985  0.00  0.00    +0.000 C 
ATOM      7  C   UNL     1      -0.859  12.204  19.375  0.00  0.00    +0.000 A 
ATOM      8  H   UNL     1       2.303  11.753  19.635  0.00  0.00    +0.000 HD
ENDROOT
BRANCH   4   9
ATOM      9  C   UNL     1       1.524   9.622  18.291  0.00  0.00    +0.000 C 
ATOM     10  C   UNL     1       1.814   8.548  19.040  0.00  0.00    +0.000 C 
ATOM     11  C   UNL     1       1.337   8.250  20.443  0.00  0.00    +0.000 C 
ATOM     12  O   UNL     1       0.595   8.893  21.159  0.00  0.00    +0.000 OA
ATOM     13  N   UNL     1       1.905   7.024  20.757  0.00  0.00    +0.000 N 
ATOM     14  C   UNL     1       2.661   6.524  19.706  0.00  0.00    +0.000 A 
ATOM     15  C   UNL     1       3.333   5.317  19.680  0.00  0.00    +0.000 A 
ATOM     16  C   UNL     1       4.024   5.000  18.510  0.00  0.00    +0.000 A 
ATOM     17  C   UNL     1       4.029   5.891  17.427  0.00  0.00    +0.000 A 
ATOM     18  F   UNL     1       4.704   5.558  16.318  0.00  0.00    +0.000 F 
ATOM     19  C   UNL     1       3.348   7.108  17.468  0.00  0.00    +0.000 A 
ATOM     20  C   UNL     1       2.653   7.414  18.625  0.00  0.00    +0.000 A 
ATOM     21  H   UNL     1       1.748   6.576  21.645  0.00  0.00    +0.000 HD
ENDBRANCH   4   9
BRANCH   7  22
ATOM     22  N   UNL     1      -2.023  12.937  19.616  0.00  0.00    +0.000 N 
ATOM     23  C   UNL     1      -2.779  12.942  20.779  0.00  0.00    +0.000 C 
ATOM     24  O   UNL     1      -2.614  12.222  21.767  0.00  0.00    +0.000 OA
ATOM     25  H   UNL     1      -2.378  13.451  18.821  0.00  0.00    +0.000 HD
BRANCH  23  26
ATOM     26  C   UNL     1      -3.907  14.002  20.795  0.00  0.00    +0.000 C 
ATOM     27  C   UNL     1      -4.531  14.239  22.156  0.00  0.00    +0.000 C 
ATOM     28  C   UNL     1      -3.637  15.279  22.809  0.00  0.00    +0.000 C 
ATOM     29  C   UNL     1      -2.954  16.003  21.662  0.00  0.00    +0.000 C 
ATOM     30  N   UNL     1      -3.377  15.341  20.425  0.00  0.00    +0.000 NA
ATOM     31  H   UNL     1      -2.543  15.191  19.844  0.00  0.00    +0.000 HD
ENDBRANCH  23  26
ENDBRANCH   7  22
TORSDOF 3
ENDMDL
MODEL 2
REMARK VINA RESULT:      -7.4      1.003      1.443
REMARK  Name = 
REMARK  5 active torsions:
REMARK  status: ('A' for Active; 'I' for Inactive)
REMARK    1  A    between atoms: C_1  and  C_2
REMARK    2  A    between atoms: C_4  and  C_5
REMARK    3  A    between atoms: C_17  and  C_18
REMARK    4  A    between atoms: C_19  and  N_20
REMARK    5  A    between atoms: C_21  and  C_23
REMARK                            x       y       z     vdW  Elec       q    Type
REMARK                         _______ _______ _______ _____ _____    ______ ____
ROOT
ATOM      1  C   UNL     1       0.230  13.484  21.191  0.00  0.00    +0.000 C 
ATOM      2  C   UNL     1      -0.067  12.424  20.191  0.00  0.00    +0.000 A 
ATOM      3  N   UNL     1       0.943  11.594  19.769  0.00  0.00    +0.000 N 
ATOM      4  C   UNL     1       0.472  10.698  18.854  0.00  0.00    +0.000 A 
ATOM      5  C   UNL     1      -0.872  10.971  18.641  0.00  0.00    +0.000 A 
ATOM      6  C   UNL     1      -1.741  10.191  17.718  0.00  0.00    +0.000 C 
ATOM      7  C   UNL     1      -1.216  12.085  19.484  0.00  0.00    +0.000 A 
ATOM      8  H   UNL     1       1.903  11.648  20.081  0.00  0.00    +0.000 HD
ENDROOT
BRANCH   4   9
ATOM      9  C   UNL     1       1.369   9.724  18.358  0.00  0.00    +0.000 C 
ATOM     10  C   UNL     1       1.728   8.636  19.054  0.00  0.00    +0.000 C 
ATOM     11  C   UNL     1       1.252   8.228  20.430  0.00  0.00    +0.000 C 
ATOM     12  O   UNL     1       0.453   8.774  21.164  0.00  0.00    +0.000 OA
ATOM     13  N   UNL     1       1.906   7.033  20.690  0.00  0.00    +0.000 N 
ATOM     14  C   UNL     1       2.715   6.648  19.630  0.00  0.00    +0.000 A 
ATOM     15  C   UNL     1       3.477   5.498  19.554  0.00  0.00    +0.000 A 
ATOM     16  C   UNL     1       4.209   5.297  18.383  0.00  0.00    +0.000 A 
ATOM     17  C   UNL     1       4.163   6.244  17.348  0.00  0.00    +0.000 A 
ATOM     18  F   UNL     1       4.879   6.022  16.238  0.00  0.00    +0.000 F 
ATOM     19  C   UNL     1       3.391   7.402  17.440  0.00  0.00    +0.000 A 
ATOM     20  C   UNL     1       2.657   7.592  18.597  0.00  0.00    +0.000 A 
ATOM     21  H   UNL     1       1.770   6.527  21.550  0.00  0.00    +0.000 HD
ENDBRANCH   4   9
BRANCH   7  22
ATOM     22  N   UNL     1      -2.423  12.758  19.675  0.00  0.00    +0.000 N 
ATOM     23  C   UNL     1      -3.163  12.825  20.846  0.00  0.00    +0.000 C 
ATOM     24  O   UNL     1      -2.937  12.219  21.896  0.00  0.00    +0.000 OA
ATOM     25  H   UNL     1      -2.824  13.167  18.841  0.00  0.00    +0.000 HD
BRANCH  23  26
ATOM     26  C   UNL     1      -4.362  13.804  20.782  0.00  0.00    +0.000 C 
ATOM     27  C   UNL     1      -5.503  13.346  19.896  0.00  0.00    +0.000 C 
ATOM     28  C   UNL     1      -6.355  12.469  20.797  0.00  0.00    +0.000 C 
ATOM     29  C   UNL     1      -6.045  12.921  22.214  0.00  0.00    +0.000 C 
ATOM     30  N   UNL     1      -5.000  13.944  22.117  0.00  0.00    +0.000 NA
ATOM     31  H   UNL     1      -4.285  13.735  22.823  0.00  0.00    +0.000 HD
ENDBRANCH  23  26
ENDBRANCH   7  22
TORSDOF 3
ENDMDL
MODEL 3
REMARK VINA RESULT:      -7.3      2.015      2.768
REMARK  Name = 
REMARK  5 active torsions:
REMARK  status: ('A' for Active; 'I' for Inactive)
REMARK    1  A    between atoms: C_1  and  C_2
REMARK    2  A    between atoms: C_4  and  C_5
REMARK    3  A    between atoms: C_17  and  C_18
REMARK    4  A    between atoms: C_19  and  N_20
REMARK    5  A    between atoms: C_21  and  C_23
REMARK                            x       y       z     vdW  Elec       q    Type
REMARK                         _______ _______ _______ _____ _____    ______ ____
ROOT
ATOM      1  C   UNL     1      -2.875  11.565  18.349  0.00  0.00    +0.000 C 
ATOM      2  C   UNL     1      -1.387  11.551  18.356  0.00  0.00    +0.000 A 
ATOM      3  N   UNL     1      -0.723  10.371  18.125  0.00  0.00    +0.000 N 
ATOM      4  C   UNL     1       0.627  10.566  18.177  0.00  0.00    +0.000 A 
ATOM      5  C   UNL     1       0.855  11.899  18.487  0.00  0.00    +0.000 A 
ATOM      6  C   UNL     1       2.210  12.502  18.614  0.00  0.00    +0.000 C 
ATOM      7  C   UNL     1      -0.433  12.529  18.618  0.00  0.00    +0.000 A 
ATOM      8  H   UNL     1      -1.171   9.481  17.955  0.00  0.00    +0.000 HD
ENDROOT
BRANCH   4   9
ATOM      9  C   UNL     1       1.466   9.462  17.900  0.00  0.00    +0.000 C 
ATOM     10  C   UNL     1       1.755   8.517  18.806  0.00  0.00    +0.000 C 
ATOM     11  C   UNL     1       1.250   8.421  20.228  0.00  0.00    +0.000 C 
ATOM     12  O   UNL     1       0.481   9.148  20.824  0.00  0.00    +0.000 OA
ATOM     13  N   UNL     1       1.830   7.267  20.732  0.00  0.00    +0.000 N 
ATOM     14  C   UNL     1       2.619   6.631  19.784  0.00  0.00    +0.000 A 
ATOM     15  C   UNL     1       3.311   5.447  19.952  0.00  0.00    +0.000 A 
ATOM     16  C   UNL     1       4.035   4.974  18.857  0.00  0.00    +0.000 A 
ATOM     17  C   UNL     1       4.051   5.695  17.654  0.00  0.00    +0.000 A 
ATOM     18  F   UNL     1       4.758   5.214  16.621  0.00  0.00    +0.000 F 
ATOM     19  C   UNL     1       3.350   6.891  17.499  0.00  0.00    +0.000 A 
ATOM     20  C   UNL     1       2.622   7.351  18.582  0.00  0.00    +0.000 A 
ATOM     21  H   UNL     1       1.659   6.952  21.674  0.00  0.00    +0.000 HD
ENDBRANCH   4   9
BRANCH   7  22
ATOM     22  N   UNL     1      -0.789  13.847  18.907  0.00  0.00    +0.000 N 
ATOM     23  C   UNL     1      -0.453  14.572  20.041  0.00  0.00    +0.000 C 
ATOM     24  O   UNL     1       0.133  14.147  21.039  0.00  0.00    +0.000 OA
ATOM     25  H   UNL     1      -1.423  14.275  18.245  0.00  0.00    +0.000 HD
BRANCH  23  26
ATOM     26  C   UNL     1      -0.847  16.068  19.975  0.00  0.00    +0.000 C 
ATOM     27  C   UNL     1       0.121  17.006  20.667  0.00  0.00    +0.000 C 
ATOM     28  C   UNL     1       1.177  17.307  19.616  0.00  0.00    +0.000 C 
ATOM     29  C   UNL     1       0.500  17.056  18.279  0.00  0.00    +0.000 C 
ATOM     30  N   UNL     1      -0.845  16.551  18.569  0.00  0.00    +0.000 NA
ATOM     31  H   UNL     1      -1.016  15.739  17.964  0.00  0.00    +0.000 HD
ENDBRANCH  23  26
ENDBRANCH   7  22
TORSDOF 3
ENDMDL
MODEL 4
REMARK VINA RESULT:      -7.1      1.883      2.238
REMARK  Name = 
REMARK  5 active torsions:
REMARK  status: ('A' for Active; 'I' for Inactive)
REMARK    1  A    between atoms: C_1  and  C_2
REMARK    2  A    between atoms: C_4  and  C_5
REMARK    3  A    between atoms: C_17  and  C_18
REMARK    4  A    between atoms: C_19  and  N_20
REMARK    5  A    between atoms: C_21  and  C_23
REMARK                            x       y       z     vdW  Elec       q    Type
REMARK                         _______ _______ _______ _____ _____    ______ ____
ROOT
ATOM      1  C   UNL     1       2.736  13.760  18.354  0.00  0.00    +0.000 C 
ATOM      2  C   UNL     1       1.830  12.582  18.413  0.00  0.00    +0.000 A 
ATOM      3  N   UNL     1       2.326  11.335  18.117  0.00  0.00    +0.000 N 
ATOM      4  C   UNL     1       1.343  10.394  18.224  0.00  0.00    +0.000 A 
ATOM      5  C   UNL     1       0.164  11.043  18.563  0.00  0.00    +0.000 A 
ATOM      6  C   UNL     1      -1.132  10.347  18.788  0.00  0.00    +0.000 C 
ATOM      7  C   UNL     1       0.469  12.445  18.669  0.00  0.00    +0.000 A 
ATOM      8  H   UNL     1       3.280  11.144  17.843  0.00  0.00    +0.000 HD
ENDROOT
BRANCH   4   9
ATOM      9  C   UNL     1       1.696   9.042  18.012  0.00  0.00    +0.000 C 
ATOM     10  C   UNL     1       1.833   8.155  19.008  0.00  0.00    +0.000 C 
ATOM     11  C   UNL     1       1.623   8.394  20.486  0.00  0.00    +0.000 C 
ATOM     12  O   UNL     1       1.275   9.405  21.063  0.00  0.00    +0.000 OA
ATOM     13  N   UNL     1       1.877   7.168  21.082  0.00  0.00    +0.000 N 
ATOM     14  C   UNL     1       2.203   6.198  20.145  0.00  0.00    +0.000 A 
ATOM     15  C   UNL     1       2.482   4.869  20.401  0.00  0.00    +0.000 A 
ATOM     16  C   UNL     1       2.772   4.058  19.303  0.00  0.00    +0.000 A 
ATOM     17  C   UNL     1       2.782   4.596  18.008  0.00  0.00    +0.000 A 
ATOM     18  F   UNL     1       3.065   3.791  16.975  0.00  0.00    +0.000 F 
ATOM     19  C   UNL     1       2.500   5.941  17.763  0.00  0.00    +0.000 A 
ATOM     20  C   UNL     1       2.201   6.740  18.853  0.00  0.00    +0.000 A 
ATOM     21  H   UNL     1       1.806   7.034  22.078  0.00  0.00    +0.000 HD
ENDBRANCH   4   9
BRANCH   7  22
ATOM     22  N   UNL     1      -0.333  13.541  18.992  0.00  0.00    +0.000 N 
ATOM     23  C   UNL     1      -0.489  14.120  20.243  0.00  0.00    +0.000 C 
ATOM     24  O   UNL     1      -0.027  13.705  21.308  0.00  0.00    +0.000 OA
ATOM     25  H   UNL     1      -0.912  13.886  18.238  0.00  0.00    +0.000 HD
BRANCH  23  26
ATOM     26  C   UNL     1      -1.305  15.436  20.233  0.00  0.00    +0.000 C 
ATOM     27  C   UNL     1      -0.918  16.426  21.312  0.00  0.00    +0.000 C 
ATOM     28  C   UNL     1       0.233  17.215  20.710  0.00  0.00    +0.000 C 
ATOM     29  C   UNL     1       0.068  17.086  19.205  0.00  0.00    +0.000 C 
ATOM     30  N   UNL     1      -1.070  16.192  18.975  0.00  0.00    +0.000 NA
ATOM     31  H   UNL     1      -0.800  15.513  18.254  0.00  0.00    +0.000 HD
ENDBRANCH  23  26
ENDBRANCH   7  22
TORSDOF 3
ENDMDL
MODEL 5
REMARK VINA RESULT:      -7.0      1.486      2.209
REMARK  Name = 
REMARK  5 active torsions:
REMARK  status: ('A' for Active; 'I' for Inactive)
REMARK    1  A    between atoms: C_1  and  C_2
REMARK    2  A    between atoms: C_4  and  C_5
REMARK    3  A    between atoms: C_17  and  C_18
REMARK    4  A    between atoms: C_19  and  N_20
REMARK    5  A    between atoms: C_21  and  C_23
REMARK                            x       y       z     vdW  Elec       q    Type
REMARK                         _______ _______ _______ _____ _____    ______ ____
ROOT
ATOM      1  C   UNL     1      -2.934  10.379  17.614  0.00  0.00    +0.000 C 
ATOM      2  C   UNL     1      -1.538  10.455  18.124  0.00  0.00    +0.000 A 
ATOM      3  N   UNL     1      -0.596   9.579  17.642  0.00  0.00    +0.000 N 
ATOM      4  C   UNL     1       0.612   9.807  18.234  0.00  0.00    +0.000 A 
ATOM      5  C   UNL     1       0.451  10.832  19.155  0.00  0.00    +0.000 A 
ATOM      6  C   UNL     1       1.555  11.379  19.991  0.00  0.00    +0.000 C 
ATOM      7  C   UNL     1      -0.928  11.238  19.098  0.00  0.00    +0.000 A 
ATOM      8  H   UNL     1      -0.775   8.859  16.956  0.00  0.00    +0.000 HD
ENDROOT
BRANCH   4   9
ATOM      9  C   UNL     1       1.715   9.032  17.808  0.00  0.00    +0.000 C 
ATOM     10  C   UNL     1       2.246   8.046  18.547  0.00  0.00    +0.000 C 
ATOM     11  C   UNL     1       1.786   7.565  19.903  0.00  0.00    +0.000 C 
ATOM     12  O   UNL     1       0.852   7.944  20.581  0.00  0.00    +0.000 OA
ATOM     13  N   UNL     1       2.653   6.530  20.224  0.00  0.00    +0.000 N 
ATOM     14  C   UNL     1       3.582   6.307  19.218  0.00  0.00    +0.000 A 
ATOM     15  C   UNL     1       4.564   5.335  19.207  0.00  0.00    +0.000 A 
ATOM     16  C   UNL     1       5.387   5.276  18.082  0.00  0.00    +0.000 A 
ATOM     17  C   UNL     1       5.209   6.182  17.026  0.00  0.00    +0.000 A 
ATOM     18  F   UNL     1       6.017   6.100  15.960  0.00  0.00    +0.000 F 
ATOM     19  C   UNL     1       4.214   7.161  17.051  0.00  0.00    +0.000 A 
ATOM     20  C   UNL     1       3.392   7.209  18.162  0.00  0.00    +0.000 A 
ATOM     21  H   UNL     1       2.573   6.016  21.086  0.00  0.00    +0.000 HD
ENDBRANCH   4   9
BRANCH   7  22
ATOM     22  N   UNL     1      -1.628  12.225  19.795  0.00  0.00    +0.000 N 
ATOM     23  C   UNL     1      -1.792  12.318  21.169  0.00  0.00    +0.000 C 
ATOM     24  O   UNL     1      -1.433  11.491  22.010  0.00  0.00    +0.000 OA
ATOM     25  H   UNL     1      -2.127  12.887  19.216  0.00  0.00    +0.000 HD
BRANCH  23  26
ATOM     26  C   UNL     1      -2.465  13.632  21.638  0.00  0.00    +0.000 C 
ATOM     27  C   UNL     1      -3.703  14.020  20.856  0.00  0.00    +0.000 C 
ATOM     28  C   UNL     1      -4.836  13.274  21.541  0.00  0.00    +0.000 C 
ATOM     29  C   UNL     1      -4.347  13.005  22.954  0.00  0.00    +0.000 C 
ATOM     30  N   UNL     1      -2.968  13.497  23.030  0.00  0.00    +0.000 NA
ATOM     31  H   UNL     1      -2.400  12.779  23.495  0.00  0.00    +0.000 HD
ENDBRANCH  23  26
ENDBRANCH   7  22
TORSDOF 3
ENDMDL
MODEL 6
REMARK VINA RESULT:      -7.0      1.958      2.403
REMARK  Name = 
REMARK  5 active torsions:
REMARK  status: ('A' for Active; 'I' for Inactive)
REMARK    1  A    between atoms: C_1  and  C_2
REMARK    2  A    between atoms: C_4  and  C_5
REMARK    3  A    between atoms: C_17  and  C_18
REMARK    4  A    between atoms: C_19  and  N_20
REMARK    5  A    between atoms: C_21  and  C_23
REMARK                            x       y       z     vdW  Elec       q    Type
REMARK                         _______ _______ _______ _____ _____    ______ ____
ROOT
ATOM      1  C   UNL     1      -0.353  12.926  21.168  0.00  0.00    +0.000 C 
ATOM      2  C   UNL     1      -0.470  11.975  20.029  0.00  0.00    +0.000 A 
ATOM      3  N   UNL     1       0.612  11.204  19.682  0.00  0.00    +0.000 N 
ATOM      4  C   UNL     1       0.305  10.406  18.618  0.00  0.00    +0.000 A 
ATOM      5  C   UNL     1      -0.998  10.687  18.234  0.00  0.00    +0.000 A 
ATOM      6  C   UNL     1      -1.700  10.002  17.114  0.00  0.00    +0.000 C 
ATOM      7  C   UNL     1      -1.491  11.703  19.125  0.00  0.00    +0.000 A 
ATOM      8  H   UNL     1       1.512  11.232  20.140  0.00  0.00    +0.000 HD
ENDROOT
BRANCH   4   9
ATOM      9  C   UNL     1       1.290   9.498  18.166  0.00  0.00    +0.000 C 
ATOM     10  C   UNL     1       1.738   8.473  18.907  0.00  0.00    +0.000 C 
ATOM     11  C   UNL     1       1.288   8.078  20.294  0.00  0.00    +0.000 C 
ATOM     12  O   UNL     1       0.436   8.577  21.001  0.00  0.00    +0.000 OA
ATOM     13  N   UNL     1       2.044   6.956  20.604  0.00  0.00    +0.000 N 
ATOM     14  C   UNL     1       2.894   6.605  19.565  0.00  0.00    +0.000 A 
ATOM     15  C   UNL     1       3.756   5.526  19.538  0.00  0.00    +0.000 A 
ATOM     16  C   UNL     1       4.514   5.347  18.380  0.00  0.00    +0.000 A 
ATOM     17  C   UNL     1       4.394   6.246  17.309  0.00  0.00    +0.000 A 
ATOM     18  F   UNL     1       5.137   6.047  16.212  0.00  0.00    +0.000 F 
ATOM     19  C   UNL     1       3.520   7.333  17.351  0.00  0.00    +0.000 A 
ATOM     20  C   UNL     1       2.761   7.501  18.495  0.00  0.00    +0.000 A 
ATOM     21  H   UNL     1       1.945   6.473  21.483  0.00  0.00    +0.000 HD
ENDBRANCH   4   9
BRANCH   7  22
ATOM     22  N   UNL     1      -2.731  12.341  19.200  0.00  0.00    +0.000 N 
ATOM     23  C   UNL     1      -3.965  11.809  18.856  0.00  0.00    +0.000 C 
ATOM     24  O   UNL     1      -4.172  10.714  18.328  0.00  0.00    +0.000 OA
ATOM     25  H   UNL     1      -2.696  13.318  19.460  0.00  0.00    +0.000 HD
BRANCH  23  26
ATOM     26  C   UNL     1      -5.168  12.709  19.229  0.00  0.00    +0.000 C 
ATOM     27  C   UNL     1      -6.345  12.614  18.279  0.00  0.00    +0.000 C 
ATOM     28  C   UNL     1      -7.154  11.435  18.792  0.00  0.00    +0.000 C 
ATOM     29  C   UNL     1      -6.785  11.298  20.259  0.00  0.00    +0.000 C 
ATOM     30  N   UNL     1      -5.748  12.297  20.534  0.00  0.00    +0.000 NA
ATOM     31  H   UNL     1      -5.002  11.840  21.073  0.00  0.00    +0.000 HD
ENDBRANCH  23  26
ENDBRANCH   7  22
TORSDOF 3
ENDMDL
MODEL 7
REMARK VINA RESULT:      -6.9      3.916      7.092
REMARK  Name = 
REMARK  5 active torsions:
REMARK  status: ('A' for Active; 'I' for Inactive)
REMARK    1  A    between atoms: C_1  and  C_2
REMARK    2  A    between atoms: C_4  and  C_5
REMARK    3  A    between atoms: C_17  and  C_18
REMARK    4  A    between atoms: C_19  and  N_20
REMARK    5  A    between atoms: C_21  and  C_23
REMARK                            x       y       z     vdW  Elec       q    Type
REMARK                         _______ _______ _______ _____ _____    ______ ____
ROOT
ATOM      1  C   UNL     1       2.872   3.260  21.073  0.00  0.00    +0.000 C 
ATOM      2  C   UNL     1       2.961   4.144  19.879  0.00  0.00    +0.000 A 
ATOM      3  N   UNL     1       3.511   3.655  18.719  0.00  0.00    +0.000 N 
ATOM      4  C   UNL     1       3.504   4.615  17.748  0.00  0.00    +0.000 A 
ATOM      5  C   UNL     1       2.971   5.773  18.296  0.00  0.00    +0.000 A 
ATOM      6  C   UNL     1       2.782   7.040  17.537  0.00  0.00    +0.000 C 
ATOM      7  C   UNL     1       2.637   5.479  19.664  0.00  0.00    +0.000 A 
ATOM      8  H   UNL     1       3.882   2.722  18.604  0.00  0.00    +0.000 HD
ENDROOT
BRANCH   4   9
ATOM      9  C   UNL     1       3.981   4.262  16.465  0.00  0.00    +0.000 C 
ATOM     10  C   UNL     1       5.142   4.710  15.966  0.00  0.00    +0.000 C 
ATOM     11  C   UNL     1       6.145   5.614  16.645  0.00  0.00    +0.000 C 
ATOM     12  O   UNL     1       6.121   6.095  17.760  0.00  0.00    +0.000 OA
ATOM     13  N   UNL     1       7.167   5.767  15.719  0.00  0.00    +0.000 N 
ATOM     14  C   UNL     1       6.920   5.049  14.557  0.00  0.00    +0.000 A 
ATOM     15  C   UNL     1       7.747   4.961  13.454  0.00  0.00    +0.000 A 
ATOM     16  C   UNL     1       7.309   4.168  12.393  0.00  0.00    +0.000 A 
ATOM     17  C   UNL     1       6.073   3.507  12.466  0.00  0.00    +0.000 A 
ATOM     18  F   UNL     1       5.681   2.753  11.430  0.00  0.00    +0.000 F 
ATOM     19  C   UNL     1       5.247   3.606  13.586  0.00  0.00    +0.000 A 
ATOM     20  C   UNL     1       5.689   4.384  14.641  0.00  0.00    +0.000 A 
ATOM     21  H   UNL     1       7.982   6.326  15.912  0.00  0.00    +0.000 HD
ENDBRANCH   4   9
BRANCH   7  22
ATOM     22  N   UNL     1       2.066   6.269  20.664  0.00  0.00    +0.000 N 
ATOM     23  C   UNL     1       1.719   7.608  20.571  0.00  0.00    +0.000 C 
ATOM     24  O   UNL     1       1.947   8.364  19.623  0.00  0.00    +0.000 OA
ATOM     25  H   UNL     1       1.977   5.821  21.566  0.00  0.00    +0.000 HD
BRANCH  23  26
ATOM     26  C   UNL     1       0.937   8.145  21.795  0.00  0.00    +0.000 C 
ATOM     27  C   UNL     1       1.462   9.451  22.356  0.00  0.00    +0.000 C 
ATOM     28  C   UNL     1       0.773  10.524  21.530  0.00  0.00    +0.000 C 
ATOM     29  C   UNL     1      -0.490   9.873  20.993  0.00  0.00    +0.000 C 
ATOM     30  N   UNL     1      -0.465   8.472  21.422  0.00  0.00    +0.000 NA
ATOM     31  H   UNL     1      -0.713   7.888  20.615  0.00  0.00    +0.000 HD
ENDBRANCH  23  26
ENDBRANCH   7  22
TORSDOF 3
ENDMDL
MODEL 8
REMARK VINA RESULT:      -6.9      1.346      1.456
REMARK  Name = 
REMARK  5 active torsions:
REMARK  status: ('A' for Active; 'I' for Inactive)
REMARK    1  A    between atoms: C_1  and  C_2
REMARK    2  A    between atoms: C_4  and  C_5
REMARK    3  A    between atoms: C_17  and  C_18
REMARK    4  A    between atoms: C_19  and  N_20
REMARK    5  A    between atoms: C_21  and  C_23
REMARK                            x       y       z     vdW  Elec       q    Type
REMARK                         _______ _______ _______ _____ _____    ______ ____
ROOT
ATOM      1  C   UNL     1      -0.040  11.379  22.248  0.00  0.00    +0.000 C 
ATOM      2  C   UNL     1      -0.119  10.849  20.860  0.00  0.00    +0.000 A 
ATOM      3  N   UNL     1       0.963  10.191  20.327  0.00  0.00    +0.000 N 
ATOM      4  C   UNL     1       0.693   9.788  19.051  0.00  0.00    +0.000 A 
ATOM      5  C   UNL     1      -0.583  10.225  18.725  0.00  0.00    +0.000 A 
ATOM      6  C   UNL     1      -1.242   9.960  17.417  0.00  0.00    +0.000 C 
ATOM      7  C   UNL     1      -1.099  10.917  19.875  0.00  0.00    +0.000 A 
ATOM      8  H   UNL     1       1.840  10.040  20.806  0.00  0.00    +0.000 HD
ENDROOT
BRANCH   4   9
ATOM      9  C   UNL     1       1.681   9.039  18.371  0.00  0.00    +0.000 C 
ATOM     10  C   UNL     1       2.208   7.907  18.860  0.00  0.00    +0.000 C 
ATOM     11  C   UNL     1       1.856   7.216  20.157  0.00  0.00    +0.000 C 
ATOM     12  O   UNL     1       1.031   7.519  20.995  0.00  0.00    +0.000 OA
ATOM     13  N   UNL     1       2.669   6.092  20.190  0.00  0.00    +0.000 N 
ATOM     14  C   UNL     1       3.467   6.000  19.058  0.00  0.00    +0.000 A 
ATOM     15  C   UNL     1       4.363   4.991  18.765  0.00  0.00    +0.000 A 
ATOM     16  C   UNL     1       5.057   5.088  17.558  0.00  0.00    +0.000 A 
ATOM     17  C   UNL     1       4.841   6.180  16.703  0.00  0.00    +0.000 A 
ATOM     18  F   UNL     1       5.524   6.245  15.552  0.00  0.00    +0.000 F 
ATOM     19  C   UNL     1       3.934   7.194  17.013  0.00  0.00    +0.000 A 
ATOM     20  C   UNL     1       3.239   7.088  18.205  0.00  0.00    +0.000 A 
ATOM     21  H   UNL     1       2.639   5.435  20.953  0.00  0.00    +0.000 HD
ENDBRANCH   4   9
BRANCH   7  22
ATOM     22  N   UNL     1      -2.327  11.542  20.101  0.00  0.00    +0.000 N 
ATOM     23  C   UNL     1      -2.576  12.906  20.130  0.00  0.00    +0.000 C 
ATOM     24  O   UNL     1      -1.738  13.808  20.062  0.00  0.00    +0.000 OA
ATOM     25  H   UNL     1      -3.086  10.920  20.344  0.00  0.00    +0.000 HD
BRANCH  23  26
ATOM     26  C   UNL     1      -4.078  13.273  20.220  0.00  0.00    +0.000 C 
ATOM     27  C   UNL     1      -4.816  12.627  21.375  0.00  0.00    +0.000 C 
ATOM     28  C   UNL     1      -4.586  13.565  22.548  0.00  0.00    +0.000 C 
ATOM     29  C   UNL     1      -4.279  14.919  21.929  0.00  0.00    +0.000 C 
ATOM     30  N   UNL     1      -4.249  14.728  20.476  0.00  0.00    +0.000 NA
ATOM     31  H   UNL     1      -3.417  15.205  20.110  0.00  0.00    +0.000 HD
ENDBRANCH  23  26
ENDBRANCH   7  22
TORSDOF 3
ENDMDL
MODEL 9
REMARK VINA RESULT:      -6.9      1.322      1.930
REMARK  Name = 
REMARK  5 active torsions:
REMARK  status: ('A' for Active; 'I' for Inactive)
REMARK    1  A    between atoms: C_1  and  C_2
REMARK    2  A    between atoms: C_4  and  C_5
REMARK    3  A    between atoms: C_17  and  C_18
REMARK    4  A    between atoms: C_19  and  N_20
REMARK    5  A    between atoms: C_21  and  C_23
REMARK                            x       y       z     vdW  Elec       q    Type
REMARK                         _______ _______ _______ _____ _____    ______ ____
ROOT
ATOM      1  C   UNL     1      -3.368  11.563  18.504  0.00  0.00    +0.000 C 
ATOM      2  C   UNL     1      -1.928  11.517  18.875  0.00  0.00    +0.000 A 
ATOM      3  N   UNL     1      -1.130  10.527  18.355  0.00  0.00    +0.000 N 
ATOM      4  C   UNL     1       0.148  10.656  18.816  0.00  0.00    +0.000 A 
ATOM      5  C   UNL     1       0.182  11.733  19.690  0.00  0.00    +0.000 A 
ATOM      6  C   UNL     1       1.413  12.201  20.385  0.00  0.00    +0.000 C 
ATOM      7  C   UNL     1      -1.149  12.277  19.741  0.00  0.00    +0.000 A 
ATOM      8  H   UNL     1      -1.446   9.798  17.731  0.00  0.00    +0.000 HD
ENDROOT
BRANCH   4   9
ATOM      9  C   UNL     1       1.121   9.751  18.332  0.00  0.00    +0.000 C 
ATOM     10  C   UNL     1       1.546   8.688  19.032  0.00  0.00    +0.000 C 
ATOM     11  C   UNL     1       1.079   8.242  20.398  0.00  0.00    +0.000 C 
ATOM     12  O   UNL     1       0.231   8.726  21.120  0.00  0.00    +0.000 OA
ATOM     13  N   UNL     1       1.814   7.096  20.666  0.00  0.00    +0.000 N 
ATOM     14  C   UNL     1       2.664   6.774  19.618  0.00  0.00    +0.000 A 
ATOM     15  C   UNL     1       3.508   5.682  19.551  0.00  0.00    +0.000 A 
ATOM     16  C   UNL     1       4.271   5.539  18.391  0.00  0.00    +0.000 A 
ATOM     17  C   UNL     1       4.174   6.484  17.358  0.00  0.00    +0.000 A 
ATOM     18  F   UNL     1       4.921   6.318  16.258  0.00  0.00    +0.000 F 
ATOM     19  C   UNL     1       3.319   7.584  17.440  0.00  0.00    +0.000 A 
ATOM     20  C   UNL     1       2.555   7.716  18.586  0.00  0.00    +0.000 A 
ATOM     21  H   UNL     1       1.700   6.578  21.522  0.00  0.00    +0.000 HD
ENDBRANCH   4   9
BRANCH   7  22
ATOM     22  N   UNL     1      -1.675  13.362  20.444  0.00  0.00    +0.000 N 
ATOM     23  C   UNL     1      -2.432  13.315  21.605  0.00  0.00    +0.000 C 
ATOM     24  O   UNL     1      -2.859  12.302  22.164  0.00  0.00    +0.000 OA
ATOM     25  H   UNL     1      -1.547  14.263  20.002  0.00  0.00    +0.000 HD
BRANCH  23  26
ATOM     26  C   UNL     1      -2.707  14.702  22.238  0.00  0.00    +0.000 C 
ATOM     27  C   UNL     1      -2.814  14.695  23.750  0.00  0.00    +0.000 C 
ATOM     28  C   UNL     1      -1.380  14.832  24.234  0.00  0.00    +0.000 C 
ATOM     29  C   UNL     1      -0.628  15.489  23.089  0.00  0.00    +0.000 C 
ATOM     30  N   UNL     1      -1.575  15.631  21.980  0.00  0.00    +0.000 NA
ATOM     31  H   UNL     1      -1.109  15.316  21.121  0.00  0.00    +0.000 HD
ENDBRANCH  23  26
ENDBRANCH   7  22
TORSDOF 3
ENDMDL
