MODEL 1
REMARK VINA RESULT:      -8.2      0.000      0.000
REMARK  Name = 
REMARK  7 active torsions:
REMARK  status: ('A' for Active; 'I' for Inactive)
REMARK    1  A    between atoms: C_1  and  C_2
REMARK    2  A    between atoms: C_2  and  C_3
REMARK    3  A    between atoms: C_2  and  C_4
REMARK    4  A    between atoms: C_4  and  C_5
REMARK    5  A    between atoms: C_13  and  C_14
REMARK    6  A    between atoms: C_14  and  N_15
REMARK    7  A    between atoms: C_16  and  C_18
REMARK                            x       y       z     vdW  Elec       q    Type
REMARK                         _______ _______ _______ _____ _____    ______ ____
ROOT
ATOM      1  C   UNL     1       5.598   5.580  16.231  0.00  0.00    +0.000 C 
ATOM      2  O   UNL     1       5.921   6.769  16.225  0.00  0.00    +0.000 OA
ATOM      3  N   UNL     1       4.543   5.055  16.995  0.00  0.00    +0.000 N 
ATOM      4  C   UNL     1       4.319   3.616  17.190  0.00  0.00    +0.000 C 
ATOM      5  C   UNL     1       4.437   3.262  18.660  0.00  0.00    +0.000 C 
ATOM      6  C   UNL     1       3.351   3.984  19.445  0.00  0.00    +0.000 C 
ATOM      7  C   UNL     1       3.157   5.414  19.004  0.00  0.00    +0.000 A 
ATOM      8  C   UNL     1       2.404   6.272  19.830  0.00  0.00    +0.000 A 
ATOM      9  C   UNL     1       2.213   7.619  19.498  0.00  0.00    +0.000 A 
ATOM     10  C   UNL     1       2.725   8.087  18.287  0.00  0.00    +0.000 A 
ATOM     11  C   UNL     1       3.468   7.244  17.457  0.00  0.00    +0.000 A 
ATOM     12  C   UNL     1       3.722   5.911  17.811  0.00  0.00    +0.000 A 
ENDROOT
BRANCH   1  13
ATOM     13  C   UNL     1       6.421   4.577  15.426  0.00  0.00    +0.000 C 
BRANCH  13  15
ATOM     14  C   UNL     1       7.737   5.118  13.359  0.00  0.00    +0.000 C 
ATOM     15  C   UNL     1       6.345   4.783  13.901  0.00  0.00    +0.000 C 
ATOM     16  C   UNL     1       5.800   3.549  13.176  0.00  0.00    +0.000 C 
ENDBRANCH  13  15
ENDBRANCH   1  13
BRANCH   9  17
ATOM     17  C   UNL     1       1.463   8.550  20.411  0.00  0.00    +0.000 C 
BRANCH  17  18
ATOM     18  N   UNL     1       0.238   9.009  19.806  0.00  0.00    +0.000 N 
ATOM     19  C   UNL     1       0.117  10.321  19.398  0.00  0.00    +0.000 C 
ATOM     20  O   UNL     1       1.003  11.156  19.535  0.00  0.00    +0.000 OA
ATOM     21  H   UNL     1      -0.399   8.313  19.443  0.00  0.00    +0.000 HD
BRANCH  19  22
ATOM     22  C   UNL     1      -1.162  10.689  18.738  0.00  0.00    +0.000 A 
ATOM     23  C   UNL     1      -1.579  10.073  17.552  0.00  0.00    +0.000 A 
ATOM     24  C   UNL     1      -2.803  10.419  16.977  0.00  0.00    +0.000 A 
ATOM     25  C   UNL     1      -3.614  11.378  17.589  0.00  0.00    +0.000 A 
ATOM     26 CL   UNL     1      -5.126  11.790  16.881  0.00  0.00    +0.000 Cl
ATOM     27  C   UNL     1      -3.211  11.990  18.774  0.00  0.00    +0.000 A 
ATOM     28  C   UNL     1      -1.988  11.642  19.355  0.00  0.00    +0.000 A 
ENDBRANCH  19  22
ENDBRANCH  17  18
ENDBRANCH   9  17
TORSDOF 5
ENDMDL
MODEL 2
REMARK VINA RESULT:      -8.1      2.533      3.850
REMARK  Name = 
REMARK  7 active torsions:
REMARK  status: ('A' for Active; 'I' for Inactive)
REMARK    1  A    between atoms: C_1  and  C_2
REMARK    2  A    between atoms: C_2  and  C_3
REMARK    3  A    between atoms: C_2  and  C_4
REMARK    4  A    between atoms: C_4  and  C_5
REMARK    5  A    between atoms: C_13  and  C_14
REMARK    6  A    between atoms: C_14  and  N_15
REMARK    7  A    between atoms: C_16  and  C_18
REMARK                            x       y       z     vdW  Elec       q    Type
REMARK                         _______ _______ _______ _____ _____    ______ ____
ROOT
ATOM      1  C   UNL     1       2.189   4.404  20.293  0.00  0.00    +0.000 C 
ATOM      2  O   UNL     1       1.066   4.712  20.696  0.00  0.00    +0.000 OA
ATOM      3  N   UNL     1       3.036   5.271  19.582  0.00  0.00    +0.000 N 
ATOM      4  C   UNL     1       4.258   4.831  18.896  0.00  0.00    +0.000 C 
ATOM      5  C   UNL     1       4.144   5.086  17.405  0.00  0.00    +0.000 C 
ATOM      6  C   UNL     1       4.016   6.583  17.156  0.00  0.00    +0.000 C 
ATOM      7  C   UNL     1       3.093   7.267  18.135  0.00  0.00    +0.000 A 
ATOM      8  C   UNL     1       2.660   8.576  17.841  0.00  0.00    +0.000 A 
ATOM      9  C   UNL     1       1.778   9.256  18.690  0.00  0.00    +0.000 A 
ATOM     10  C   UNL     1       1.385   8.640  19.879  0.00  0.00    +0.000 A 
ATOM     11  C   UNL     1       1.814   7.346  20.182  0.00  0.00    +0.000 A 
ATOM     12  C   UNL     1       2.645   6.629  19.310  0.00  0.00    +0.000 A 
ENDROOT
BRANCH   1  13
ATOM     13  C   UNL     1       2.693   2.978  20.500  0.00  0.00    +0.000 C 
BRANCH  13  15
ATOM     14  C   UNL     1       1.003   2.580  18.687  0.00  0.00    +0.000 C 
ATOM     15  C   UNL     1       2.183   1.972  19.451  0.00  0.00    +0.000 C 
ATOM     16  C   UNL     1       3.276   1.564  18.458  0.00  0.00    +0.000 C 
ENDBRANCH  13  15
ENDBRANCH   1  13
BRANCH   9  17
ATOM     17  C   UNL     1       1.265  10.628  18.344  0.00  0.00    +0.000 C 
BRANCH  17  18
ATOM     18  N   UNL     1      -0.171  10.635  18.211  0.00  0.00    +0.000 N 
ATOM     19  C   UNL     1      -0.920  11.599  18.854  0.00  0.00    +0.000 C 
ATOM     20  O   UNL     1      -0.434  12.467  19.570  0.00  0.00    +0.000 OA
ATOM     21  H   UNL     1      -0.577  10.119  17.443  0.00  0.00    +0.000 HD
BRANCH  19  22
ATOM     22  C   UNL     1      -2.385  11.559  18.617  0.00  0.00    +0.000 A 
ATOM     23  C   UNL     1      -2.938  10.819  17.565  0.00  0.00    +0.000 A 
ATOM     24  C   UNL     1      -4.323  10.776  17.391  0.00  0.00    +0.000 A 
ATOM     25  C   UNL     1      -5.157  11.469  18.272  0.00  0.00    +0.000 A 
ATOM     26 CL   UNL     1      -6.862  11.402  18.059  0.00  0.00    +0.000 Cl
ATOM     27  C   UNL     1      -4.617  12.201  19.327  0.00  0.00    +0.000 A 
ATOM     28  C   UNL     1      -3.230  12.242  19.507  0.00  0.00    +0.000 A 
ENDBRANCH  19  22
ENDBRANCH  17  18
ENDBRANCH   9  17
TORSDOF 5
ENDMDL
MODEL 3
REMARK VINA RESULT:      -8.1      1.394      2.279
REMARK  Name = 
REMARK  7 active torsions:
REMARK  status: ('A' for Active; 'I' for Inactive)
REMARK    1  A    between atoms: C_1  and  C_2
REMARK    2  A    between atoms: C_2  and  C_3
REMARK    3  A    between atoms: C_2  and  C_4
REMARK    4  A    between atoms: C_4  and  C_5
REMARK    5  A    between atoms: C_13  and  C_14
REMARK    6  A    between atoms: C_14  and  N_15
REMARK    7  A    between atoms: C_16  and  C_18
REMARK                            x       y       z     vdW  Elec       q    Type
REMARK                         _______ _______ _______ _____ _____    ______ ____
ROOT
ATOM      1  C   UNL     1       4.160   6.000  17.188  0.00  0.00    +0.000 C 
ATOM      2  O   UNL     1       4.640   7.066  16.803  0.00  0.00    +0.000 OA
ATOM      3  N   UNL     1       3.092   5.899  18.096  0.00  0.00    +0.000 N 
ATOM      4  C   UNL     1       2.687   4.641  18.737  0.00  0.00    +0.000 C 
ATOM      5  C   UNL     1       2.848   4.743  20.242  0.00  0.00    +0.000 C 
ATOM      6  C   UNL     1       1.922   5.826  20.779  0.00  0.00    +0.000 C 
ATOM      7  C   UNL     1       1.898   7.063  19.914  0.00  0.00    +0.000 A 
ATOM      8  C   UNL     1       1.322   8.236  20.442  0.00  0.00    +0.000 A 
ATOM      9  C   UNL     1       1.296   9.427  19.705  0.00  0.00    +0.000 A 
ATOM     10  C   UNL     1       1.790   9.417  18.400  0.00  0.00    +0.000 A 
ATOM     11  C   UNL     1       2.357   8.258  17.865  0.00  0.00    +0.000 A 
ATOM     12  C   UNL     1       2.448   7.077  18.615  0.00  0.00    +0.000 A 
ENDROOT
BRANCH   1  13
ATOM     13  C   UNL     1       4.785   4.686  16.725  0.00  0.00    +0.000 C 
BRANCH  13  15
ATOM     14  C   UNL     1       7.285   4.542  16.886  0.00  0.00    +0.000 C 
ATOM     15  C   UNL     1       6.109   4.857  15.957  0.00  0.00    +0.000 C 
ATOM     16  C   UNL     1       6.183   3.956  14.721  0.00  0.00    +0.000 C 
ENDBRANCH  13  15
ENDBRANCH   1  13
BRANCH   9  17
ATOM     17  C   UNL     1       0.739  10.695  20.293  0.00  0.00    +0.000 C 
BRANCH  17  18
ATOM     18  N   UNL     1      -0.661  10.848  19.986  0.00  0.00    +0.000 N 
ATOM     19  C   UNL     1      -1.063  11.741  19.014  0.00  0.00    +0.000 C 
ATOM     20  O   UNL     1      -0.286  12.450  18.385  0.00  0.00    +0.000 OA
ATOM     21  H   UNL     1      -1.292  10.116  20.282  0.00  0.00    +0.000 HD
BRANCH  19  22
ATOM     22  C   UNL     1      -2.519  11.792  18.730  0.00  0.00    +0.000 A 
ATOM     23  C   UNL     1      -3.435  12.272  19.674  0.00  0.00    +0.000 A 
ATOM     24  C   UNL     1      -4.794  12.339  19.361  0.00  0.00    +0.000 A 
ATOM     25  C   UNL     1      -5.239  11.929  18.102  0.00  0.00    +0.000 A 
ATOM     26 CL   UNL     1      -6.913  12.025  17.720  0.00  0.00    +0.000 Cl
ATOM     27  C   UNL     1      -4.335  11.459  17.153  0.00  0.00    +0.000 A 
ATOM     28  C   UNL     1      -2.972  11.395  17.461  0.00  0.00    +0.000 A 
ENDBRANCH  19  22
ENDBRANCH  17  18
ENDBRANCH   9  17
TORSDOF 5
ENDMDL
MODEL 4
REMARK VINA RESULT:      -8.1      0.766      1.206
REMARK  Name = 
REMARK  7 active torsions:
REMARK  status: ('A' for Active; 'I' for Inactive)
REMARK    1  A    between atoms: C_1  and  C_2
REMARK    2  A    between atoms: C_2  and  C_3
REMARK    3  A    between atoms: C_2  and  C_4
REMARK    4  A    between atoms: C_4  and  C_5
REMARK    5  A    between atoms: C_13  and  C_14
REMARK    6  A    between atoms: C_14  and  N_15
REMARK    7  A    between atoms: C_16  and  C_18
REMARK                            x       y       z     vdW  Elec       q    Type
REMARK                         _______ _______ _______ _____ _____    ______ ____
ROOT
ATOM      1  C   UNL     1       4.784   5.344  16.635  0.00  0.00    +0.000 C 
ATOM      2  O   UNL     1       5.151   6.514  16.513  0.00  0.00    +0.000 OA
ATOM      3  N   UNL     1       3.789   4.920  17.531  0.00  0.00    +0.000 N 
ATOM      4  C   UNL     1       3.528   3.509  17.847  0.00  0.00    +0.000 C 
ATOM      5  C   UNL     1       3.776   3.248  19.320  0.00  0.00    +0.000 C 
ATOM      6  C   UNL     1       2.803   4.070  20.153  0.00  0.00    +0.000 C 
ATOM      7  C   UNL     1       2.624   5.476  19.633  0.00  0.00    +0.000 A 
ATOM      8  C   UNL     1       1.990   6.420  20.465  0.00  0.00    +0.000 A 
ATOM      9  C   UNL     1       1.821   7.750  20.058  0.00  0.00    +0.000 A 
ATOM     10  C   UNL     1       2.230   8.112  18.774  0.00  0.00    +0.000 A 
ATOM     11  C   UNL     1       2.853   7.182  17.939  0.00  0.00    +0.000 A 
ATOM     12  C   UNL     1       3.087   5.865  18.359  0.00  0.00    +0.000 A 
ENDROOT
BRANCH   1  13
ATOM     13  C   UNL     1       5.482   4.253  15.827  0.00  0.00    +0.000 C 
BRANCH  13  15
ATOM     14  C   UNL     1       7.416   4.978  14.401  0.00  0.00    +0.000 C 
ATOM     15  C   UNL     1       5.911   4.693  14.415  0.00  0.00    +0.000 C 
ATOM     16  C   UNL     1       5.584   3.638  13.354  0.00  0.00    +0.000 C 
ENDBRANCH  13  15
ENDBRANCH   1  13
BRANCH   9  17
ATOM     17  C   UNL     1       1.203   8.772  20.972  0.00  0.00    +0.000 C 
BRANCH  17  18
ATOM     18  N   UNL     1      -0.054   9.252  20.452  0.00  0.00    +0.000 N 
ATOM     19  C   UNL     1      -0.118  10.473  19.814  0.00  0.00    +0.000 C 
ATOM     20  O   UNL     1       0.849  11.213  19.670  0.00  0.00    +0.000 OA
ATOM     21  H   UNL     1      -0.797   8.580  20.317  0.00  0.00    +0.000 HD
BRANCH  19  22
ATOM     22  C   UNL     1      -1.443  10.860  19.266  0.00  0.00    +0.000 A 
ATOM     23  C   UNL     1      -2.179  11.921  19.808  0.00  0.00    +0.000 A 
ATOM     24  C   UNL     1      -3.406  12.280  19.247  0.00  0.00    +0.000 A 
ATOM     25  C   UNL     1      -3.896  11.582  18.140  0.00  0.00    +0.000 A 
ATOM     26 CL   UNL     1      -5.403  12.038  17.447  0.00  0.00    +0.000 Cl
ATOM     27  C   UNL     1      -3.167  10.532  17.589  0.00  0.00    +0.000 A 
ATOM     28  C   UNL     1      -1.935  10.173  18.146  0.00  0.00    +0.000 A 
ENDBRANCH  19  22
ENDBRANCH  17  18
ENDBRANCH   9  17
TORSDOF 5
ENDMDL
MODEL 5
REMARK VINA RESULT:      -8.0      3.132      4.530
REMARK  Name = 
REMARK  7 active torsions:
REMARK  status: ('A' for Active; 'I' for Inactive)
REMARK    1  A    between atoms: C_1  and  C_2
REMARK    2  A    between atoms: C_2  and  C_3
REMARK    3  A    between atoms: C_2  and  C_4
REMARK    4  A    between atoms: C_4  and  C_5
REMARK    5  A    between atoms: C_13  and  C_14
REMARK    6  A    between atoms: C_14  and  N_15
REMARK    7  A    between atoms: C_16  and  C_18
REMARK                            x       y       z     vdW  Elec       q    Type
REMARK                         _______ _______ _______ _____ _____    ______ ____
ROOT
ATOM      1  C   UNL     1       2.295   4.431  20.290  0.00  0.00    +0.000 C 
ATOM      2  O   UNL     1       1.183   4.627  20.783  0.00  0.00    +0.000 OA
ATOM      3  N   UNL     1       3.027   5.404  19.589  0.00  0.00    +0.000 N 
ATOM      4  C   UNL     1       4.229   5.103  18.799  0.00  0.00    +0.000 C 
ATOM      5  C   UNL     1       3.996   5.445  17.340  0.00  0.00    +0.000 C 
ATOM      6  C   UNL     1       3.744   6.940  17.202  0.00  0.00    +0.000 C 
ATOM      7  C   UNL     1       2.843   7.488  18.282  0.00  0.00    +0.000 A 
ATOM      8  C   UNL     1       2.298   8.776  18.107  0.00  0.00    +0.000 A 
ATOM      9  C   UNL     1       1.428   9.331  19.054  0.00  0.00    +0.000 A 
ATOM     10  C   UNL     1       1.162   8.612  20.220  0.00  0.00    +0.000 A 
ATOM     11  C   UNL     1       1.702   7.338  20.406  0.00  0.00    +0.000 A 
ATOM     12  C   UNL     1       2.522   6.743  19.436  0.00  0.00    +0.000 A 
ENDROOT
BRANCH   1  13
ATOM     13  C   UNL     1       2.913   3.038  20.366  0.00  0.00    +0.000 C 
BRANCH  13  15
ATOM     14  C   UNL     1       1.123   2.650  18.651  0.00  0.00    +0.000 C 
ATOM     15  C   UNL     1       2.353   2.044  19.332  0.00  0.00    +0.000 C 
ATOM     16  C   UNL     1       3.389   1.668  18.268  0.00  0.00    +0.000 C 
ENDBRANCH  13  15
ENDBRANCH   1  13
BRANCH   9  17
ATOM     17  C   UNL     1       0.796  10.679  18.836  0.00  0.00    +0.000 C 
BRANCH  17  18
ATOM     18  N   UNL     1      -0.127  11.005  19.895  0.00  0.00    +0.000 N 
ATOM     19  C   UNL     1      -1.041  12.024  19.726  0.00  0.00    +0.000 C 
ATOM     20  O   UNL     1      -1.113  12.707  18.711  0.00  0.00    +0.000 OA
ATOM     21  H   UNL     1      -0.276  10.317  20.620  0.00  0.00    +0.000 HD
BRANCH  19  22
ATOM     22  C   UNL     1      -1.985  12.254  20.849  0.00  0.00    +0.000 A 
ATOM     23  C   UNL     1      -3.271  12.764  20.634  0.00  0.00    +0.000 A 
ATOM     24  C   UNL     1      -4.145  12.935  21.709  0.00  0.00    +0.000 A 
ATOM     25  C   UNL     1      -3.737  12.592  23.000  0.00  0.00    +0.000 A 
ATOM     26 CL   UNL     1      -4.823  12.794  24.318  0.00  0.00    +0.000 Cl
ATOM     27  C   UNL     1      -2.463  12.074  23.223  0.00  0.00    +0.000 A 
ATOM     28  C   UNL     1      -1.587  11.898  22.148  0.00  0.00    +0.000 A 
ENDBRANCH  19  22
ENDBRANCH  17  18
ENDBRANCH   9  17
TORSDOF 5
ENDMDL
MODEL 6
REMARK VINA RESULT:      -7.9      2.664      4.094
REMARK  Name = 
REMARK  7 active torsions:
REMARK  status: ('A' for Active; 'I' for Inactive)
REMARK    1  A    between atoms: C_1  and  C_2
REMARK    2  A    between atoms: C_2  and  C_3
REMARK    3  A    between atoms: C_2  and  C_4
REMARK    4  A    between atoms: C_4  and  C_5
REMARK    5  A    between atoms: C_13  and  C_14
REMARK    6  A    between atoms: C_14  and  N_15
REMARK    7  A    between atoms: C_16  and  C_18
REMARK                            x       y       z     vdW  Elec       q    Type
REMARK                         _______ _______ _______ _____ _____    ______ ____
ROOT
ATOM      1  C   UNL     1       2.242   4.651  20.346  0.00  0.00    +0.000 C 
ATOM      2  O   UNL     1       1.127   4.879  20.816  0.00  0.00    +0.000 OA
ATOM      3  N   UNL     1       2.995   5.585  19.616  0.00  0.00    +0.000 N 
ATOM      4  C   UNL     1       4.203   5.238  18.855  0.00  0.00    +0.000 C 
ATOM      5  C   UNL     1       3.993   5.522  17.380  0.00  0.00    +0.000 C 
ATOM      6  C   UNL     1       3.762   7.013  17.178  0.00  0.00    +0.000 C 
ATOM      7  C   UNL     1       2.854   7.615  18.222  0.00  0.00    +0.000 A 
ATOM      8  C   UNL     1       2.328   8.901  17.988  0.00  0.00    +0.000 A 
ATOM      9  C   UNL     1       1.453   9.506  18.900  0.00  0.00    +0.000 A 
ATOM     10  C   UNL     1       1.163   8.838  20.091  0.00  0.00    +0.000 A 
ATOM     11  C   UNL     1       1.685   7.566  20.336  0.00  0.00    +0.000 A 
ATOM     12  C   UNL     1       2.509   6.923  19.402  0.00  0.00    +0.000 A 
ENDROOT
BRANCH   1  13
ATOM     13  C   UNL     1       2.842   3.254  20.488  0.00  0.00    +0.000 C 
BRANCH  13  15
ATOM     14  C   UNL     1       1.214   2.887  18.614  0.00  0.00    +0.000 C 
ATOM     15  C   UNL     1       2.290   2.228  19.481  0.00  0.00    +0.000 C 
ATOM     16  C   UNL     1       3.386   1.651  18.581  0.00  0.00    +0.000 C 
ENDBRANCH  13  15
ENDBRANCH   1  13
BRANCH   9  17
ATOM     17  C   UNL     1       0.840  10.850  18.619  0.00  0.00    +0.000 C 
BRANCH  17  18
ATOM     18  N   UNL     1      -0.592  10.822  18.782  0.00  0.00    +0.000 N 
ATOM     19  C   UNL     1      -1.310  11.999  18.799  0.00  0.00    +0.000 C 
ATOM     20  O   UNL     1      -0.796  13.107  18.701  0.00  0.00    +0.000 OA
ATOM     21  H   UNL     1      -1.070   9.949  18.605  0.00  0.00    +0.000 HD
BRANCH  19  22
ATOM     22  C   UNL     1      -2.785  11.869  18.919  0.00  0.00    +0.000 A 
ATOM     23  C   UNL     1      -3.501  12.531  19.924  0.00  0.00    +0.000 A 
ATOM     24  C   UNL     1      -4.890  12.413  19.987  0.00  0.00    +0.000 A 
ATOM     25  C   UNL     1      -5.567  11.638  19.043  0.00  0.00    +0.000 A 
ATOM     26 CL   UNL     1      -7.280  11.507  19.120  0.00  0.00    +0.000 Cl
ATOM     27  C   UNL     1      -4.865  10.982  18.034  0.00  0.00    +0.000 A 
ATOM     28  C   UNL     1      -3.473  11.102  17.966  0.00  0.00    +0.000 A 
ENDBRANCH  19  22
ENDBRANCH  17  18
ENDBRANCH   9  17
TORSDOF 5
ENDMDL
MODEL 7
REMARK VINA RESULT:      -7.9      3.254      9.173
REMARK  Name = 
REMARK  7 active torsions:
REMARK  status: ('A' for Active; 'I' for Inactive)
REMARK    1  A    between atoms: C_1  and  C_2
REMARK    2  A    between atoms: C_2  and  C_3
REMARK    3  A    between atoms: C_2  and  C_4
REMARK    4  A    between atoms: C_4  and  C_5
REMARK    5  A    between atoms: C_13  and  C_14
REMARK    6  A    between atoms: C_14  and  N_15
REMARK    7  A    between atoms: C_16  and  C_18
REMARK                            x       y       z     vdW  Elec       q    Type
REMARK                         _______ _______ _______ _____ _____    ______ ____
ROOT
ATOM      1  C   UNL     1      -0.935  10.646  18.235  0.00  0.00    +0.000 C 
ATOM      2  O   UNL     1      -0.986   9.902  17.254  0.00  0.00    +0.000 OA
ATOM      3  N   UNL     1      -0.094  10.436  19.340  0.00  0.00    +0.000 N 
ATOM      4  C   UNL     1      -0.210  11.178  20.603  0.00  0.00    +0.000 C 
ATOM      5  C   UNL     1      -0.536  10.230  21.741  0.00  0.00    +0.000 C 
ATOM      6  C   UNL     1       0.607   9.240  21.919  0.00  0.00    +0.000 C 
ATOM      7  C   UNL     1       1.149   8.724  20.608  0.00  0.00    +0.000 A 
ATOM      8  C   UNL     1       1.995   7.596  20.633  0.00  0.00    +0.000 A 
ATOM      9  C   UNL     1       2.506   7.046  19.451  0.00  0.00    +0.000 A 
ATOM     10  C   UNL     1       2.221   7.679  18.241  0.00  0.00    +0.000 A 
ATOM     11  C   UNL     1       1.389   8.801  18.206  0.00  0.00    +0.000 A 
ATOM     12  C   UNL     1       0.818   9.323  19.375  0.00  0.00    +0.000 A 
ENDROOT
BRANCH   1  13
ATOM     13  C   UNL     1      -1.881  11.842  18.317  0.00  0.00    +0.000 C 
BRANCH  13  15
ATOM     14  C   UNL     1      -4.018  12.375  19.521  0.00  0.00    +0.000 C 
ATOM     15  C   UNL     1      -3.364  11.460  18.481  0.00  0.00    +0.000 C 
ATOM     16  C   UNL     1      -4.137  11.555  17.162  0.00  0.00    +0.000 C 
ENDBRANCH  13  15
ENDBRANCH   1  13
BRANCH   9  17
ATOM     17  C   UNL     1       3.356   5.805  19.473  0.00  0.00    +0.000 C 
BRANCH  17  18
ATOM     18  N   UNL     1       3.874   5.498  18.163  0.00  0.00    +0.000 N 
ATOM     19  C   UNL     1       5.232   5.347  17.974  0.00  0.00    +0.000 C 
ATOM     20  O   UNL     1       6.059   5.478  18.870  0.00  0.00    +0.000 OA
ATOM     21  H   UNL     1       3.232   5.131  17.474  0.00  0.00    +0.000 HD
BRANCH  19  22
ATOM     22  C   UNL     1       5.669   4.981  16.603  0.00  0.00    +0.000 A 
ATOM     23  C   UNL     1       4.803   4.351  15.701  0.00  0.00    +0.000 A 
ATOM     24  C   UNL     1       5.236   4.052  14.407  0.00  0.00    +0.000 A 
ATOM     25  C   UNL     1       6.533   4.385  14.013  0.00  0.00    +0.000 A 
ATOM     26 CL   UNL     1       7.056   4.024  12.415  0.00  0.00    +0.000 Cl
ATOM     27  C   UNL     1       7.400   5.020  14.900  0.00  0.00    +0.000 A 
ATOM     28  C   UNL     1       6.968   5.325  16.195  0.00  0.00    +0.000 A 
ENDBRANCH  19  22
ENDBRANCH  17  18
ENDBRANCH   9  17
TORSDOF 5
ENDMDL
MODEL 8
REMARK VINA RESULT:      -7.8      3.457      9.276
REMARK  Name = 
REMARK  7 active torsions:
REMARK  status: ('A' for Active; 'I' for Inactive)
REMARK    1  A    between atoms: C_1  and  C_2
REMARK    2  A    between atoms: C_2  and  C_3
REMARK    3  A    between atoms: C_2  and  C_4
REMARK    4  A    between atoms: C_4  and  C_5
REMARK    5  A    between atoms: C_13  and  C_14
REMARK    6  A    between atoms: C_14  and  N_15
REMARK    7  A    between atoms: C_16  and  C_18
REMARK                            x       y       z     vdW  Elec       q    Type
REMARK                         _______ _______ _______ _____ _____    ______ ____
ROOT
ATOM      1  C   UNL     1       0.717  10.197  21.512  0.00  0.00    +0.000 C 
ATOM      2  O   UNL     1       1.156   9.639  22.518  0.00  0.00    +0.000 OA
ATOM      3  N   UNL     1       0.813   9.669  20.214  0.00  0.00    +0.000 N 
ATOM      4  C   UNL     1       0.514  10.440  18.999  0.00  0.00    +0.000 C 
ATOM      5  C   UNL     1       1.752  10.555  18.132  0.00  0.00    +0.000 C 
ATOM      6  C   UNL     1       2.182   9.168  17.675  0.00  0.00    +0.000 C 
ATOM      7  C   UNL     1       2.094   8.133  18.770  0.00  0.00    +0.000 A 
ATOM      8  C   UNL     1       2.732   6.893  18.569  0.00  0.00    +0.000 A 
ATOM      9  C   UNL     1       2.717   5.900  19.557  0.00  0.00    +0.000 A 
ATOM     10  C   UNL     1       1.992   6.132  20.727  0.00  0.00    +0.000 A 
ATOM     11  C   UNL     1       1.351   7.356  20.933  0.00  0.00    +0.000 A 
ATOM     12  C   UNL     1       1.413   8.382  19.980  0.00  0.00    +0.000 A 
ENDROOT
BRANCH   1  13
ATOM     13  C   UNL     1       0.087  11.582  21.639  0.00  0.00    +0.000 C 
BRANCH  13  15
ATOM     14  C   UNL     1      -1.842  11.804  23.229  0.00  0.00    +0.000 C 
ATOM     15  C   UNL     1      -1.447  11.565  21.769  0.00  0.00    +0.000 C 
ATOM     16  C   UNL     1      -2.116  12.621  20.883  0.00  0.00    +0.000 C 
ENDBRANCH  13  15
ENDBRANCH   1  13
BRANCH   9  17
ATOM     17  C   UNL     1       3.452   4.601  19.369  0.00  0.00    +0.000 C 
BRANCH  17  18
ATOM     18  N   UNL     1       3.979   4.483  18.032  0.00  0.00    +0.000 N 
ATOM     19  C   UNL     1       5.275   4.873  17.763  0.00  0.00    +0.000 C 
ATOM     20  O   UNL     1       6.028   5.346  18.607  0.00  0.00    +0.000 OA
ATOM     21  H   UNL     1       3.499   3.872  17.387  0.00  0.00    +0.000 HD
BRANCH  19  22
ATOM     22  C   UNL     1       5.748   4.667  16.371  0.00  0.00    +0.000 A 
ATOM     23  C   UNL     1       4.907   4.145  15.380  0.00  0.00    +0.000 A 
ATOM     24  C   UNL     1       5.374   3.996  14.073  0.00  0.00    +0.000 A 
ATOM     25  C   UNL     1       6.681   4.372  13.753  0.00  0.00    +0.000 A 
ATOM     26 CL   UNL     1       7.246   4.196  12.138  0.00  0.00    +0.000 Cl
ATOM     27  C   UNL     1       7.522   4.900  14.730  0.00  0.00    +0.000 A 
ATOM     28  C   UNL     1       7.056   5.055  16.039  0.00  0.00    +0.000 A 
ENDBRANCH  19  22
ENDBRANCH  17  18
ENDBRANCH   9  17
TORSDOF 5
ENDMDL
MODEL 9
REMARK VINA RESULT:      -7.8      2.481      2.639
REMARK  Name = 
REMARK  7 active torsions:
REMARK  status: ('A' for Active; 'I' for Inactive)
REMARK    1  A    between atoms: C_1  and  C_2
REMARK    2  A    between atoms: C_2  and  C_3
REMARK    3  A    between atoms: C_2  and  C_4
REMARK    4  A    between atoms: C_4  and  C_5
REMARK    5  A    between atoms: C_13  and  C_14
REMARK    6  A    between atoms: C_14  and  N_15
REMARK    7  A    between atoms: C_16  and  C_18
REMARK                            x       y       z     vdW  Elec       q    Type
REMARK                         _______ _______ _______ _____ _____    ______ ____
ROOT
ATOM      1  C   UNL     1       4.696   5.068  16.680  0.00  0.00    +0.000 C 
ATOM      2  O   UNL     1       5.166   6.205  16.739  0.00  0.00    +0.000 OA
ATOM      3  N   UNL     1       3.615   4.621  17.458  0.00  0.00    +0.000 N 
ATOM      4  C   UNL     1       3.218   3.210  17.564  0.00  0.00    +0.000 C 
ATOM      5  C   UNL     1       3.351   2.734  18.997  0.00  0.00    +0.000 C 
ATOM      6  C   UNL     1       2.399   3.524  19.885  0.00  0.00    +0.000 C 
ATOM      7  C   UNL     1       2.371   4.997  19.554  0.00  0.00    +0.000 A 
ATOM      8  C   UNL     1       1.767   5.876  20.476  0.00  0.00    +0.000 A 
ATOM      9  C   UNL     1       1.735   7.258  20.247  0.00  0.00    +0.000 A 
ATOM     10  C   UNL     1       2.252   7.749  19.047  0.00  0.00    +0.000 A 
ATOM     11  C   UNL     1       2.847   6.885  18.125  0.00  0.00    +0.000 A 
ATOM     12  C   UNL     1       2.944   5.508  18.371  0.00  0.00    +0.000 A 
ENDROOT
BRANCH   1  13
ATOM     13  C   UNL     1       5.350   4.034  15.766  0.00  0.00    +0.000 C 
BRANCH  13  15
ATOM     14  C   UNL     1       7.318   4.950  14.506  0.00  0.00    +0.000 C 
ATOM     15  C   UNL     1       5.829   4.602  14.417  0.00  0.00    +0.000 C 
ATOM     16  C   UNL     1       5.605   3.621  13.262  0.00  0.00    +0.000 C 
ENDBRANCH  13  15
ENDBRANCH   1  13
BRANCH   9  17
ATOM     17  C   UNL     1       1.149   8.203  21.260  0.00  0.00    +0.000 C 
BRANCH  17  18
ATOM     18  N   UNL     1       0.835   9.480  20.669  0.00  0.00    +0.000 N 
ATOM     19  C   UNL     1       0.534  10.559  21.474  0.00  0.00    +0.000 C 
ATOM     20  O   UNL     1       0.496  10.501  22.698  0.00  0.00    +0.000 OA
ATOM     21  H   UNL     1       1.106   9.636  19.708  0.00  0.00    +0.000 HD
BRANCH  19  22
ATOM     22  C   UNL     1       0.276  11.846  20.779  0.00  0.00    +0.000 A 
ATOM     23  C   UNL     1      -0.722  12.727  21.214  0.00  0.00    +0.000 A 
ATOM     24  C   UNL     1      -0.916  13.944  20.558  0.00  0.00    +0.000 A 
ATOM     25  C   UNL     1      -0.109  14.285  19.470  0.00  0.00    +0.000 A 
ATOM     26 CL   UNL     1      -0.345  15.791  18.675  0.00  0.00    +0.000 Cl
ATOM     27  C   UNL     1       0.893  13.419  19.036  0.00  0.00    +0.000 A 
ATOM     28  C   UNL     1       1.092  12.201  19.694  0.00  0.00    +0.000 A 
ENDBRANCH  19  22
ENDBRANCH  17  18
ENDBRANCH   9  17
TORSDOF 5
ENDMDL
