MODEL 1
REMARK VINA RESULT:      -9.1      0.000      0.000
REMARK  Name = 
REMARK  7 active torsions:
REMARK  status: ('A' for Active; 'I' for Inactive)
REMARK    1  A    between atoms: C_1  and  C_2
REMARK    2  A    between atoms: C_4  and  C_5
REMARK    3  A    between atoms: C_11  and  C_12
REMARK    4  A    between atoms: C_12  and  C_14
REMARK    5  A    between atoms: N_16  and  C_17
REMARK    6  A    between atoms: C_20  and  N_21
REMARK    7  A    between atoms: N_36  and  C_37
REMARK                            x       y       z     vdW  Elec       q    Type
REMARK                         _______ _______ _______ _____ _____    ______ ____
ROOT
ATOM      1  C   UNL     1       3.792   6.123  19.388  0.00  0.00    +0.000 C 
ATOM      2  O   UNL     1       3.214   5.670  20.366  0.00  0.00    +0.000 OA
ATOM      3  N   UNL     1       3.434   7.211  18.618  0.00  0.00    +0.000 N 
ATOM      4  H   UNL     1       3.848   7.279  17.696  0.00  0.00    +0.000 HD
ENDROOT
BRANCH   3   5
ATOM      5  C   UNL     1       2.338   8.032  18.900  0.00  0.00    +0.000 A 
ATOM      6  C   UNL     1       1.807   8.159  20.184  0.00  0.00    +0.000 A 
ATOM      7  C   UNL     1       0.770   9.073  20.422  0.00  0.00    +0.000 A 
ATOM      8  C   UNL     1       0.211   9.816  19.377  0.00  0.00    +0.000 A 
ATOM      9  C   UNL     1       0.734   9.630  18.089  0.00  0.00    +0.000 A 
ATOM     10  C   UNL     1       1.816   8.786  17.856  0.00  0.00    +0.000 A 
BRANCH   8  11
ATOM     11  N   UNL     1      -0.784  10.769  19.541  0.00  0.00    +0.000 N 
ATOM     12  C   UNL     1      -1.086  11.286  20.889  0.00  0.00    +0.000 C 
ATOM     13  C   UNL     1      -1.783  12.660  20.755  0.00  0.00    +0.000 C 
ATOM     14  N   UNL     1      -2.958  12.558  19.884  0.00  0.00    +0.000 N 
ATOM     15  C   UNL     1      -4.208  12.869  20.337  0.00  0.00    +0.000 A 
ATOM     16  N   UNL     1      -4.347  13.315  21.600  0.00  0.00    +0.000 NA
ATOM     17  C   UNL     1      -5.587  13.641  22.027  0.00  0.00    +0.000 A 
ATOM     18  C   UNL     1      -6.698  13.538  21.241  0.00  0.00    +0.000 A 
ATOM     19  F   UNL     1      -7.916  13.865  21.678  0.00  0.00    +0.000 F 
ATOM     20  C   UNL     1      -6.478  13.080  19.971  0.00  0.00    +0.000 A 
ATOM     21  N   UNL     1      -5.259  12.732  19.505  0.00  0.00    +0.000 NA
ATOM     22  C   UNL     1      -2.747  11.940  18.573  0.00  0.00    +0.000 C 
ATOM     23  C   UNL     1      -1.998  10.591  18.711  0.00  0.00    +0.000 C 
ENDBRANCH   8  11
ENDBRANCH   3   5
BRANCH   1  24
ATOM     24  C   UNL     1       5.048   5.449  18.869  0.00  0.00    +0.000 C 
ATOM     25  O   UNL     1       5.988   5.503  19.661  0.00  0.00    +0.000 OA
BRANCH  24  30
ATOM     26  C   UNL     1       6.855   4.218  14.288  0.00  0.00    +0.000 C 
ATOM     27  C   UNL     1       5.924   4.307  15.449  0.00  0.00    +0.000 A 
ATOM     28  C   UNL     1       4.794   3.566  15.685  0.00  0.00    +0.000 A 
ATOM     29  C   UNL     1       4.257   3.948  16.943  0.00  0.00    +0.000 A 
ATOM     30  C   UNL     1       5.115   4.918  17.497  0.00  0.00    +0.000 A 
ATOM     31  N   UNL     1       6.053   5.204  16.497  0.00  0.00    +0.000 N 
ATOM     32  C   UNL     1       7.080   6.229  16.491  0.00  0.00    +0.000 C 
BRANCH  29  33
ATOM     33  C   UNL     1       3.065   3.354  17.562  0.00  0.00    +0.000 A 
ATOM     34  C   UNL     1       3.130   2.058  18.102  0.00  0.00    +0.000 A 
ATOM     35  C   UNL     1       2.007   1.465  18.686  0.00  0.00    +0.000 A 
ATOM     36  C   UNL     1       0.807   2.165  18.761  0.00  0.00    +0.000 A 
ATOM     37  C   UNL     1       0.720   3.442  18.214  0.00  0.00    +0.000 A 
ATOM     38  C   UNL     1       1.832   4.015  17.587  0.00  0.00    +0.000 A 
ENDBRANCH  29  33
ENDBRANCH  24  30
ENDBRANCH   1  24
TORSDOF 5
ENDMDL
MODEL 2
REMARK VINA RESULT:      -8.8      2.334      4.264
REMARK  Name = 
REMARK  7 active torsions:
REMARK  status: ('A' for Active; 'I' for Inactive)
REMARK    1  A    between atoms: C_1  and  C_2
REMARK    2  A    between atoms: C_4  and  C_5
REMARK    3  A    between atoms: C_11  and  C_12
REMARK    4  A    between atoms: C_12  and  C_14
REMARK    5  A    between atoms: N_16  and  C_17
REMARK    6  A    between atoms: C_20  and  N_21
REMARK    7  A    between atoms: N_36  and  C_37
REMARK                            x       y       z     vdW  Elec       q    Type
REMARK                         _______ _______ _______ _____ _____    ______ ____
ROOT
ATOM      1  C   UNL     1       2.627   7.022  19.227  0.00  0.00    +0.000 C 
ATOM      2  O   UNL     1       2.329   7.496  18.140  0.00  0.00    +0.000 OA
ATOM      3  N   UNL     1       2.256   7.469  20.479  0.00  0.00    +0.000 N 
ATOM      4  H   UNL     1       2.808   7.146  21.265  0.00  0.00    +0.000 HD
ENDROOT
BRANCH   3   5
ATOM      5  C   UNL     1       1.389   8.545  20.692  0.00  0.00    +0.000 A 
ATOM      6  C   UNL     1       0.805   9.256  19.643  0.00  0.00    +0.000 A 
ATOM      7  C   UNL     1      -0.132  10.262  19.920  0.00  0.00    +0.000 A 
ATOM      8  C   UNL     1      -0.445  10.612  21.238  0.00  0.00    +0.000 A 
ATOM      9  C   UNL     1       0.196   9.912  22.271  0.00  0.00    +0.000 A 
ATOM     10  C   UNL     1       1.066   8.857  22.006  0.00  0.00    +0.000 A 
BRANCH   8  11
ATOM     11  N   UNL     1      -1.392  11.563  21.590  0.00  0.00    +0.000 N 
ATOM     12  C   UNL     1      -1.453  12.840  20.854  0.00  0.00    +0.000 C 
ATOM     13  C   UNL     1      -2.861  13.454  21.034  0.00  0.00    +0.000 C 
ATOM     14  N   UNL     1      -3.192  13.575  22.458  0.00  0.00    +0.000 N 
ATOM     15  C   UNL     1      -3.470  14.787  23.023  0.00  0.00    +0.000 A 
ATOM     16  N   UNL     1      -3.477  15.881  22.238  0.00  0.00    +0.000 NA
ATOM     17  C   UNL     1      -3.776  17.069  22.806  0.00  0.00    +0.000 A 
ATOM     18  C   UNL     1      -4.070  17.211  24.132  0.00  0.00    +0.000 A 
ATOM     19  F   UNL     1      -4.365  18.393  24.678  0.00  0.00    +0.000 F 
ATOM     20  C   UNL     1      -4.045  16.055  24.864  0.00  0.00    +0.000 A 
ATOM     21  N   UNL     1      -3.741  14.848  24.341  0.00  0.00    +0.000 NA
ATOM     22  C   UNL     1      -3.033  12.366  23.270  0.00  0.00    +0.000 C 
ATOM     23  C   UNL     1      -1.641  11.725  23.041  0.00  0.00    +0.000 C 
ENDBRANCH   8  11
ENDBRANCH   3   5
BRANCH   1  24
ATOM     24  C   UNL     1       3.539   5.812  19.303  0.00  0.00    +0.000 C 
ATOM     25  O   UNL     1       4.681   6.089  19.668  0.00  0.00    +0.000 OA
BRANCH  24  30
ATOM     26  C   UNL     1       0.607   1.730  18.590  0.00  0.00    +0.000 C 
ATOM     27  C   UNL     1       1.764   2.663  18.467  0.00  0.00    +0.000 A 
ATOM     28  C   UNL     1       2.761   2.653  17.526  0.00  0.00    +0.000 A 
ATOM     29  C   UNL     1       3.614   3.765  17.757  0.00  0.00    +0.000 A 
ATOM     30  C   UNL     1       3.086   4.488  18.845  0.00  0.00    +0.000 A 
ATOM     31  N   UNL     1       2.027   3.712  19.332  0.00  0.00    +0.000 N 
ATOM     32  C   UNL     1       1.228   3.925  20.525  0.00  0.00    +0.000 C 
BRANCH  29  33
ATOM     33  C   UNL     1       4.780   4.115  16.936  0.00  0.00    +0.000 A 
ATOM     34  C   UNL     1       4.620   4.344  15.559  0.00  0.00    +0.000 A 
ATOM     35  C   UNL     1       5.716   4.666  14.751  0.00  0.00    +0.000 A 
ATOM     36  C   UNL     1       6.984   4.787  15.311  0.00  0.00    +0.000 A 
ATOM     37  C   UNL     1       7.162   4.544  16.670  0.00  0.00    +0.000 A 
ATOM     38  C   UNL     1       6.073   4.175  17.467  0.00  0.00    +0.000 A 
ENDBRANCH  29  33
ENDBRANCH  24  30
ENDBRANCH   1  24
TORSDOF 5
ENDMDL
MODEL 3
REMARK VINA RESULT:      -8.7      1.885      3.741
REMARK  Name = 
REMARK  7 active torsions:
REMARK  status: ('A' for Active; 'I' for Inactive)
REMARK    1  A    between atoms: C_1  and  C_2
REMARK    2  A    between atoms: C_4  and  C_5
REMARK    3  A    between atoms: C_11  and  C_12
REMARK    4  A    between atoms: C_12  and  C_14
REMARK    5  A    between atoms: N_16  and  C_17
REMARK    6  A    between atoms: C_20  and  N_21
REMARK    7  A    between atoms: N_36  and  C_37
REMARK                            x       y       z     vdW  Elec       q    Type
REMARK                         _______ _______ _______ _____ _____    ______ ____
ROOT
ATOM      1  C   UNL     1       2.460   7.201  19.220  0.00  0.00    +0.000 C 
ATOM      2  O   UNL     1       2.085   7.710  18.173  0.00  0.00    +0.000 OA
ATOM      3  N   UNL     1       2.120   7.561  20.508  0.00  0.00    +0.000 N 
ATOM      4  H   UNL     1       2.725   7.233  21.252  0.00  0.00    +0.000 HD
ENDROOT
BRANCH   3   5
ATOM      5  C   UNL     1       1.202   8.570  20.814  0.00  0.00    +0.000 A 
ATOM      6  C   UNL     1       0.381   8.519  21.941  0.00  0.00    +0.000 A 
ATOM      7  C   UNL     1      -0.449   9.607  22.248  0.00  0.00    +0.000 A 
ATOM      8  C   UNL     1      -0.518  10.721  21.405  0.00  0.00    +0.000 A 
ATOM      9  C   UNL     1       0.283  10.721  20.254  0.00  0.00    +0.000 A 
ATOM     10  C   UNL     1       1.170   9.682  19.983  0.00  0.00    +0.000 A 
BRANCH   8  11
ATOM     11  N   UNL     1      -1.280  11.851  21.664  0.00  0.00    +0.000 N 
ATOM     12  C   UNL     1      -1.894  12.029  22.994  0.00  0.00    +0.000 C 
ATOM     13  C   UNL     1      -2.192  13.531  23.211  0.00  0.00    +0.000 C 
ATOM     14  N   UNL     1      -3.003  14.059  22.109  0.00  0.00    +0.000 N 
ATOM     15  C   UNL     1      -4.234  14.607  22.331  0.00  0.00    +0.000 A 
ATOM     16  N   UNL     1      -4.685  14.695  23.597  0.00  0.00    +0.000 NA
ATOM     17  C   UNL     1      -5.894  15.260  23.804  0.00  0.00    +0.000 A 
ATOM     18  C   UNL     1      -6.676  15.742  22.793  0.00  0.00    +0.000 A 
ATOM     19  F   UNL     1      -7.869  16.300  23.015  0.00  0.00    +0.000 F 
ATOM     20  C   UNL     1      -6.151  15.620  21.537  0.00  0.00    +0.000 A 
ATOM     21  N   UNL     1      -4.952  15.053  21.282  0.00  0.00    +0.000 NA
ATOM     22  C   UNL     1      -2.508  13.807  20.753  0.00  0.00    +0.000 C 
ATOM     23  C   UNL     1      -2.157  12.310  20.562  0.00  0.00    +0.000 C 
ENDBRANCH   8  11
ENDBRANCH   3   5
BRANCH   1  24
ATOM     24  C   UNL     1       3.443   6.046  19.193  0.00  0.00    +0.000 C 
ATOM     25  O   UNL     1       4.603   6.394  19.411  0.00  0.00    +0.000 OA
BRANCH  24  30
ATOM     26  C   UNL     1       0.568   1.898  18.653  0.00  0.00    +0.000 C 
ATOM     27  C   UNL     1       1.721   2.833  18.506  0.00  0.00    +0.000 A 
ATOM     28  C   UNL     1       2.747   2.772  17.599  0.00  0.00    +0.000 A 
ATOM     29  C   UNL     1       3.583   3.906  17.785  0.00  0.00    +0.000 A 
ATOM     30  C   UNL     1       3.016   4.692  18.807  0.00  0.00    +0.000 A 
ATOM     31  N   UNL     1       1.948   3.938  19.310  0.00  0.00    +0.000 N 
ATOM     32  C   UNL     1       1.110   4.218  20.462  0.00  0.00    +0.000 C 
BRANCH  29  33
ATOM     33  C   UNL     1       4.771   4.214  16.979  0.00  0.00    +0.000 A 
ATOM     34  C   UNL     1       4.640   4.435  15.597  0.00  0.00    +0.000 A 
ATOM     35  C   UNL     1       5.757   4.718  14.805  0.00  0.00    +0.000 A 
ATOM     36  C   UNL     1       7.019   4.807  15.384  0.00  0.00    +0.000 A 
ATOM     37  C   UNL     1       7.169   4.572  16.747  0.00  0.00    +0.000 A 
ATOM     38  C   UNL     1       6.058   4.241  17.530  0.00  0.00    +0.000 A 
ENDBRANCH  29  33
ENDBRANCH  24  30
ENDBRANCH   1  24
TORSDOF 5
ENDMDL
MODEL 4
REMARK VINA RESULT:      -8.5      4.374     11.330
REMARK  Name = 
REMARK  7 active torsions:
REMARK  status: ('A' for Active; 'I' for Inactive)
REMARK    1  A    between atoms: C_1  and  C_2
REMARK    2  A    between atoms: C_4  and  C_5
REMARK    3  A    between atoms: C_11  and  C_12
REMARK    4  A    between atoms: C_12  and  C_14
REMARK    5  A    between atoms: N_16  and  C_17
REMARK    6  A    between atoms: C_20  and  N_21
REMARK    7  A    between atoms: N_36  and  C_37
REMARK                            x       y       z     vdW  Elec       q    Type
REMARK                         _______ _______ _______ _____ _____    ______ ____
ROOT
ATOM      1  C   UNL     1       0.071  10.939  21.542  0.00  0.00    +0.000 C 
ATOM      2  O   UNL     1       1.106  11.590  21.499  0.00  0.00    +0.000 OA
ATOM      3  N   UNL     1      -0.157   9.673  21.041  0.00  0.00    +0.000 N 
ATOM      4  H   UNL     1      -1.123   9.399  20.907  0.00  0.00    +0.000 HD
ENDROOT
BRANCH   3   5
ATOM      5  C   UNL     1       0.830   8.888  20.440  0.00  0.00    +0.000 A 
ATOM      6  C   UNL     1       1.307   7.711  21.019  0.00  0.00    +0.000 A 
ATOM      7  C   UNL     1       2.227   6.914  20.321  0.00  0.00    +0.000 A 
ATOM      8  C   UNL     1       2.728   7.314  19.077  0.00  0.00    +0.000 A 
ATOM      9  C   UNL     1       2.267   8.526  18.544  0.00  0.00    +0.000 A 
ATOM     10  C   UNL     1       1.293   9.283  19.192  0.00  0.00    +0.000 A 
BRANCH   8  11
ATOM     11  N   UNL     1       3.604   6.560  18.309  0.00  0.00    +0.000 N 
ATOM     12  C   UNL     1       4.792   7.202  17.715  0.00  0.00    +0.000 C 
ATOM     13  C   UNL     1       5.847   6.114  17.407  0.00  0.00    +0.000 C 
ATOM     14  N   UNL     1       5.267   5.056  16.573  0.00  0.00    +0.000 N 
ATOM     15  C   UNL     1       5.776   4.762  15.340  0.00  0.00    +0.000 A 
ATOM     16  N   UNL     1       6.859   5.437  14.909  0.00  0.00    +0.000 NA
ATOM     17  C   UNL     1       7.366   5.119  13.698  0.00  0.00    +0.000 A 
ATOM     18  C   UNL     1       6.833   4.151  12.896  0.00  0.00    +0.000 A 
ATOM     19  F   UNL     1       7.347   3.848  11.702  0.00  0.00    +0.000 F 
ATOM     20  C   UNL     1       5.737   3.508  13.402  0.00  0.00    +0.000 A 
ATOM     21  N   UNL     1       5.190   3.800  14.601  0.00  0.00    +0.000 NA
ATOM     22  C   UNL     1       4.015   4.462  17.049  0.00  0.00    +0.000 C 
ATOM     23  C   UNL     1       2.984   5.559  17.410  0.00  0.00    +0.000 C 
ENDBRANCH   8  11
ENDBRANCH   3   5
BRANCH   1  24
ATOM     24  C   UNL     1      -1.171  11.532  22.177  0.00  0.00    +0.000 C 
ATOM     25  O   UNL     1      -1.721  10.769  22.970  0.00  0.00    +0.000 OA
BRANCH  24  30
ATOM     26  C   UNL     1      -1.964  16.542  21.960  0.00  0.00    +0.000 C 
ATOM     27  C   UNL     1      -2.026  15.096  21.598  0.00  0.00    +0.000 A 
ATOM     28  C   UNL     1      -2.438  14.538  20.415  0.00  0.00    +0.000 A 
ATOM     29  C   UNL     1      -2.268  13.130  20.494  0.00  0.00    +0.000 A 
ATOM     30  C   UNL     1      -1.694  12.840  21.748  0.00  0.00    +0.000 A 
ATOM     31  N   UNL     1      -1.680  14.056  22.444  0.00  0.00    +0.000 N 
ATOM     32  C   UNL     1      -1.320  14.297  23.829  0.00  0.00    +0.000 C 
BRANCH  29  33
ATOM     33  C   UNL     1      -2.566  12.186  19.411  0.00  0.00    +0.000 A 
ATOM     34  C   UNL     1      -1.520  11.665  18.630  0.00  0.00    +0.000 A 
ATOM     35  C   UNL     1      -1.779  10.773  17.584  0.00  0.00    +0.000 A 
ATOM     36  C   UNL     1      -3.083  10.370  17.316  0.00  0.00    +0.000 A 
ATOM     37  C   UNL     1      -4.132  10.892  18.067  0.00  0.00    +0.000 A 
ATOM     38  C   UNL     1      -3.877  11.821  19.081  0.00  0.00    +0.000 A 
ENDBRANCH  29  33
ENDBRANCH  24  30
ENDBRANCH   1  24
TORSDOF 5
ENDMDL
MODEL 5
REMARK VINA RESULT:      -8.4      2.616      3.959
REMARK  Name = 
REMARK  7 active torsions:
REMARK  status: ('A' for Active; 'I' for Inactive)
REMARK    1  A    between atoms: C_1  and  C_2
REMARK    2  A    between atoms: C_4  and  C_5
REMARK    3  A    between atoms: C_11  and  C_12
REMARK    4  A    between atoms: C_12  and  C_14
REMARK    5  A    between atoms: N_16  and  C_17
REMARK    6  A    between atoms: C_20  and  N_21
REMARK    7  A    between atoms: N_36  and  C_37
REMARK                            x       y       z     vdW  Elec       q    Type
REMARK                         _______ _______ _______ _____ _____    ______ ____
ROOT
ATOM      1  C   UNL     1       4.003   6.054  16.950  0.00  0.00    +0.000 C 
ATOM      2  O   UNL     1       4.470   7.105  16.535  0.00  0.00    +0.000 OA
ATOM      3  N   UNL     1       3.107   5.872  17.984  0.00  0.00    +0.000 N 
ATOM      4  H   UNL     1       3.044   4.941  18.379  0.00  0.00    +0.000 HD
ENDROOT
BRANCH   3   5
ATOM      5  C   UNL     1       2.528   6.922  18.701  0.00  0.00    +0.000 A 
ATOM      6  C   UNL     1       2.136   8.117  18.095  0.00  0.00    +0.000 A 
ATOM      7  C   UNL     1       1.470   9.095  18.849  0.00  0.00    +0.000 A 
ATOM      8  C   UNL     1       1.250   8.922  20.219  0.00  0.00    +0.000 A 
ATOM      9  C   UNL     1       1.699   7.731  20.810  0.00  0.00    +0.000 A 
ATOM     10  C   UNL     1       2.288   6.720  20.054  0.00  0.00    +0.000 A 
BRANCH   8  11
ATOM     11  N   UNL     1       0.562   9.822  21.020  0.00  0.00    +0.000 N 
ATOM     12  C   UNL     1      -0.478   9.331  21.944  0.00  0.00    +0.000 C 
ATOM     13  C   UNL     1      -0.685  10.376  23.066  0.00  0.00    +0.000 C 
ATOM     14  N   UNL     1      -0.977  11.694  22.493  0.00  0.00    +0.000 N 
ATOM     15  C   UNL     1      -2.143  12.348  22.772  0.00  0.00    +0.000 A 
ATOM     16  N   UNL     1      -3.017  11.779  23.623  0.00  0.00    +0.000 NA
ATOM     17  C   UNL     1      -4.156  12.449  23.907  0.00  0.00    +0.000 A 
ATOM     18  C   UNL     1      -4.458  13.668  23.373  0.00  0.00    +0.000 A 
ATOM     19  F   UNL     1      -5.587  14.318  23.666  0.00  0.00    +0.000 F 
ATOM     20  C   UNL     1      -3.521  14.183  22.520  0.00  0.00    +0.000 A 
ATOM     21  N   UNL     1      -2.376  13.545  22.199  0.00  0.00    +0.000 NA
ATOM     22  C   UNL     1      -0.044  12.185  21.476  0.00  0.00    +0.000 C 
ATOM     23  C   UNL     1       0.202  11.112  20.386  0.00  0.00    +0.000 C 
ENDBRANCH   8  11
ENDBRANCH   3   5
BRANCH   1  24
ATOM     24  C   UNL     1       4.429   4.737  16.329  0.00  0.00    +0.000 C 
ATOM     25  O   UNL     1       3.786   3.775  16.746  0.00  0.00    +0.000 OA
BRANCH  24  30
ATOM     26  C   UNL     1       7.181   4.296  12.086  0.00  0.00    +0.000 C 
ATOM     27  C   UNL     1       6.846   4.519  13.522  0.00  0.00    +0.000 A 
ATOM     28  C   UNL     1       7.636   5.070  14.498  0.00  0.00    +0.000 A 
ATOM     29  C   UNL     1       6.884   5.144  15.701  0.00  0.00    +0.000 A 
ATOM     30  C   UNL     1       5.589   4.663  15.425  0.00  0.00    +0.000 A 
ATOM     31  N   UNL     1       5.643   4.171  14.115  0.00  0.00    +0.000 N 
ATOM     32  C   UNL     1       4.624   3.442  13.383  0.00  0.00    +0.000 C 
BRANCH  29  33
ATOM     33  C   UNL     1       7.374   5.708  16.965  0.00  0.00    +0.000 A 
ATOM     34  C   UNL     1       7.575   4.867  18.073  0.00  0.00    +0.000 A 
ATOM     35  C   UNL     1       8.030   5.380  19.293  0.00  0.00    +0.000 A 
ATOM     36  C   UNL     1       8.314   6.737  19.416  0.00  0.00    +0.000 A 
ATOM     37  C   UNL     1       8.102   7.586  18.334  0.00  0.00    +0.000 A 
ATOM     38  C   UNL     1       7.601   7.079  17.131  0.00  0.00    +0.000 A 
ENDBRANCH  29  33
ENDBRANCH  24  30
ENDBRANCH   1  24
TORSDOF 5
ENDMDL
MODEL 6
REMARK VINA RESULT:      -8.3      4.529     11.976
REMARK  Name = 
REMARK  7 active torsions:
REMARK  status: ('A' for Active; 'I' for Inactive)
REMARK    1  A    between atoms: C_1  and  C_2
REMARK    2  A    between atoms: C_4  and  C_5
REMARK    3  A    between atoms: C_11  and  C_12
REMARK    4  A    between atoms: C_12  and  C_14
REMARK    5  A    between atoms: N_16  and  C_17
REMARK    6  A    between atoms: C_20  and  N_21
REMARK    7  A    between atoms: N_36  and  C_37
REMARK                            x       y       z     vdW  Elec       q    Type
REMARK                         _______ _______ _______ _____ _____    ______ ____
ROOT
ATOM      1  C   UNL     1      -1.427  13.356  23.057  0.00  0.00    +0.000 C 
ATOM      2  O   UNL     1      -0.279  13.649  23.357  0.00  0.00    +0.000 OA
ATOM      3  N   UNL     1      -1.859  12.293  22.289  0.00  0.00    +0.000 N 
ATOM      4  H   UNL     1      -2.795  12.353  21.905  0.00  0.00    +0.000 HD
ENDROOT
BRANCH   3   5
ATOM      5  C   UNL     1      -1.007  11.314  21.772  0.00  0.00    +0.000 A 
ATOM      6  C   UNL     1      -0.531  10.252  22.542  0.00  0.00    +0.000 A 
ATOM      7  C   UNL     1       0.242   9.247  21.941  0.00  0.00    +0.000 A 
ATOM      8  C   UNL     1       0.601   9.325  20.591  0.00  0.00    +0.000 A 
ATOM      9  C   UNL     1       0.148  10.430  19.856  0.00  0.00    +0.000 A 
ATOM     10  C   UNL     1      -0.687  11.390  20.423  0.00  0.00    +0.000 A 
BRANCH   8  11
ATOM     11  N   UNL     1       1.324   8.351  19.917  0.00  0.00    +0.000 N 
ATOM     12  C   UNL     1       2.039   7.312  20.682  0.00  0.00    +0.000 C 
ATOM     13  C   UNL     1       2.277   6.089  19.765  0.00  0.00    +0.000 C 
ATOM     14  N   UNL     1       2.963   6.496  18.534  0.00  0.00    +0.000 N 
ATOM     15  C   UNL     1       4.179   5.976  18.193  0.00  0.00    +0.000 A 
ATOM     16  N   UNL     1       4.731   5.042  18.991  0.00  0.00    +0.000 NA
ATOM     17  C   UNL     1       5.924   4.520  18.629  0.00  0.00    +0.000 A 
ATOM     18  C   UNL     1       6.591   4.895  17.498  0.00  0.00    +0.000 A 
ATOM     19  F   UNL     1       7.768   4.368  17.154  0.00  0.00    +0.000 F 
ATOM     20  C   UNL     1       5.967   5.845  16.738  0.00  0.00    +0.000 A 
ATOM     21  N   UNL     1       4.781   6.402  17.066  0.00  0.00    +0.000 NA
ATOM     22  C   UNL     1       2.367   7.609  17.791  0.00  0.00    +0.000 C 
ATOM     23  C   UNL     1       2.079   8.808  18.728  0.00  0.00    +0.000 C 
ENDBRANCH   8  11
ENDBRANCH   3   5
BRANCH   1  24
ATOM     24  C   UNL     1      -2.578  14.230  23.517  0.00  0.00    +0.000 C 
ATOM     25  O   UNL     1      -3.102  13.832  24.557  0.00  0.00    +0.000 OA
BRANCH  24  30
ATOM     26  C   UNL     1      -2.664  18.623  20.975  0.00  0.00    +0.000 C 
ATOM     27  C   UNL     1      -3.104  17.297  21.497  0.00  0.00    +0.000 A 
ATOM     28  C   UNL     1      -4.144  16.519  21.056  0.00  0.00    +0.000 A 
ATOM     29  C   UNL     1      -4.154  15.311  21.804  0.00  0.00    +0.000 A 
ATOM     30  C   UNL     1      -3.060  15.349  22.691  0.00  0.00    +0.000 A 
ATOM     31  N   UNL     1      -2.518  16.635  22.563  0.00  0.00    +0.000 N 
ATOM     32  C   UNL     1      -1.462  17.250  23.345  0.00  0.00    +0.000 C 
BRANCH  29  33
ATOM     33  C   UNL     1      -5.099  14.206  21.602  0.00  0.00    +0.000 A 
ATOM     34  C   UNL     1      -6.231  14.096  22.427  0.00  0.00    +0.000 A 
ATOM     35  C   UNL     1      -7.141  13.046  22.264  0.00  0.00    +0.000 A 
ATOM     36  C   UNL     1      -6.947  12.104  21.259  0.00  0.00    +0.000 A 
ATOM     37  C   UNL     1      -5.820  12.188  20.446  0.00  0.00    +0.000 A 
ATOM     38  C   UNL     1      -4.886  13.210  20.642  0.00  0.00    +0.000 A 
ENDBRANCH  29  33
ENDBRANCH  24  30
ENDBRANCH   1  24
TORSDOF 5
ENDMDL
MODEL 7
REMARK VINA RESULT:      -8.3      4.414     11.518
REMARK  Name = 
REMARK  7 active torsions:
REMARK  status: ('A' for Active; 'I' for Inactive)
REMARK    1  A    between atoms: C_1  and  C_2
REMARK    2  A    between atoms: C_4  and  C_5
REMARK    3  A    between atoms: C_11  and  C_12
REMARK    4  A    between atoms: C_12  and  C_14
REMARK    5  A    between atoms: N_16  and  C_17
REMARK    6  A    between atoms: C_20  and  N_21
REMARK    7  A    between atoms: N_36  and  C_37
REMARK                            x       y       z     vdW  Elec       q    Type
REMARK                         _______ _______ _______ _____ _____    ______ ____
ROOT
ATOM      1  C   UNL     1       0.000  11.370  21.552  0.00  0.00    +0.000 C 
ATOM      2  O   UNL     1       1.055  11.971  21.408  0.00  0.00    +0.000 OA
ATOM      3  N   UNL     1      -0.367  10.157  21.005  0.00  0.00    +0.000 N 
ATOM      4  H   UNL     1      -1.357   9.940  20.990  0.00  0.00    +0.000 HD
ENDROOT
BRANCH   3   5
ATOM      5  C   UNL     1       0.482   9.372  20.220  0.00  0.00    +0.000 A 
ATOM      6  C   UNL     1       0.676   9.609  18.859  0.00  0.00    +0.000 A 
ATOM      7  C   UNL     1       1.615   8.849  18.146  0.00  0.00    +0.000 A 
ATOM      8  C   UNL     1       2.317   7.808  18.763  0.00  0.00    +0.000 A 
ATOM      9  C   UNL     1       2.063   7.562  20.121  0.00  0.00    +0.000 A 
ATOM     10  C   UNL     1       1.194   8.363  20.857  0.00  0.00    +0.000 A 
BRANCH   8  11
ATOM     11  N   UNL     1       3.291   7.043  18.137  0.00  0.00    +0.000 N 
ATOM     12  C   UNL     1       4.337   7.706  17.336  0.00  0.00    +0.000 C 
ATOM     13  C   UNL     1       5.555   6.761  17.222  0.00  0.00    +0.000 C 
ATOM     14  N   UNL     1       5.145   5.455  16.696  0.00  0.00    +0.000 N 
ATOM     15  C   UNL     1       5.669   4.959  15.536  0.00  0.00    +0.000 A 
ATOM     16  N   UNL     1       6.609   5.677  14.891  0.00  0.00    +0.000 NA
ATOM     17  C   UNL     1       7.134   5.163  13.757  0.00  0.00    +0.000 A 
ATOM     18  C   UNL     1       6.756   3.958  13.238  0.00  0.00    +0.000 A 
ATOM     19  F   UNL     1       7.287   3.465  12.117  0.00  0.00    +0.000 F 
ATOM     20  C   UNL     1       5.799   3.288  13.949  0.00  0.00    +0.000 A 
ATOM     21  N   UNL     1       5.239   3.767  15.080  0.00  0.00    +0.000 NA
ATOM     22  C   UNL     1       4.026   4.798  17.376  0.00  0.00    +0.000 C 
ATOM     23  C   UNL     1       2.830   5.770  17.537  0.00  0.00    +0.000 C 
ENDBRANCH   8  11
ENDBRANCH   3   5
BRANCH   1  24
ATOM     24  C   UNL     1      -1.108  11.973  22.394  0.00  0.00    +0.000 C 
ATOM     25  O   UNL     1      -1.551  11.196  23.239  0.00  0.00    +0.000 OA
BRANCH  24  30
ATOM     26  C   UNL     1      -1.927  16.977  22.631  0.00  0.00    +0.000 C 
ATOM     27  C   UNL     1      -1.993  15.568  22.148  0.00  0.00    +0.000 A 
ATOM     28  C   UNL     1      -2.439  15.111  20.934  0.00  0.00    +0.000 A 
ATOM     29  C   UNL     1      -2.260  13.702  20.888  0.00  0.00    +0.000 A 
ATOM     30  C   UNL     1      -1.649  13.309  22.094  0.00  0.00    +0.000 A 
ATOM     31  N   UNL     1      -1.619  14.461  22.892  0.00  0.00    +0.000 N 
ATOM     32  C   UNL     1      -1.219  14.584  24.281  0.00  0.00    +0.000 C 
BRANCH  29  33
ATOM     33  C   UNL     1      -2.586  12.853  19.736  0.00  0.00    +0.000 A 
ATOM     34  C   UNL     1      -3.870  12.291  19.624  0.00  0.00    +0.000 A 
ATOM     35  C   UNL     1      -4.203  11.467  18.543  0.00  0.00    +0.000 A 
ATOM     36  C   UNL     1      -3.267  11.212  17.546  0.00  0.00    +0.000 A 
ATOM     37  C   UNL     1      -1.986  11.745  17.652  0.00  0.00    +0.000 A 
ATOM     38  C   UNL     1      -1.640  12.528  18.758  0.00  0.00    +0.000 A 
ENDBRANCH  29  33
ENDBRANCH  24  30
ENDBRANCH   1  24
TORSDOF 5
ENDMDL
MODEL 8
REMARK VINA RESULT:      -8.3      4.572     11.893
REMARK  Name = 
REMARK  7 active torsions:
REMARK  status: ('A' for Active; 'I' for Inactive)
REMARK    1  A    between atoms: C_1  and  C_2
REMARK    2  A    between atoms: C_4  and  C_5
REMARK    3  A    between atoms: C_11  and  C_12
REMARK    4  A    between atoms: C_12  and  C_14
REMARK    5  A    between atoms: N_16  and  C_17
REMARK    6  A    between atoms: C_20  and  N_21
REMARK    7  A    between atoms: N_36  and  C_37
REMARK                            x       y       z     vdW  Elec       q    Type
REMARK                         _______ _______ _______ _____ _____    ______ ____
ROOT
ATOM      1  C   UNL     1      -2.845  12.617  23.269  0.00  0.00    +0.000 C 
ATOM      2  O   UNL     1      -3.283  11.564  23.710  0.00  0.00    +0.000 OA
ATOM      3  N   UNL     1      -1.738  12.807  22.467  0.00  0.00    +0.000 N 
ATOM      4  H   UNL     1      -1.353  13.744  22.427  0.00  0.00    +0.000 HD
ENDROOT
BRANCH   3   5
ATOM      5  C   UNL     1      -0.955  11.762  21.967  0.00  0.00    +0.000 A 
ATOM      6  C   UNL     1      -0.582  10.666  22.745  0.00  0.00    +0.000 A 
ATOM      7  C   UNL     1       0.121   9.602  22.160  0.00  0.00    +0.000 A 
ATOM      8  C   UNL     1       0.514   9.651  20.819  0.00  0.00    +0.000 A 
ATOM      9  C   UNL     1       0.167  10.788  20.075  0.00  0.00    +0.000 A 
ATOM     10  C   UNL     1      -0.601  11.812  20.625  0.00  0.00    +0.000 A 
BRANCH   8  11
ATOM     11  N   UNL     1       1.171   8.621  20.160  0.00  0.00    +0.000 N 
ATOM     12  C   UNL     1       1.894   7.599  20.939  0.00  0.00    +0.000 C 
ATOM     13  C   UNL     1       2.048   6.326  20.075  0.00  0.00    +0.000 C 
ATOM     14  N   UNL     1       2.679   6.648  18.792  0.00  0.00    +0.000 N 
ATOM     15  C   UNL     1       3.860   6.074  18.416  0.00  0.00    +0.000 A 
ATOM     16  N   UNL     1       4.426   5.163  19.232  0.00  0.00    +0.000 NA
ATOM     17  C   UNL     1       5.581   4.586  18.836  0.00  0.00    +0.000 A 
ATOM     18  C   UNL     1       6.198   4.883  17.654  0.00  0.00    +0.000 A 
ATOM     19  F   UNL     1       7.339   4.301  17.278  0.00  0.00    +0.000 F 
ATOM     20  C   UNL     1       5.563   5.813  16.879  0.00  0.00    +0.000 A 
ATOM     21  N   UNL     1       4.414   6.424  17.239  0.00  0.00    +0.000 NA
ATOM     22  C   UNL     1       2.078   7.741  18.024  0.00  0.00    +0.000 C 
ATOM     23  C   UNL     1       1.875   8.995  18.911  0.00  0.00    +0.000 C 
ENDBRANCH   8  11
ENDBRANCH   3   5
BRANCH   1  24
ATOM     24  C   UNL     1      -3.523  13.928  23.621  0.00  0.00    +0.000 C 
ATOM     25  O   UNL     1      -3.822  14.012  24.812  0.00  0.00    +0.000 OA
BRANCH  24  30
ATOM     26  C   UNL     1      -3.196  17.830  20.391  0.00  0.00    +0.000 C 
ATOM     27  C   UNL     1      -3.736  16.622  21.081  0.00  0.00    +0.000 A 
ATOM     28  C   UNL     1      -4.762  15.807  20.676  0.00  0.00    +0.000 A 
ATOM     29  C   UNL     1      -4.890  14.744  21.609  0.00  0.00    +0.000 A 
ATOM     30  C   UNL     1      -3.881  14.903  22.579  0.00  0.00    +0.000 A 
ATOM     31  N   UNL     1      -3.278  16.135  22.293  0.00  0.00    +0.000 N 
ATOM     32  C   UNL     1      -2.273  16.847  23.062  0.00  0.00    +0.000 C 
BRANCH  29  33
ATOM     33  C   UNL     1      -5.857  13.644  21.502  0.00  0.00    +0.000 A 
ATOM     34  C   UNL     1      -5.647  12.618  20.565  0.00  0.00    +0.000 A 
ATOM     35  C   UNL     1      -6.559  11.566  20.433  0.00  0.00    +0.000 A 
ATOM     36  C   UNL     1      -7.683  11.510  21.252  0.00  0.00    +0.000 A 
ATOM     37  C   UNL     1      -7.916  12.529  22.171  0.00  0.00    +0.000 A 
ATOM     38  C   UNL     1      -7.028  13.605  22.267  0.00  0.00    +0.000 A 
ENDBRANCH  29  33
ENDBRANCH  24  30
ENDBRANCH   1  24
TORSDOF 5
ENDMDL
MODEL 9
REMARK VINA RESULT:      -8.2      4.902     12.136
REMARK  Name = 
REMARK  7 active torsions:
REMARK  status: ('A' for Active; 'I' for Inactive)
REMARK    1  A    between atoms: C_1  and  C_2
REMARK    2  A    between atoms: C_4  and  C_5
REMARK    3  A    between atoms: C_11  and  C_12
REMARK    4  A    between atoms: C_12  and  C_14
REMARK    5  A    between atoms: N_16  and  C_17
REMARK    6  A    between atoms: C_20  and  N_21
REMARK    7  A    between atoms: N_36  and  C_37
REMARK                            x       y       z     vdW  Elec       q    Type
REMARK                         _______ _______ _______ _____ _____    ______ ____
ROOT
ATOM      1  C   UNL     1      -1.537  14.473  20.906  0.00  0.00    +0.000 C 
ATOM      2  O   UNL     1      -0.828  14.820  19.972  0.00  0.00    +0.000 OA
ATOM      3  N   UNL     1      -1.756  13.193  21.375  0.00  0.00    +0.000 N 
ATOM      4  H   UNL     1      -2.574  13.051  21.957  0.00  0.00    +0.000 HD
ENDROOT
BRANCH   3   5
ATOM      5  C   UNL     1      -1.117  12.060  20.864  0.00  0.00    +0.000 A 
ATOM      6  C   UNL     1      -1.430  11.523  19.615  0.00  0.00    +0.000 A 
ATOM      7  C   UNL     1      -0.687  10.444  19.114  0.00  0.00    +0.000 A 
ATOM      8  C   UNL     1       0.324   9.851  19.877  0.00  0.00    +0.000 A 
ATOM      9  C   UNL     1       0.582  10.382  21.149  0.00  0.00    +0.000 A 
ATOM     10  C   UNL     1      -0.095  11.504  21.621  0.00  0.00    +0.000 A 
BRANCH   8  11
ATOM     11  N   UNL     1       1.130   8.812  19.433  0.00  0.00    +0.000 N 
ATOM     12  C   UNL     1       1.810   7.945  20.415  0.00  0.00    +0.000 C 
ATOM     13  C   UNL     1       2.161   6.600  19.736  0.00  0.00    +0.000 C 
ATOM     14  N   UNL     1       2.935   6.829  18.512  0.00  0.00    +0.000 N 
ATOM     15  C   UNL     1       4.191   6.314  18.358  0.00  0.00    +0.000 A 
ATOM     16  N   UNL     1       4.702   5.549  19.341  0.00  0.00    +0.000 NA
ATOM     17  C   UNL     1       5.936   5.027  19.164  0.00  0.00    +0.000 A 
ATOM     18  C   UNL     1       6.684   5.240  18.042  0.00  0.00    +0.000 A 
ATOM     19  F   UNL     1       7.901   4.716  17.883  0.00  0.00    +0.000 F 
ATOM     20  C   UNL     1       6.097   6.025  17.087  0.00  0.00    +0.000 A 
ATOM     21  N   UNL     1       4.872   6.575  17.225  0.00  0.00    +0.000 NA
ATOM     22  C   UNL     1       2.370   7.777  17.549  0.00  0.00    +0.000 C 
ATOM     23  C   UNL     1       1.968   9.100  18.247  0.00  0.00    +0.000 C 
ENDBRANCH   8  11
ENDBRANCH   3   5
BRANCH   1  24
ATOM     24  C   UNL     1      -2.333  15.506  21.680  0.00  0.00    +0.000 C 
ATOM     25  O   UNL     1      -3.117  16.140  20.974  0.00  0.00    +0.000 OA
BRANCH  24  30
ATOM     26  C   UNL     1      -0.440  17.645  25.876  0.00  0.00    +0.000 C 
ATOM     27  C   UNL     1      -1.258  16.753  25.005  0.00  0.00    +0.000 A 
ATOM     28  C   UNL     1      -2.349  15.999  25.354  0.00  0.00    +0.000 A 
ATOM     29  C   UNL     1      -2.847  15.357  24.189  0.00  0.00    +0.000 A 
ATOM     30  C   UNL     1      -2.056  15.773  23.101  0.00  0.00    +0.000 A 
ATOM     31  N   UNL     1      -1.015  16.525  23.660  0.00  0.00    +0.000 N 
ATOM     32  C   UNL     1       0.155  17.075  23.001  0.00  0.00    +0.000 C 
BRANCH  29  33
ATOM     33  C   UNL     1      -4.031  14.489  24.150  0.00  0.00    +0.000 A 
ATOM     34  C   UNL     1      -3.920  13.139  24.525  0.00  0.00    +0.000 A 
ATOM     35  C   UNL     1      -5.029  12.288  24.486  0.00  0.00    +0.000 A 
ATOM     36  C   UNL     1      -6.271  12.778  24.093  0.00  0.00    +0.000 A 
ATOM     37  C   UNL     1      -6.394  14.107  23.700  0.00  0.00    +0.000 A 
ATOM     38  C   UNL     1      -5.273  14.944  23.694  0.00  0.00    +0.000 A 
ENDBRANCH  29  33
ENDBRANCH  24  30
ENDBRANCH   1  24
TORSDOF 5
ENDMDL
