MODEL 1
REMARK VINA RESULT:      -8.1      0.000      0.000
REMARK  Name = 
REMARK  9 active torsions:
REMARK  status: ('A' for Active; 'I' for Inactive)
REMARK    1  A    between atoms: C_1  and  C_2
REMARK    2  A    between atoms: C_6  and  O_7
REMARK    3  A    between atoms: O_7  and  C_8
REMARK    4  A    between atoms: C_8  and  C_9
REMARK    5  A    between atoms: C_8  and  C_10
REMARK    6  A    between atoms: C_8  and  C_11
REMARK    7  A    between atoms: N_13  and  C_14
REMARK    8  A    between atoms: C_14  and  C_15
REMARK    9  A    between atoms: C_15  and  C_16
REMARK                            x       y       z     vdW  Elec       q    Type
REMARK                         _______ _______ _______ _____ _____    ______ ____
ROOT
ATOM      1  C   UNL     1       7.154   6.378  17.921  0.00  0.00    +0.000 C 
ATOM      2  O   UNL     1       7.741   5.854  18.865  0.00  0.00    +0.000 OA
ATOM      3  N   UNL     1       7.452   7.672  17.518  0.00  0.00    +0.000 N 
ATOM      4  H   UNL     1       6.763   8.135  16.931  0.00  0.00    +0.000 HD
ENDROOT
BRANCH   1   5
ATOM      5  C   UNL     1       6.132   5.601  17.016  0.00  0.00    +0.000 C 
ATOM      6  C   UNL     1       6.931   5.183  15.762  0.00  0.00    +0.000 C 
ATOM      7  C   UNL     1       5.004   6.615  16.751  0.00  0.00    +0.000 C 
BRANCH   5   8
ATOM      8  O   UNL     1       5.647   4.465  17.758  0.00  0.00    +0.000 OA
BRANCH   8  14
ATOM      9  C   UNL     1       1.641   5.203  20.634  0.00  0.00    +0.000 C 
ATOM     10  C   UNL     1       2.290   4.614  19.415  0.00  0.00    +0.000 A 
ATOM     11  C   UNL     1       1.555   3.911  18.460  0.00  0.00    +0.000 A 
ATOM     12  C   UNL     1       2.195   3.403  17.330  0.00  0.00    +0.000 A 
ATOM     13  C   UNL     1       3.566   3.608  17.141  0.00  0.00    +0.000 A 
ATOM     14  C   UNL     1       4.322   4.314  18.080  0.00  0.00    +0.000 A 
ATOM     15  C   UNL     1       3.669   4.792  19.220  0.00  0.00    +0.000 A 
ENDBRANCH   8  14
ENDBRANCH   5   8
ENDBRANCH   1   5
BRANCH   3  16
ATOM     16  C   UNL     1       8.383   8.472  18.300  0.00  0.00    +0.000 C 
BRANCH  16  17
ATOM     17  C   UNL     1       8.458   9.948  17.892  0.00  0.00    +0.000 C 
BRANCH  17  18
ATOM     18  C   UNL     1       9.502  10.800  18.584  0.00  0.00    +0.000 A 
ATOM     19  C   UNL     1      10.489  11.505  17.884  0.00  0.00    +0.000 A 
ATOM     20  C   UNL     1      11.442  12.267  18.568  0.00  0.00    +0.000 A 
ATOM     21  C   UNL     1      11.407  12.350  19.958  0.00  0.00    +0.000 A 
ATOM     22  C   UNL     1      10.398  11.702  20.663  0.00  0.00    +0.000 A 
ATOM     23  C   UNL     1       9.444  10.944  19.980  0.00  0.00    +0.000 A 
ENDBRANCH  17  18
ENDBRANCH  16  17
ENDBRANCH   3  16
TORSDOF 6
ENDMDL
MODEL 2
REMARK VINA RESULT:      -8.0      1.052      1.519
REMARK  Name = 
REMARK  9 active torsions:
REMARK  status: ('A' for Active; 'I' for Inactive)
REMARK    1  A    between atoms: C_1  and  C_2
REMARK    2  A    between atoms: C_6  and  O_7
REMARK    3  A    between atoms: O_7  and  C_8
REMARK    4  A    between atoms: C_8  and  C_9
REMARK    5  A    between atoms: C_8  and  C_10
REMARK    6  A    between atoms: C_8  and  C_11
REMARK    7  A    between atoms: N_13  and  C_14
REMARK    8  A    between atoms: C_14  and  C_15
REMARK    9  A    between atoms: C_15  and  C_16
REMARK                            x       y       z     vdW  Elec       q    Type
REMARK                         _______ _______ _______ _____ _____    ______ ____
ROOT
ATOM      1  C   UNL     1       6.751   6.515  17.870  0.00  0.00    +0.000 C 
ATOM      2  O   UNL     1       7.551   5.960  18.621  0.00  0.00    +0.000 OA
ATOM      3  N   UNL     1       7.036   7.747  17.301  0.00  0.00    +0.000 N 
ATOM      4  H   UNL     1       6.247   8.267  16.925  0.00  0.00    +0.000 HD
ENDROOT
BRANCH   1   5
ATOM      5  C   UNL     1       5.422   5.831  17.387  0.00  0.00    +0.000 C 
ATOM      6  C   UNL     1       5.723   4.316  17.372  0.00  0.00    +0.000 C 
ATOM      7  C   UNL     1       5.154   6.448  16.001  0.00  0.00    +0.000 C 
BRANCH   5   8
ATOM      8  O   UNL     1       4.376   6.170  18.318  0.00  0.00    +0.000 OA
BRANCH   8  14
ATOM      9  C   UNL     1       2.118   3.222  21.644  0.00  0.00    +0.000 C 
ATOM     10  C   UNL     1       2.236   3.785  20.259  0.00  0.00    +0.000 A 
ATOM     11  C   UNL     1       1.314   3.472  19.259  0.00  0.00    +0.000 A 
ATOM     12  C   UNL     1       1.448   4.039  17.992  0.00  0.00    +0.000 A 
ATOM     13  C   UNL     1       2.491   4.931  17.722  0.00  0.00    +0.000 A 
ATOM     14  C   UNL     1       3.423   5.265  18.708  0.00  0.00    +0.000 A 
ATOM     15  C   UNL     1       3.289   4.666  19.964  0.00  0.00    +0.000 A 
ENDBRANCH   8  14
ENDBRANCH   5   8
ENDBRANCH   1   5
BRANCH   3  16
ATOM     16  C   UNL     1       8.242   8.461  17.694  0.00  0.00    +0.000 C 
BRANCH  16  17
ATOM     17  C   UNL     1       8.017   9.918  18.111  0.00  0.00    +0.000 C 
BRANCH  17  18
ATOM     18  C   UNL     1       9.196  10.648  18.721  0.00  0.00    +0.000 A 
ATOM     19  C   UNL     1       9.320  10.869  20.098  0.00  0.00    +0.000 A 
ATOM     20  C   UNL     1      10.420  11.563  20.613  0.00  0.00    +0.000 A 
ATOM     21  C   UNL     1      11.419  12.026  19.760  0.00  0.00    +0.000 A 
ATOM     22  C   UNL     1      11.339  11.764  18.396  0.00  0.00    +0.000 A 
ATOM     23  C   UNL     1      10.242  11.068  17.882  0.00  0.00    +0.000 A 
ENDBRANCH  17  18
ENDBRANCH  16  17
ENDBRANCH   3  16
TORSDOF 6
ENDMDL
MODEL 3
REMARK VINA RESULT:      -7.9      0.363      1.039
REMARK  Name = 
REMARK  9 active torsions:
REMARK  status: ('A' for Active; 'I' for Inactive)
REMARK    1  A    between atoms: C_1  and  C_2
REMARK    2  A    between atoms: C_6  and  O_7
REMARK    3  A    between atoms: O_7  and  C_8
REMARK    4  A    between atoms: C_8  and  C_9
REMARK    5  A    between atoms: C_8  and  C_10
REMARK    6  A    between atoms: C_8  and  C_11
REMARK    7  A    between atoms: N_13  and  C_14
REMARK    8  A    between atoms: C_14  and  C_15
REMARK    9  A    between atoms: C_15  and  C_16
REMARK                            x       y       z     vdW  Elec       q    Type
REMARK                         _______ _______ _______ _____ _____    ______ ____
ROOT
ATOM      1  C   UNL     1       7.200   6.444  17.789  0.00  0.00    +0.000 C 
ATOM      2  O   UNL     1       7.850   5.936  18.700  0.00  0.00    +0.000 OA
ATOM      3  N   UNL     1       7.444   7.744  17.371  0.00  0.00    +0.000 N 
ATOM      4  H   UNL     1       6.713   8.189  16.822  0.00  0.00    +0.000 HD
ENDROOT
BRANCH   1   5
ATOM      5  C   UNL     1       6.151   5.641  16.941  0.00  0.00    +0.000 C 
ATOM      6  C   UNL     1       6.916   5.163  15.687  0.00  0.00    +0.000 C 
ATOM      7  C   UNL     1       5.026   6.655  16.660  0.00  0.00    +0.000 C 
BRANCH   5   8
ATOM      8  O   UNL     1       5.672   4.542  17.740  0.00  0.00    +0.000 OA
BRANCH   8  14
ATOM      9  C   UNL     1       1.707   5.464  20.620  0.00  0.00    +0.000 C 
ATOM     10  C   UNL     1       2.339   4.798  19.433  0.00  0.00    +0.000 A 
ATOM     11  C   UNL     1       1.590   4.036  18.535  0.00  0.00    +0.000 A 
ATOM     12  C   UNL     1       2.214   3.457  17.430  0.00  0.00    +0.000 A 
ATOM     13  C   UNL     1       3.582   3.648  17.209  0.00  0.00    +0.000 A 
ATOM     14  C   UNL     1       4.352   4.413  18.090  0.00  0.00    +0.000 A 
ATOM     15  C   UNL     1       3.715   4.962  19.207  0.00  0.00    +0.000 A 
ENDBRANCH   8  14
ENDBRANCH   5   8
ENDBRANCH   1   5
BRANCH   3  16
ATOM     16  C   UNL     1       8.395   8.568  18.101  0.00  0.00    +0.000 C 
BRANCH  16  17
ATOM     17  C   UNL     1       8.331  10.064  17.774  0.00  0.00    +0.000 C 
BRANCH  17  18
ATOM     18  C   UNL     1       9.228  10.983  18.577  0.00  0.00    +0.000 A 
ATOM     19  C   UNL     1       9.538  10.752  19.923  0.00  0.00    +0.000 A 
ATOM     20  C   UNL     1      10.359  11.638  20.628  0.00  0.00    +0.000 A 
ATOM     21  C   UNL     1      10.896  12.754  19.991  0.00  0.00    +0.000 A 
ATOM     22  C   UNL     1      10.644  12.966  18.639  0.00  0.00    +0.000 A 
ATOM     23  C   UNL     1       9.827  12.079  17.934  0.00  0.00    +0.000 A 
ENDBRANCH  17  18
ENDBRANCH  16  17
ENDBRANCH   3  16
TORSDOF 6
ENDMDL
MODEL 4
REMARK VINA RESULT:      -7.7      0.851      1.875
REMARK  Name = 
REMARK  9 active torsions:
REMARK  status: ('A' for Active; 'I' for Inactive)
REMARK    1  A    between atoms: C_1  and  C_2
REMARK    2  A    between atoms: C_6  and  O_7
REMARK    3  A    between atoms: O_7  and  C_8
REMARK    4  A    between atoms: C_8  and  C_9
REMARK    5  A    between atoms: C_8  and  C_10
REMARK    6  A    between atoms: C_8  and  C_11
REMARK    7  A    between atoms: N_13  and  C_14
REMARK    8  A    between atoms: C_14  and  C_15
REMARK    9  A    between atoms: C_15  and  C_16
REMARK                            x       y       z     vdW  Elec       q    Type
REMARK                         _______ _______ _______ _____ _____    ______ ____
ROOT
ATOM      1  C   UNL     1       6.869   6.311  17.873  0.00  0.00    +0.000 C 
ATOM      2  O   UNL     1       7.830   5.724  18.365  0.00  0.00    +0.000 OA
ATOM      3  N   UNL     1       6.976   7.623  17.435  0.00  0.00    +0.000 N 
ATOM      4  H   UNL     1       6.105   8.129  17.300  0.00  0.00    +0.000 HD
ENDROOT
BRANCH   1   5
ATOM      5  C   UNL     1       5.499   5.603  17.575  0.00  0.00    +0.000 C 
ATOM      6  C   UNL     1       5.749   4.739  16.319  0.00  0.00    +0.000 C 
ATOM      7  C   UNL     1       4.503   6.760  17.372  0.00  0.00    +0.000 C 
BRANCH   5   8
ATOM      8  O   UNL     1       5.144   4.808  18.723  0.00  0.00    +0.000 OA
BRANCH   8  14
ATOM      9  C   UNL     1       0.837   2.295  18.664  0.00  0.00    +0.000 C 
ATOM     10  C   UNL     1       1.679   3.443  19.140  0.00  0.00    +0.000 A 
ATOM     11  C   UNL     1       1.204   4.365  20.073  0.00  0.00    +0.000 A 
ATOM     12  C   UNL     1       2.030   5.401  20.506  0.00  0.00    +0.000 A 
ATOM     13  C   UNL     1       3.338   5.513  20.022  0.00  0.00    +0.000 A 
ATOM     14  C   UNL     1       3.839   4.598  19.092  0.00  0.00    +0.000 A 
ATOM     15  C   UNL     1       2.988   3.582  18.649  0.00  0.00    +0.000 A 
ENDBRANCH   8  14
ENDBRANCH   5   8
ENDBRANCH   1   5
BRANCH   3  16
ATOM     16  C   UNL     1       8.206   8.363  17.675  0.00  0.00    +0.000 C 
BRANCH  16  17
ATOM     17  C   UNL     1       8.010   9.856  17.965  0.00  0.00    +0.000 C 
BRANCH  17  18
ATOM     18  C   UNL     1       9.165  10.587  18.616  0.00  0.00    +0.000 A 
ATOM     19  C   UNL     1       9.269  10.755  20.003  0.00  0.00    +0.000 A 
ATOM     20  C   UNL     1      10.347  11.452  20.557  0.00  0.00    +0.000 A 
ATOM     21  C   UNL     1      11.344  11.972  19.735  0.00  0.00    +0.000 A 
ATOM     22  C   UNL     1      11.284  11.764  18.361  0.00  0.00    +0.000 A 
ATOM     23  C   UNL     1      10.209  11.065  17.807  0.00  0.00    +0.000 A 
ENDBRANCH  17  18
ENDBRANCH  16  17
ENDBRANCH   3  16
TORSDOF 6
ENDMDL
MODEL 5
REMARK VINA RESULT:      -7.7      1.389      2.225
REMARK  Name = 
REMARK  9 active torsions:
REMARK  status: ('A' for Active; 'I' for Inactive)
REMARK    1  A    between atoms: C_1  and  C_2
REMARK    2  A    between atoms: C_6  and  O_7
REMARK    3  A    between atoms: O_7  and  C_8
REMARK    4  A    between atoms: C_8  and  C_9
REMARK    5  A    between atoms: C_8  and  C_10
REMARK    6  A    between atoms: C_8  and  C_11
REMARK    7  A    between atoms: N_13  and  C_14
REMARK    8  A    between atoms: C_14  and  C_15
REMARK    9  A    between atoms: C_15  and  C_16
REMARK                            x       y       z     vdW  Elec       q    Type
REMARK                         _______ _______ _______ _____ _____    ______ ____
ROOT
ATOM      1  C   UNL     1       6.769   6.123  16.851  0.00  0.00    +0.000 C 
ATOM      2  O   UNL     1       7.426   6.055  15.814  0.00  0.00    +0.000 OA
ATOM      3  N   UNL     1       6.869   7.220  17.694  0.00  0.00    +0.000 N 
ATOM      4  H   UNL     1       6.524   7.096  18.642  0.00  0.00    +0.000 HD
ENDROOT
BRANCH   1   5
ATOM      5  C   UNL     1       5.678   5.062  17.239  0.00  0.00    +0.000 C 
ATOM      6  C   UNL     1       6.122   4.498  18.607  0.00  0.00    +0.000 C 
ATOM      7  C   UNL     1       5.706   4.042  16.084  0.00  0.00    +0.000 C 
BRANCH   5   8
ATOM      8  O   UNL     1       4.404   5.730  17.311  0.00  0.00    +0.000 OA
BRANCH   8  14
ATOM      9  C   UNL     1       0.893   2.488  18.732  0.00  0.00    +0.000 C 
ATOM     10  C   UNL     1       1.645   3.772  18.922  0.00  0.00    +0.000 A 
ATOM     11  C   UNL     1       1.414   4.603  20.019  0.00  0.00    +0.000 A 
ATOM     12  C   UNL     1       2.155   5.775  20.169  0.00  0.00    +0.000 A 
ATOM     13  C   UNL     1       3.140   6.114  19.235  0.00  0.00    +0.000 A 
ATOM     14  C   UNL     1       3.395   5.294  18.132  0.00  0.00    +0.000 A 
ATOM     15  C   UNL     1       2.624   4.139  17.983  0.00  0.00    +0.000 A 
ENDBRANCH   8  14
ENDBRANCH   5   8
ENDBRANCH   1   5
BRANCH   3  16
ATOM     16  C   UNL     1       7.858   8.251  17.419  0.00  0.00    +0.000 C 
BRANCH  16  17
ATOM     17  C   UNL     1       8.494   8.877  18.665  0.00  0.00    +0.000 C 
BRANCH  17  18
ATOM     18  C   UNL     1       8.998  10.300  18.539  0.00  0.00    +0.000 A 
ATOM     19  C   UNL     1      10.185  10.739  19.138  0.00  0.00    +0.000 A 
ATOM     20  C   UNL     1      10.601  12.068  19.006  0.00  0.00    +0.000 A 
ATOM     21  C   UNL     1       9.847  12.968  18.257  0.00  0.00    +0.000 A 
ATOM     22  C   UNL     1       8.697  12.532  17.608  0.00  0.00    +0.000 A 
ATOM     23  C   UNL     1       8.283  11.205  17.737  0.00  0.00    +0.000 A 
ENDBRANCH  17  18
ENDBRANCH  16  17
ENDBRANCH   3  16
TORSDOF 6
ENDMDL
MODEL 6
REMARK VINA RESULT:      -7.6      0.853      1.488
REMARK  Name = 
REMARK  9 active torsions:
REMARK  status: ('A' for Active; 'I' for Inactive)
REMARK    1  A    between atoms: C_1  and  C_2
REMARK    2  A    between atoms: C_6  and  O_7
REMARK    3  A    between atoms: O_7  and  C_8
REMARK    4  A    between atoms: C_8  and  C_9
REMARK    5  A    between atoms: C_8  and  C_10
REMARK    6  A    between atoms: C_8  and  C_11
REMARK    7  A    between atoms: N_13  and  C_14
REMARK    8  A    between atoms: C_14  and  C_15
REMARK    9  A    between atoms: C_15  and  C_16
REMARK                            x       y       z     vdW  Elec       q    Type
REMARK                         _______ _______ _______ _____ _____    ______ ____
ROOT
ATOM      1  C   UNL     1       7.267   6.029  18.470  0.00  0.00    +0.000 C 
ATOM      2  O   UNL     1       7.867   5.678  19.484  0.00  0.00    +0.000 OA
ATOM      3  N   UNL     1       7.515   7.258  17.878  0.00  0.00    +0.000 N 
ATOM      4  H   UNL     1       6.813   7.597  17.226  0.00  0.00    +0.000 HD
ENDROOT
BRANCH   1   5
ATOM      5  C   UNL     1       6.287   5.081  17.691  0.00  0.00    +0.000 C 
ATOM      6  C   UNL     1       7.162   4.361  16.640  0.00  0.00    +0.000 C 
ATOM      7  C   UNL     1       5.224   6.027  17.102  0.00  0.00    +0.000 C 
BRANCH   5   8
ATOM      8  O   UNL     1       5.701   4.164  18.634  0.00  0.00    +0.000 OA
BRANCH   8  14
ATOM      9  C   UNL     1       1.083   2.284  18.667  0.00  0.00    +0.000 C 
ATOM     10  C   UNL     1       2.062   3.363  19.027  0.00  0.00    +0.000 A 
ATOM     11  C   UNL     1       1.687   4.469  19.790  0.00  0.00    +0.000 A 
ATOM     12  C   UNL     1       2.636   5.435  20.123  0.00  0.00    +0.000 A 
ATOM     13  C   UNL     1       3.965   5.294  19.709  0.00  0.00    +0.000 A 
ATOM     14  C   UNL     1       4.366   4.192  18.949  0.00  0.00    +0.000 A 
ATOM     15  C   UNL     1       3.396   3.248  18.602  0.00  0.00    +0.000 A 
ENDBRANCH   8  14
ENDBRANCH   5   8
ENDBRANCH   1   5
BRANCH   3  16
ATOM     16  C   UNL     1       8.404   8.206  18.532  0.00  0.00    +0.000 C 
BRANCH  16  17
ATOM     17  C   UNL     1       8.488   9.579  17.855  0.00  0.00    +0.000 C 
BRANCH  17  18
ATOM     18  C   UNL     1       9.315  10.640  18.551  0.00  0.00    +0.000 A 
ATOM     19  C   UNL     1       9.908  11.708  17.865  0.00  0.00    +0.000 A 
ATOM     20  C   UNL     1      10.677  12.655  18.550  0.00  0.00    +0.000 A 
ATOM     21  C   UNL     1      10.844  12.558  19.929  0.00  0.00    +0.000 A 
ATOM     22  C   UNL     1      10.213  11.537  20.631  0.00  0.00    +0.000 A 
ATOM     23  C   UNL     1       9.443  10.592  19.949  0.00  0.00    +0.000 A 
ENDBRANCH  17  18
ENDBRANCH  16  17
ENDBRANCH   3  16
TORSDOF 6
ENDMDL
MODEL 7
REMARK VINA RESULT:      -7.6      1.481      2.117
REMARK  Name = 
REMARK  9 active torsions:
REMARK  status: ('A' for Active; 'I' for Inactive)
REMARK    1  A    between atoms: C_1  and  C_2
REMARK    2  A    between atoms: C_6  and  O_7
REMARK    3  A    between atoms: O_7  and  C_8
REMARK    4  A    between atoms: C_8  and  C_9
REMARK    5  A    between atoms: C_8  and  C_10
REMARK    6  A    between atoms: C_8  and  C_11
REMARK    7  A    between atoms: N_13  and  C_14
REMARK    8  A    between atoms: C_14  and  C_15
REMARK    9  A    between atoms: C_15  and  C_16
REMARK                            x       y       z     vdW  Elec       q    Type
REMARK                         _______ _______ _______ _____ _____    ______ ____
ROOT
ATOM      1  C   UNL     1       6.991   6.831  17.506  0.00  0.00    +0.000 C 
ATOM      2  O   UNL     1       6.335   7.314  16.585  0.00  0.00    +0.000 OA
ATOM      3  N   UNL     1       7.910   7.594  18.211  0.00  0.00    +0.000 N 
ATOM      4  H   UNL     1       8.598   7.085  18.758  0.00  0.00    +0.000 HD
ENDROOT
BRANCH   1   5
ATOM      5  C   UNL     1       6.753   5.377  18.049  0.00  0.00    +0.000 C 
ATOM      6  C   UNL     1       8.090   4.959  18.702  0.00  0.00    +0.000 C 
ATOM      7  C   UNL     1       6.363   4.560  16.803  0.00  0.00    +0.000 C 
BRANCH   5   8
ATOM      8  O   UNL     1       5.672   5.422  19.001  0.00  0.00    +0.000 OA
BRANCH   8  14
ATOM      9  C   UNL     1       2.094   1.966  18.661  0.00  0.00    +0.000 C 
ATOM     10  C   UNL     1       2.576   3.376  18.483  0.00  0.00    +0.000 A 
ATOM     11  C   UNL     1       1.726   4.392  18.045  0.00  0.00    +0.000 A 
ATOM     12  C   UNL     1       2.210   5.694  17.919  0.00  0.00    +0.000 A 
ATOM     13  C   UNL     1       3.539   5.990  18.244  0.00  0.00    +0.000 A 
ATOM     14  C   UNL     1       4.407   4.990  18.692  0.00  0.00    +0.000 A 
ATOM     15  C   UNL     1       3.912   3.687  18.785  0.00  0.00    +0.000 A 
ENDBRANCH   8  14
ENDBRANCH   5   8
ENDBRANCH   1   5
BRANCH   3  16
ATOM     16  C   UNL     1       8.202   8.952  17.776  0.00  0.00    +0.000 C 
BRANCH  16  17
ATOM     17  C   UNL     1       8.981   9.797  18.790  0.00  0.00    +0.000 C 
BRANCH  17  18
ATOM     18  C   UNL     1       9.582  11.093  18.289  0.00  0.00    +0.000 A 
ATOM     19  C   UNL     1       8.802  12.197  17.921  0.00  0.00    +0.000 A 
ATOM     20  C   UNL     1       9.403  13.368  17.449  0.00  0.00    +0.000 A 
ATOM     21  C   UNL     1      10.790  13.458  17.357  0.00  0.00    +0.000 A 
ATOM     22  C   UNL     1      11.579  12.390  17.773  0.00  0.00    +0.000 A 
ATOM     23  C   UNL     1      10.980  11.222  18.248  0.00  0.00    +0.000 A 
ENDBRANCH  17  18
ENDBRANCH  16  17
ENDBRANCH   3  16
TORSDOF 6
ENDMDL
MODEL 8
REMARK VINA RESULT:      -7.5      1.141      1.773
REMARK  Name = 
REMARK  9 active torsions:
REMARK  status: ('A' for Active; 'I' for Inactive)
REMARK    1  A    between atoms: C_1  and  C_2
REMARK    2  A    between atoms: C_6  and  O_7
REMARK    3  A    between atoms: O_7  and  C_8
REMARK    4  A    between atoms: C_8  and  C_9
REMARK    5  A    between atoms: C_8  and  C_10
REMARK    6  A    between atoms: C_8  and  C_11
REMARK    7  A    between atoms: N_13  and  C_14
REMARK    8  A    between atoms: C_14  and  C_15
REMARK    9  A    between atoms: C_15  and  C_16
REMARK                            x       y       z     vdW  Elec       q    Type
REMARK                         _______ _______ _______ _____ _____    ______ ____
ROOT
ATOM      1  C   UNL     1       6.616   6.483  16.861  0.00  0.00    +0.000 C 
ATOM      2  O   UNL     1       7.544   6.029  16.196  0.00  0.00    +0.000 OA
ATOM      3  N   UNL     1       6.716   7.719  17.483  0.00  0.00    +0.000 N 
ATOM      4  H   UNL     1       6.046   7.910  18.223  0.00  0.00    +0.000 HD
ENDROOT
BRANCH   1   5
ATOM      5  C   UNL     1       5.213   5.785  16.953  0.00  0.00    +0.000 C 
ATOM      6  C   UNL     1       5.220   4.705  15.848  0.00  0.00    +0.000 C 
ATOM      7  C   UNL     1       4.200   6.924  16.731  0.00  0.00    +0.000 C 
BRANCH   5   8
ATOM      8  O   UNL     1       5.077   5.217  18.270  0.00  0.00    +0.000 OA
BRANCH   8  14
ATOM      9  C   UNL     1       1.027   2.329  18.617  0.00  0.00    +0.000 C 
ATOM     10  C   UNL     1       1.828   3.521  19.051  0.00  0.00    +0.000 A 
ATOM     11  C   UNL     1       1.411   4.344  20.098  0.00  0.00    +0.000 A 
ATOM     12  C   UNL     1       2.200   5.426  20.485  0.00  0.00    +0.000 A 
ATOM     13  C   UNL     1       3.415   5.683  19.841  0.00  0.00    +0.000 A 
ATOM     14  C   UNL     1       3.857   4.870  18.794  0.00  0.00    +0.000 A 
ATOM     15  C   UNL     1       3.041   3.806  18.401  0.00  0.00    +0.000 A 
ENDBRANCH   8  14
ENDBRANCH   5   8
ENDBRANCH   1   5
BRANCH   3  16
ATOM     16  C   UNL     1       7.981   8.438  17.458  0.00  0.00    +0.000 C 
BRANCH  16  17
ATOM     17  C   UNL     1       8.545   8.790  18.839  0.00  0.00    +0.000 C 
BRANCH  17  18
ATOM     18  C   UNL     1       9.242  10.128  18.976  0.00  0.00    +0.000 A 
ATOM     19  C   UNL     1       9.576  10.924  17.873  0.00  0.00    +0.000 A 
ATOM     20  C   UNL     1      10.234  12.146  18.049  0.00  0.00    +0.000 A 
ATOM     21  C   UNL     1      10.546  12.596  19.329  0.00  0.00    +0.000 A 
ATOM     22  C   UNL     1      10.170  11.844  20.437  0.00  0.00    +0.000 A 
ATOM     23  C   UNL     1       9.510  10.626  20.262  0.00  0.00    +0.000 A 
ENDBRANCH  17  18
ENDBRANCH  16  17
ENDBRANCH   3  16
TORSDOF 6
ENDMDL
MODEL 9
REMARK VINA RESULT:      -7.5      1.476      1.856
REMARK  Name = 
REMARK  9 active torsions:
REMARK  status: ('A' for Active; 'I' for Inactive)
REMARK    1  A    between atoms: C_1  and  C_2
REMARK    2  A    between atoms: C_6  and  O_7
REMARK    3  A    between atoms: O_7  and  C_8
REMARK    4  A    between atoms: C_8  and  C_9
REMARK    5  A    between atoms: C_8  and  C_10
REMARK    6  A    between atoms: C_8  and  C_11
REMARK    7  A    between atoms: N_13  and  C_14
REMARK    8  A    between atoms: C_14  and  C_15
REMARK    9  A    between atoms: C_15  and  C_16
REMARK                            x       y       z     vdW  Elec       q    Type
REMARK                         _______ _______ _______ _____ _____    ______ ____
ROOT
ATOM      1  C   UNL     1       7.346   7.096  17.713  0.00  0.00    +0.000 C 
ATOM      2  O   UNL     1       6.971   7.594  16.653  0.00  0.00    +0.000 OA
ATOM      3  N   UNL     1       8.148   7.804  18.595  0.00  0.00    +0.000 N 
ATOM      4  H   UNL     1       8.639   7.259  19.300  0.00  0.00    +0.000 HD
ENDROOT
BRANCH   1   5
ATOM      5  C   UNL     1       6.848   5.694  18.218  0.00  0.00    +0.000 C 
ATOM      6  C   UNL     1       7.390   5.562  19.659  0.00  0.00    +0.000 C 
ATOM      7  C   UNL     1       7.443   4.690  17.213  0.00  0.00    +0.000 C 
BRANCH   5   8
ATOM      8  O   UNL     1       5.408   5.684  18.173  0.00  0.00    +0.000 OA
BRANCH   8  14
ATOM      9  C   UNL     1       2.769   2.785  21.254  0.00  0.00    +0.000 C 
ATOM     10  C   UNL     1       3.361   3.066  19.904  0.00  0.00    +0.000 A 
ATOM     11  C   UNL     1       3.142   2.221  18.816  0.00  0.00    +0.000 A 
ATOM     12  C   UNL     1       3.690   2.535  17.573  0.00  0.00    +0.000 A 
ATOM     13  C   UNL     1       4.447   3.700  17.407  0.00  0.00    +0.000 A 
ATOM     14  C   UNL     1       4.675   4.566  18.480  0.00  0.00    +0.000 A 
ATOM     15  C   UNL     1       4.141   4.221  19.724  0.00  0.00    +0.000 A 
ENDBRANCH   8  14
ENDBRANCH   5   8
ENDBRANCH   1   5
BRANCH   3  16
ATOM     16  C   UNL     1       8.664   9.109  18.210  0.00  0.00    +0.000 C 
BRANCH  16  17
ATOM     17  C   UNL     1       9.149   9.976  19.377  0.00  0.00    +0.000 C 
BRANCH  17  18
ATOM     18  C   UNL     1      10.176  11.043  19.061  0.00  0.00    +0.000 A 
ATOM     19  C   UNL     1      10.429  11.488  17.757  0.00  0.00    +0.000 A 
ATOM     20  C   UNL     1      11.399  12.465  17.513  0.00  0.00    +0.000 A 
ATOM     21  C   UNL     1      12.114  13.024  18.570  0.00  0.00    +0.000 A 
ATOM     22  C   UNL     1      11.834  12.634  19.875  0.00  0.00    +0.000 A 
ATOM     23  C   UNL     1      10.862  11.660  20.120  0.00  0.00    +0.000 A 
ENDBRANCH  17  18
ENDBRANCH  16  17
ENDBRANCH   3  16
TORSDOF 6
ENDMDL
