MODEL 1
REMARK VINA RESULT:      -7.2      0.000      0.000
REMARK  Name = 
REMARK  7 active torsions:
REMARK  status: ('A' for Active; 'I' for Inactive)
REMARK    1  A    between atoms: C_1  and  C_2
REMARK    2  A    between atoms: C_2  and  O_3
REMARK    3  A    between atoms: O_3  and  C_4
REMARK    4  A    between atoms: C_4  and  C_6
REMARK    5  A    between atoms: C_6  and  C_7
REMARK    6  A    between atoms: C_9  and  C_10
REMARK    7  A    between atoms: C_9  and  C_16
REMARK                            x       y       z     vdW  Elec       q    Type
REMARK                         _______ _______ _______ _____ _____    ______ ____
ROOT
ATOM      1  C   UNL     1       2.959   4.488  18.112  0.00  0.00    +0.000 C 
ATOM      2  C   UNL     1       3.521   5.698  18.385  0.00  0.00    +0.000 C 
ENDROOT
BRANCH   2   3
ATOM      3  C   UNL     1       2.687   6.865  18.780  0.00  0.00    +0.000 A 
ATOM      4  C   UNL     1       2.346   7.838  17.831  0.00  0.00    +0.000 A 
ATOM      5  C   UNL     1       1.592   8.956  18.202  0.00  0.00    +0.000 A 
ATOM      6  C   UNL     1       1.174   9.110  19.522  0.00  0.00    +0.000 A 
ATOM      7  C   UNL     1       1.509   8.149  20.474  0.00  0.00    +0.000 A 
ATOM      8  C   UNL     1       2.257   7.028  20.105  0.00  0.00    +0.000 A 
ENDBRANCH   2   3
BRANCH   2   9
ATOM      9  C   UNL     1       4.996   5.845  18.246  0.00  0.00    +0.000 A 
ATOM     10  C   UNL     1       5.815   5.422  19.305  0.00  0.00    +0.000 A 
ATOM     11  C   UNL     1       7.195   5.622  19.259  0.00  0.00    +0.000 A 
ATOM     12  C   UNL     1       7.772   6.236  18.150  0.00  0.00    +0.000 A 
ATOM     13  C   UNL     1       6.971   6.634  17.079  0.00  0.00    +0.000 A 
ATOM     14  C   UNL     1       5.585   6.440  17.123  0.00  0.00    +0.000 A 
ENDBRANCH   2   9
BRANCH   1  15
ATOM     15  C   UNL     1       1.479   4.303  18.064  0.00  0.00    +0.000 C 
ATOM     16  O   UNL     1       0.795   4.330  17.055  0.00  0.00    +0.000 OA
BRANCH  15  17
ATOM     17  O   UNL     1       0.981   4.135  19.319  0.00  0.00    +0.000 OA
BRANCH  17  19
ATOM     18  C   UNL     1       1.369   2.791  21.233  0.00  0.00    +0.000 C 
ATOM     19  C   UNL     1       0.956   2.773  19.774  0.00  0.00    +0.000 C 
ENDBRANCH  17  19
ENDBRANCH  15  17
ENDBRANCH   1  15
BRANCH   1  20
ATOM     20  C   UNL     1       3.752   3.317  17.887  0.00  0.00    +0.000 C 
ATOM     21  N   UNL     1       4.361   2.348  17.709  0.00  0.00    +0.000 NA
ENDBRANCH   1  20
TORSDOF 6
ENDMDL
MODEL 2
REMARK VINA RESULT:      -7.1      1.676      4.644
REMARK  Name = 
REMARK  7 active torsions:
REMARK  status: ('A' for Active; 'I' for Inactive)
REMARK    1  A    between atoms: C_1  and  C_2
REMARK    2  A    between atoms: C_2  and  O_3
REMARK    3  A    between atoms: O_3  and  C_4
REMARK    4  A    between atoms: C_4  and  C_6
REMARK    5  A    between atoms: C_6  and  C_7
REMARK    6  A    between atoms: C_9  and  C_10
REMARK    7  A    between atoms: C_9  and  C_16
REMARK                            x       y       z     vdW  Elec       q    Type
REMARK                         _______ _______ _______ _____ _____    ______ ____
ROOT
ATOM      1  C   UNL     1       3.307   4.587  17.785  0.00  0.00    +0.000 C 
ATOM      2  C   UNL     1       3.822   5.773  18.216  0.00  0.00    +0.000 C 
ENDROOT
BRANCH   2   3
ATOM      3  C   UNL     1       5.291   5.995  18.289  0.00  0.00    +0.000 A 
ATOM      4  C   UNL     1       6.028   5.471  19.360  0.00  0.00    +0.000 A 
ATOM      5  C   UNL     1       7.404   5.705  19.454  0.00  0.00    +0.000 A 
ATOM      6  C   UNL     1       8.052   6.465  18.482  0.00  0.00    +0.000 A 
ATOM      7  C   UNL     1       7.327   6.992  17.415  0.00  0.00    +0.000 A 
ATOM      8  C   UNL     1       5.953   6.754  17.314  0.00  0.00    +0.000 A 
ENDBRANCH   2   3
BRANCH   2   9
ATOM      9  C   UNL     1       2.879   6.840  18.652  0.00  0.00    +0.000 A 
ATOM     10  C   UNL     1       2.565   7.867  17.748  0.00  0.00    +0.000 A 
ATOM     11  C   UNL     1       1.759   8.937  18.141  0.00  0.00    +0.000 A 
ATOM     12  C   UNL     1       1.251   8.985  19.437  0.00  0.00    +0.000 A 
ATOM     13  C   UNL     1       1.534   7.956  20.335  0.00  0.00    +0.000 A 
ATOM     14  C   UNL     1       2.346   6.883  19.947  0.00  0.00    +0.000 A 
ENDBRANCH   2   9
BRANCH   1  15
ATOM     15  C   UNL     1       4.180   3.414  17.492  0.00  0.00    +0.000 C 
ATOM     16  O   UNL     1       5.087   3.393  16.677  0.00  0.00    +0.000 OA
BRANCH  15  17
ATOM     17  O   UNL     1       3.801   2.342  18.239  0.00  0.00    +0.000 OA
BRANCH  17  19
ATOM     18  C   UNL     1       3.230   2.606  20.526  0.00  0.00    +0.000 C 
ATOM     19  C   UNL     1       4.362   2.306  19.561  0.00  0.00    +0.000 C 
ENDBRANCH  17  19
ENDBRANCH  15  17
ENDBRANCH   1  15
BRANCH   1  20
ATOM     20  C   UNL     1       1.905   4.408  17.557  0.00  0.00    +0.000 C 
ATOM     21  N   UNL     1       0.776   4.223  17.375  0.00  0.00    +0.000 NA
ENDBRANCH   1  20
TORSDOF 6
ENDMDL
MODEL 3
REMARK VINA RESULT:      -7.1      0.054      1.055
REMARK  Name = 
REMARK  7 active torsions:
REMARK  status: ('A' for Active; 'I' for Inactive)
REMARK    1  A    between atoms: C_1  and  C_2
REMARK    2  A    between atoms: C_2  and  O_3
REMARK    3  A    between atoms: O_3  and  C_4
REMARK    4  A    between atoms: C_4  and  C_6
REMARK    5  A    between atoms: C_6  and  C_7
REMARK    6  A    between atoms: C_9  and  C_10
REMARK    7  A    between atoms: C_9  and  C_16
REMARK                            x       y       z     vdW  Elec       q    Type
REMARK                         _______ _______ _______ _____ _____    ______ ____
ROOT
ATOM      1  C   UNL     1       2.967   4.510  18.105  0.00  0.00    +0.000 C 
ATOM      2  C   UNL     1       3.552   5.711  18.375  0.00  0.00    +0.000 C 
ENDROOT
BRANCH   2   3
ATOM      3  C   UNL     1       2.739   6.893  18.767  0.00  0.00    +0.000 A 
ATOM      4  C   UNL     1       2.289   7.028  20.088  0.00  0.00    +0.000 A 
ATOM      5  C   UNL     1       1.495   8.119  20.458  0.00  0.00    +0.000 A 
ATOM      6  C   UNL     1       1.145   9.081  19.512  0.00  0.00    +0.000 A 
ATOM      7  C   UNL     1       1.586   8.954  18.196  0.00  0.00    +0.000 A 
ATOM      8  C   UNL     1       2.385   7.869  17.826  0.00  0.00    +0.000 A 
ENDBRANCH   2   3
BRANCH   2   9
ATOM      9  C   UNL     1       5.029   5.829  18.233  0.00  0.00    +0.000 A 
ATOM     10  C   UNL     1       5.839   5.438  19.310  0.00  0.00    +0.000 A 
ATOM     11  C   UNL     1       7.223   5.615  19.259  0.00  0.00    +0.000 A 
ATOM     12  C   UNL     1       7.810   6.175  18.127  0.00  0.00    +0.000 A 
ATOM     13  C   UNL     1       7.017   6.542  17.039  0.00  0.00    +0.000 A 
ATOM     14  C   UNL     1       5.628   6.370  17.088  0.00  0.00    +0.000 A 
ENDBRANCH   2   9
BRANCH   1  15
ATOM     15  C   UNL     1       1.484   4.353  18.060  0.00  0.00    +0.000 C 
ATOM     16  O   UNL     1       0.798   4.394  17.052  0.00  0.00    +0.000 OA
BRANCH  15  17
ATOM     17  O   UNL     1       0.985   4.190  19.315  0.00  0.00    +0.000 OA
BRANCH  17  19
ATOM     18  C   UNL     1       1.351   2.801  21.201  0.00  0.00    +0.000 C 
ATOM     19  C   UNL     1       0.901   2.825  19.753  0.00  0.00    +0.000 C 
ENDBRANCH  17  19
ENDBRANCH  15  17
ENDBRANCH   1  15
BRANCH   1  20
ATOM     20  C   UNL     1       3.737   3.324  17.883  0.00  0.00    +0.000 C 
ATOM     21  N   UNL     1       4.360   2.357  17.742  0.00  0.00    +0.000 NA
ENDBRANCH   1  20
TORSDOF 6
ENDMDL
MODEL 4
REMARK VINA RESULT:      -7.0      1.671      4.538
REMARK  Name = 
REMARK  7 active torsions:
REMARK  status: ('A' for Active; 'I' for Inactive)
REMARK    1  A    between atoms: C_1  and  C_2
REMARK    2  A    between atoms: C_2  and  O_3
REMARK    3  A    between atoms: O_3  and  C_4
REMARK    4  A    between atoms: C_4  and  C_6
REMARK    5  A    between atoms: C_6  and  C_7
REMARK    6  A    between atoms: C_9  and  C_10
REMARK    7  A    between atoms: C_9  and  C_16
REMARK                            x       y       z     vdW  Elec       q    Type
REMARK                         _______ _______ _______ _____ _____    ______ ____
ROOT
ATOM      1  C   UNL     1       3.317   4.619  17.786  0.00  0.00    +0.000 C 
ATOM      2  C   UNL     1       3.821   5.812  18.209  0.00  0.00    +0.000 C 
ENDROOT
BRANCH   2   3
ATOM      3  C   UNL     1       5.288   6.047  18.287  0.00  0.00    +0.000 A 
ATOM      4  C   UNL     1       5.935   6.784  17.285  0.00  0.00    +0.000 A 
ATOM      5  C   UNL     1       7.319   6.979  17.331  0.00  0.00    +0.000 A 
ATOM      6  C   UNL     1       8.066   6.439  18.377  0.00  0.00    +0.000 A 
ATOM      7  C   UNL     1       7.432   5.704  19.376  0.00  0.00    +0.000 A 
ATOM      8  C   UNL     1       6.048   5.513  19.336  0.00  0.00    +0.000 A 
ENDBRANCH   2   3
BRANCH   2   9
ATOM      9  C   UNL     1       2.868   6.877  18.629  0.00  0.00    +0.000 A 
ATOM     10  C   UNL     1       2.544   7.887  17.711  0.00  0.00    +0.000 A 
ATOM     11  C   UNL     1       1.728   8.955  18.089  0.00  0.00    +0.000 A 
ATOM     12  C   UNL     1       1.219   9.016  19.384  0.00  0.00    +0.000 A 
ATOM     13  C   UNL     1       1.511   8.002  20.297  0.00  0.00    +0.000 A 
ATOM     14  C   UNL     1       2.334   6.932  19.923  0.00  0.00    +0.000 A 
ENDBRANCH   2   9
BRANCH   1  15
ATOM     15  C   UNL     1       4.201   3.449  17.509  0.00  0.00    +0.000 C 
ATOM     16  O   UNL     1       5.083   3.413  16.667  0.00  0.00    +0.000 OA
BRANCH  15  17
ATOM     17  O   UNL     1       3.864   2.400  18.307  0.00  0.00    +0.000 OA
BRANCH  17  19
ATOM     18  C   UNL     1       3.166   2.586  20.565  0.00  0.00    +0.000 C 
ATOM     19  C   UNL     1       4.370   2.483  19.648  0.00  0.00    +0.000 C 
ENDBRANCH  17  19
ENDBRANCH  15  17
ENDBRANCH   1  15
BRANCH   1  20
ATOM     20  C   UNL     1       1.918   4.426  17.552  0.00  0.00    +0.000 C 
ATOM     21  N   UNL     1       0.794   4.265  17.325  0.00  0.00    +0.000 NA
ENDBRANCH   1  20
TORSDOF 6
ENDMDL
MODEL 5
REMARK VINA RESULT:      -7.0      1.980      5.195
REMARK  Name = 
REMARK  7 active torsions:
REMARK  status: ('A' for Active; 'I' for Inactive)
REMARK    1  A    between atoms: C_1  and  C_2
REMARK    2  A    between atoms: C_2  and  O_3
REMARK    3  A    between atoms: O_3  and  C_4
REMARK    4  A    between atoms: C_4  and  C_6
REMARK    5  A    between atoms: C_6  and  C_7
REMARK    6  A    between atoms: C_9  and  C_10
REMARK    7  A    between atoms: C_9  and  C_16
REMARK                            x       y       z     vdW  Elec       q    Type
REMARK                         _______ _______ _______ _____ _____    ______ ____
ROOT
ATOM      1  C   UNL     1       3.344   4.675  17.616  0.00  0.00    +0.000 C 
ATOM      2  C   UNL     1       3.827   5.813  18.187  0.00  0.00    +0.000 C 
ENDROOT
BRANCH   2   3
ATOM      3  C   UNL     1       5.286   6.099  18.224  0.00  0.00    +0.000 A 
ATOM      4  C   UNL     1       6.098   5.488  19.190  0.00  0.00    +0.000 A 
ATOM      5  C   UNL     1       7.464   5.778  19.253  0.00  0.00    +0.000 A 
ATOM      6  C   UNL     1       8.030   6.680  18.355  0.00  0.00    +0.000 A 
ATOM      7  C   UNL     1       7.231   7.294  17.391  0.00  0.00    +0.000 A 
ATOM      8  C   UNL     1       5.867   7.001  17.321  0.00  0.00    +0.000 A 
ENDBRANCH   2   3
BRANCH   2   9
ATOM      9  C   UNL     1       2.862   6.759  18.813  0.00  0.00    +0.000 A 
ATOM     10  C   UNL     1       2.485   7.905  18.096  0.00  0.00    +0.000 A 
ATOM     11  C   UNL     1       1.655   8.865  18.676  0.00  0.00    +0.000 A 
ATOM     12  C   UNL     1       1.186   8.685  19.975  0.00  0.00    +0.000 A 
ATOM     13  C   UNL     1       1.532   7.536  20.688  0.00  0.00    +0.000 A 
ATOM     14  C   UNL     1       2.368   6.572  20.111  0.00  0.00    +0.000 A 
ENDBRANCH   2   9
BRANCH   1  15
ATOM     15  C   UNL     1       4.252   3.601  17.119  0.00  0.00    +0.000 C 
ATOM     16  O   UNL     1       4.539   2.581  17.724  0.00  0.00    +0.000 OA
BRANCH  15  17
ATOM     17  O   UNL     1       4.754   3.930  15.898  0.00  0.00    +0.000 OA
BRANCH  17  19
ATOM     18  C   UNL     1       6.693   4.595  14.707  0.00  0.00    +0.000 C 
ATOM     19  C   UNL     1       6.142   3.607  15.716  0.00  0.00    +0.000 C 
ENDBRANCH  17  19
ENDBRANCH  15  17
ENDBRANCH   1  15
BRANCH   1  20
ATOM     20  C   UNL     1       1.941   4.457  17.428  0.00  0.00    +0.000 C 
ATOM     21  N   UNL     1       0.805   4.264  17.312  0.00  0.00    +0.000 NA
ENDBRANCH   1  20
TORSDOF 6
ENDMDL
MODEL 6
REMARK VINA RESULT:      -7.0      0.112      1.059
REMARK  Name = 
REMARK  7 active torsions:
REMARK  status: ('A' for Active; 'I' for Inactive)
REMARK    1  A    between atoms: C_1  and  C_2
REMARK    2  A    between atoms: C_2  and  O_3
REMARK    3  A    between atoms: O_3  and  C_4
REMARK    4  A    between atoms: C_4  and  C_6
REMARK    5  A    between atoms: C_6  and  C_7
REMARK    6  A    between atoms: C_9  and  C_10
REMARK    7  A    between atoms: C_9  and  C_16
REMARK                            x       y       z     vdW  Elec       q    Type
REMARK                         _______ _______ _______ _____ _____    ______ ____
ROOT
ATOM      1  C   UNL     1       2.934   4.509  18.145  0.00  0.00    +0.000 C 
ATOM      2  C   UNL     1       3.490   5.721  18.428  0.00  0.00    +0.000 C 
ENDROOT
BRANCH   2   3
ATOM      3  C   UNL     1       2.647   6.884  18.817  0.00  0.00    +0.000 A 
ATOM      4  C   UNL     1       2.309   7.855  17.865  0.00  0.00    +0.000 A 
ATOM      5  C   UNL     1       1.547   8.970  18.230  0.00  0.00    +0.000 A 
ATOM      6  C   UNL     1       1.120   9.123  19.548  0.00  0.00    +0.000 A 
ATOM      7  C   UNL     1       1.453   8.164  20.502  0.00  0.00    +0.000 A 
ATOM      8  C   UNL     1       2.208   7.045  20.138  0.00  0.00    +0.000 A 
ENDBRANCH   2   3
BRANCH   2   9
ATOM      9  C   UNL     1       4.966   5.872  18.305  0.00  0.00    +0.000 A 
ATOM     10  C   UNL     1       5.492   6.362  17.100  0.00  0.00    +0.000 A 
ATOM     11  C   UNL     1       6.872   6.435  16.905  0.00  0.00    +0.000 A 
ATOM     12  C   UNL     1       7.739   6.030  17.917  0.00  0.00    +0.000 A 
ATOM     13  C   UNL     1       7.227   5.568  19.130  0.00  0.00    +0.000 A 
ATOM     14  C   UNL     1       5.843   5.488  19.328  0.00  0.00    +0.000 A 
ENDBRANCH   2   9
BRANCH   1  15
ATOM     15  C   UNL     1       1.456   4.320  18.081  0.00  0.00    +0.000 C 
ATOM     16  O   UNL     1       0.784   4.338  17.063  0.00  0.00    +0.000 OA
BRANCH  15  17
ATOM     17  O   UNL     1       0.943   4.160  19.330  0.00  0.00    +0.000 OA
BRANCH  17  19
ATOM     18  C   UNL     1       1.414   2.831  21.237  0.00  0.00    +0.000 C 
ATOM     19  C   UNL     1       0.928   2.802  19.800  0.00  0.00    +0.000 C 
ENDBRANCH  17  19
ENDBRANCH  15  17
ENDBRANCH   1  15
BRANCH   1  20
ATOM     20  C   UNL     1       3.733   3.342  17.926  0.00  0.00    +0.000 C 
ATOM     21  N   UNL     1       4.346   2.375  17.746  0.00  0.00    +0.000 NA
ENDBRANCH   1  20
TORSDOF 6
ENDMDL
MODEL 7
REMARK VINA RESULT:      -7.0      1.949      5.087
REMARK  Name = 
REMARK  7 active torsions:
REMARK  status: ('A' for Active; 'I' for Inactive)
REMARK    1  A    between atoms: C_1  and  C_2
REMARK    2  A    between atoms: C_2  and  O_3
REMARK    3  A    between atoms: O_3  and  C_4
REMARK    4  A    between atoms: C_4  and  C_6
REMARK    5  A    between atoms: C_6  and  C_7
REMARK    6  A    between atoms: C_9  and  C_10
REMARK    7  A    between atoms: C_9  and  C_16
REMARK                            x       y       z     vdW  Elec       q    Type
REMARK                         _______ _______ _______ _____ _____    ______ ____
ROOT
ATOM      1  C   UNL     1       3.291   4.691  17.696  0.00  0.00    +0.000 C 
ATOM      2  C   UNL     1       3.779   5.846  18.230  0.00  0.00    +0.000 C 
ENDROOT
BRANCH   2   3
ATOM      3  C   UNL     1       5.240   6.120  18.271  0.00  0.00    +0.000 A 
ATOM      4  C   UNL     1       5.821   6.974  17.324  0.00  0.00    +0.000 A 
ATOM      5  C   UNL     1       7.200   7.210  17.333  0.00  0.00    +0.000 A 
ATOM      6  C   UNL     1       8.007   6.593  18.287  0.00  0.00    +0.000 A 
ATOM      7  C   UNL     1       7.440   5.740  19.231  0.00  0.00    +0.000 A 
ATOM      8  C   UNL     1       6.061   5.508  19.228  0.00  0.00    +0.000 A 
ENDBRANCH   2   3
BRANCH   2   9
ATOM      9  C   UNL     1       2.816   6.822  18.810  0.00  0.00    +0.000 A 
ATOM     10  C   UNL     1       2.448   7.938  18.043  0.00  0.00    +0.000 A 
ATOM     11  C   UNL     1       1.621   8.927  18.578  0.00  0.00    +0.000 A 
ATOM     12  C   UNL     1       1.145   8.804  19.881  0.00  0.00    +0.000 A 
ATOM     13  C   UNL     1       1.481   7.685  20.644  0.00  0.00    +0.000 A 
ATOM     14  C   UNL     1       2.315   6.693  20.112  0.00  0.00    +0.000 A 
ENDBRANCH   2   9
BRANCH   1  15
ATOM     15  C   UNL     1       4.194   3.591  17.248  0.00  0.00    +0.000 C 
ATOM     16  O   UNL     1       4.520   2.626  17.920  0.00  0.00    +0.000 OA
BRANCH  15  17
ATOM     17  O   UNL     1       4.643   3.829  15.986  0.00  0.00    +0.000 OA
BRANCH  17  19
ATOM     18  C   UNL     1       6.453   4.503  14.612  0.00  0.00    +0.000 C 
ATOM     19  C   UNL     1       6.060   3.669  15.816  0.00  0.00    +0.000 C 
ENDBRANCH  17  19
ENDBRANCH  15  17
ENDBRANCH   1  15
BRANCH   1  20
ATOM     20  C   UNL     1       1.888   4.479  17.501  0.00  0.00    +0.000 C 
ATOM     21  N   UNL     1       0.756   4.326  17.310  0.00  0.00    +0.000 NA
ENDBRANCH   1  20
TORSDOF 6
ENDMDL
MODEL 8
REMARK VINA RESULT:      -6.9      0.136      1.495
REMARK  Name = 
REMARK  7 active torsions:
REMARK  status: ('A' for Active; 'I' for Inactive)
REMARK    1  A    between atoms: C_1  and  C_2
REMARK    2  A    between atoms: C_2  and  O_3
REMARK    3  A    between atoms: O_3  and  C_4
REMARK    4  A    between atoms: C_4  and  C_6
REMARK    5  A    between atoms: C_6  and  C_7
REMARK    6  A    between atoms: C_9  and  C_10
REMARK    7  A    between atoms: C_9  and  C_16
REMARK                            x       y       z     vdW  Elec       q    Type
REMARK                         _______ _______ _______ _____ _____    ______ ____
ROOT
ATOM      1  C   UNL     1       2.952   4.540  18.181  0.00  0.00    +0.000 C 
ATOM      2  C   UNL     1       3.525   5.749  18.433  0.00  0.00    +0.000 C 
ENDROOT
BRANCH   2   3
ATOM      3  C   UNL     1       2.700   6.936  18.786  0.00  0.00    +0.000 A 
ATOM      4  C   UNL     1       2.257   7.117  20.103  0.00  0.00    +0.000 A 
ATOM      5  C   UNL     1       1.451   8.211  20.436  0.00  0.00    +0.000 A 
ATOM      6  C   UNL     1       1.081   9.129  19.455  0.00  0.00    +0.000 A 
ATOM      7  C   UNL     1       1.514   8.957  18.142  0.00  0.00    +0.000 A 
ATOM      8  C   UNL     1       2.325   7.868  17.809  0.00  0.00    +0.000 A 
ENDBRANCH   2   3
BRANCH   2   9
ATOM      9  C   UNL     1       5.004   5.873  18.316  0.00  0.00    +0.000 A 
ATOM     10  C   UNL     1       5.544   6.331  17.104  0.00  0.00    +0.000 A 
ATOM     11  C   UNL     1       6.927   6.378  16.915  0.00  0.00    +0.000 A 
ATOM     12  C   UNL     1       7.782   5.978  17.939  0.00  0.00    +0.000 A 
ATOM     13  C   UNL     1       7.256   5.548  19.158  0.00  0.00    +0.000 A 
ATOM     14  C   UNL     1       5.870   5.495  19.350  0.00  0.00    +0.000 A 
ENDBRANCH   2   9
BRANCH   1  15
ATOM     15  C   UNL     1       1.471   4.372  18.113  0.00  0.00    +0.000 C 
ATOM     16  O   UNL     1       0.801   4.406  17.094  0.00  0.00    +0.000 OA
BRANCH  15  17
ATOM     17  O   UNL     1       0.954   4.212  19.360  0.00  0.00    +0.000 OA
BRANCH  17  19
ATOM     18  C   UNL     1       1.428   2.862  21.251  0.00  0.00    +0.000 C 
ATOM     19  C   UNL     1       0.919   2.852  19.823  0.00  0.00    +0.000 C 
ENDBRANCH  17  19
ENDBRANCH  15  17
ENDBRANCH   1  15
BRANCH   1  20
ATOM     20  C   UNL     1       3.733   3.353  17.998  0.00  0.00    +0.000 C 
ATOM     21  N   UNL     1       4.390   2.415  17.828  0.00  0.00    +0.000 NA
ENDBRANCH   1  20
TORSDOF 6
ENDMDL
MODEL 9
REMARK VINA RESULT:      -6.8      2.170      4.988
REMARK  Name = 
REMARK  7 active torsions:
REMARK  status: ('A' for Active; 'I' for Inactive)
REMARK    1  A    between atoms: C_1  and  C_2
REMARK    2  A    between atoms: C_2  and  O_3
REMARK    3  A    between atoms: O_3  and  C_4
REMARK    4  A    between atoms: C_4  and  C_6
REMARK    5  A    between atoms: C_6  and  C_7
REMARK    6  A    between atoms: C_9  and  C_10
REMARK    7  A    between atoms: C_9  and  C_16
REMARK                            x       y       z     vdW  Elec       q    Type
REMARK                         _______ _______ _______ _____ _____    ______ ____
ROOT
ATOM      1  C   UNL     1       4.318   5.637  18.230  0.00  0.00    +0.000 C 
ATOM      2  C   UNL     1       3.129   5.815  18.872  0.00  0.00    +0.000 C 
ENDROOT
BRANCH   2   3
ATOM      3  C   UNL     1       2.450   4.687  19.564  0.00  0.00    +0.000 A 
ATOM      4  C   UNL     1       1.492   3.921  18.885  0.00  0.00    +0.000 A 
ATOM      5  C   UNL     1       0.823   2.881  19.539  0.00  0.00    +0.000 A 
ATOM      6  C   UNL     1       1.105   2.600  20.874  0.00  0.00    +0.000 A 
ATOM      7  C   UNL     1       2.054   3.357  21.559  0.00  0.00    +0.000 A 
ATOM      8  C   UNL     1       2.729   4.392  20.905  0.00  0.00    +0.000 A 
ENDBRANCH   2   3
BRANCH   2   9
ATOM      9  C   UNL     1       2.497   7.163  18.837  0.00  0.00    +0.000 A 
ATOM     10  C   UNL     1       2.006   7.704  20.035  0.00  0.00    +0.000 A 
ATOM     11  C   UNL     1       1.326   8.922  20.038  0.00  0.00    +0.000 A 
ATOM     12  C   UNL     1       1.139   9.617  18.845  0.00  0.00    +0.000 A 
ATOM     13  C   UNL     1       1.647   9.102  17.652  0.00  0.00    +0.000 A 
ATOM     14  C   UNL     1       2.327   7.877  17.644  0.00  0.00    +0.000 A 
ENDBRANCH   2   9
BRANCH   1  15
ATOM     15  C   UNL     1       4.931   4.286  18.075  0.00  0.00    +0.000 C 
ATOM     16  O   UNL     1       5.611   3.717  18.912  0.00  0.00    +0.000 OA
BRANCH  15  17
ATOM     17  O   UNL     1       4.656   3.779  16.842  0.00  0.00    +0.000 OA
BRANCH  17  19
ATOM     18  C   UNL     1       5.478   4.554  14.757  0.00  0.00    +0.000 C 
ATOM     19  C   UNL     1       5.791   3.692  15.966  0.00  0.00    +0.000 C 
ENDBRANCH  17  19
ENDBRANCH  15  17
ENDBRANCH   1  15
BRANCH   1  20
ATOM     20  C   UNL     1       5.064   6.737  17.698  0.00  0.00    +0.000 C 
ATOM     21  N   UNL     1       5.699   7.612  17.284  0.00  0.00    +0.000 NA
ENDBRANCH   1  20
TORSDOF 6
ENDMDL
