MODEL 1
REMARK VINA RESULT:      -8.9      0.000      0.000
REMARK  Name = 
REMARK  4 active torsions:
REMARK  status: ('A' for Active; 'I' for Inactive)
REMARK    1  A    between atoms: N_3  and  C_4
REMARK    2  A    between atoms: C_4  and  C_5
REMARK    3  A    between atoms: N_7  and  C_8
REMARK    4  A    between atoms: C_8  and  C_9
REMARK                            x       y       z     vdW  Elec       q    Type
REMARK                         _______ _______ _______ _____ _____    ______ ____
ROOT
ATOM      1  C   UNL     1       3.601   5.808  18.244  0.00  0.00    +0.000 C 
ATOM      2  C   UNL     1       2.938   4.704  17.397  0.00  0.00    +0.000 C 
ATOM      3  N   UNL     1       3.985   3.735  17.050  0.00  0.00    +0.000 NA
ATOM      4  C   UNL     1       5.169   4.577  16.855  0.00  0.00    +0.000 C 
ATOM      5  C   UNL     1       5.128   5.714  17.906  0.00  0.00    +0.000 C 
ATOM      6  C   UNL     1       5.768   6.997  17.319  0.00  0.00    +0.000 C 
ATOM      7  C   UNL     1       7.278   6.850  17.155  0.00  0.00    +0.000 C 
ATOM      8  O   UNL     1       7.886   6.581  18.417  0.00  0.00    +0.000 OA
ATOM      9  C   UNL     1       7.435   5.352  18.976  0.00  0.00    +0.000 C 
ATOM     10  C   UNL     1       5.926   5.373  19.194  0.00  0.00    +0.000 C 
ENDROOT
BRANCH   1  11
ATOM     11  C   UNL     1       2.939   7.173  17.997  0.00  0.00    +0.000 C 
BRANCH  11  14
ATOM     12  O   UNL     1       1.549   9.581  18.097  0.00  0.00    +0.000 OA
ATOM     13  C   UNL     1       1.613   8.905  19.123  0.00  0.00    +0.000 C 
ATOM     14  N   UNL     1       2.306   7.724  19.182  0.00  0.00    +0.000 N 
ATOM     15  N   UNL     1       1.001   9.279  20.291  0.00  0.00    +0.000 N 
ATOM     16  C   UNL     1       1.105   8.679  21.607  0.00  0.00    +0.000 C 
ATOM     17  C   UNL     1      -0.195   9.097  22.271  0.00  0.00    +0.000 C 
ATOM     18  C   UNL     1      -0.500  10.472  21.678  0.00  0.00    +0.000 C 
ATOM     19  C   UNL     1       0.303  10.544  20.383  0.00  0.00    +0.000 C 
ATOM     20  H   UNL     1       1.916   7.048  19.816  0.00  0.00    +0.000 HD
ENDBRANCH  11  14
ENDBRANCH   1  11
BRANCH   3  21
ATOM     21  C   UNL     1       4.108   2.670  18.057  0.00  0.00    +0.000 C 
BRANCH  21  22
ATOM     22  C   UNL     1       3.056   2.688  19.151  0.00  0.00    +0.000 A 
ATOM     23  C   UNL     1       3.420   2.869  20.494  0.00  0.00    +0.000 A 
ATOM     24  C   UNL     1       2.452   2.952  21.498  0.00  0.00    +0.000 A 
ATOM     25  C   UNL     1       1.097   2.869  21.174  0.00  0.00    +0.000 A 
ATOM     26  C   UNL     1       0.720   2.692  19.845  0.00  0.00    +0.000 A 
ATOM     27  C   UNL     1       1.690   2.592  18.842  0.00  0.00    +0.000 A 
ENDBRANCH  21  22
ENDBRANCH   3  21
TORSDOF 4
ENDMDL
MODEL 2
REMARK VINA RESULT:      -8.8      2.636      7.328
REMARK  Name = 
REMARK  4 active torsions:
REMARK  status: ('A' for Active; 'I' for Inactive)
REMARK    1  A    between atoms: N_3  and  C_4
REMARK    2  A    between atoms: C_4  and  C_5
REMARK    3  A    between atoms: N_7  and  C_8
REMARK    4  A    between atoms: C_8  and  C_9
REMARK                            x       y       z     vdW  Elec       q    Type
REMARK                         _______ _______ _______ _____ _____    ______ ____
ROOT
ATOM      1  C   UNL     1       4.567   4.836  18.887  0.00  0.00    +0.000 C 
ATOM      2  C   UNL     1       4.344   6.178  18.162  0.00  0.00    +0.000 C 
ATOM      3  N   UNL     1       2.919   6.509  18.289  0.00  0.00    +0.000 NA
ATOM      4  C   UNL     1       2.263   5.200  18.207  0.00  0.00    +0.000 C 
ATOM      5  C   UNL     1       3.150   4.171  18.950  0.00  0.00    +0.000 C 
ATOM      6  C   UNL     1       3.026   2.783  18.273  0.00  0.00    +0.000 C 
ATOM      7  C   UNL     1       1.653   2.161  18.508  0.00  0.00    +0.000 C 
ATOM      8  O   UNL     1       1.418   2.001  19.906  0.00  0.00    +0.000 OA
ATOM      9  C   UNL     1       1.401   3.249  20.590  0.00  0.00    +0.000 C 
ATOM     10  C   UNL     1       2.732   3.976  20.434  0.00  0.00    +0.000 C 
ENDROOT
BRANCH   1  11
ATOM     11  C   UNL     1       5.669   4.010  18.204  0.00  0.00    +0.000 C 
BRANCH  11  14
ATOM     12  O   UNL     1       7.693   4.875  16.502  0.00  0.00    +0.000 OA
ATOM     13  C   UNL     1       6.654   4.449  15.999  0.00  0.00    +0.000 C 
ATOM     14  N   UNL     1       5.587   4.037  16.755  0.00  0.00    +0.000 N 
ATOM     15  N   UNL     1       6.476   4.358  14.643  0.00  0.00    +0.000 N 
ATOM     16  C   UNL     1       5.275   4.026  13.901  0.00  0.00    +0.000 C 
ATOM     17  C   UNL     1       5.825   3.490  12.592  0.00  0.00    +0.000 C 
ATOM     18  C   UNL     1       7.108   4.289  12.363  0.00  0.00    +0.000 C 
ATOM     19  C   UNL     1       7.497   4.835  13.734  0.00  0.00    +0.000 C 
ATOM     20  H   UNL     1       5.050   3.295  16.339  0.00  0.00    +0.000 HD
ENDBRANCH  11  14
ENDBRANCH   1  11
BRANCH   3  21
ATOM     21  C   UNL     1       2.640   7.296  19.500  0.00  0.00    +0.000 C 
BRANCH  21  22
ATOM     22  C   UNL     1       1.644   8.429  19.320  0.00  0.00    +0.000 A 
ATOM     23  C   UNL     1       1.383   8.959  18.048  0.00  0.00    +0.000 A 
ATOM     24  C   UNL     1       0.420   9.956  17.867  0.00  0.00    +0.000 A 
ATOM     25  C   UNL     1      -0.308  10.433  18.957  0.00  0.00    +0.000 A 
ATOM     26  C   UNL     1      -0.061   9.914  20.226  0.00  0.00    +0.000 A 
ATOM     27  C   UNL     1       0.914   8.929  20.410  0.00  0.00    +0.000 A 
ENDBRANCH  21  22
ENDBRANCH   3  21
TORSDOF 4
ENDMDL
MODEL 3
REMARK VINA RESULT:      -8.6      0.650      1.138
REMARK  Name = 
REMARK  4 active torsions:
REMARK  status: ('A' for Active; 'I' for Inactive)
REMARK    1  A    between atoms: N_3  and  C_4
REMARK    2  A    between atoms: C_4  and  C_5
REMARK    3  A    between atoms: N_7  and  C_8
REMARK    4  A    between atoms: C_8  and  C_9
REMARK                            x       y       z     vdW  Elec       q    Type
REMARK                         _______ _______ _______ _____ _____    ______ ____
ROOT
ATOM      1  C   UNL     1       3.595   5.646  18.055  0.00  0.00    +0.000 C 
ATOM      2  C   UNL     1       2.599   4.628  17.466  0.00  0.00    +0.000 C 
ATOM      3  N   UNL     1       3.385   3.496  16.957  0.00  0.00    +0.000 NA
ATOM      4  C   UNL     1       4.595   4.137  16.434  0.00  0.00    +0.000 C 
ATOM      5  C   UNL     1       4.968   5.304  17.381  0.00  0.00    +0.000 C 
ATOM      6  C   UNL     1       5.624   6.451  16.571  0.00  0.00    +0.000 C 
ATOM      7  C   UNL     1       7.014   6.066  16.074  0.00  0.00    +0.000 C 
ATOM      8  O   UNL     1       7.862   5.752  17.177  0.00  0.00    +0.000 OA
ATOM      9  C   UNL     1       7.388   4.629  17.913  0.00  0.00    +0.000 C 
ATOM     10  C   UNL     1       5.994   4.891  18.471  0.00  0.00    +0.000 C 
ENDROOT
BRANCH   1  11
ATOM     11  C   UNL     1       3.093   7.087  17.869  0.00  0.00    +0.000 C 
BRANCH  11  14
ATOM     12  O   UNL     1       1.728   9.509  17.976  0.00  0.00    +0.000 OA
ATOM     13  C   UNL     1       1.725   8.796  18.979  0.00  0.00    +0.000 C 
ATOM     14  N   UNL     1       2.400   7.605  19.035  0.00  0.00    +0.000 N 
ATOM     15  N   UNL     1       1.051   9.138  20.123  0.00  0.00    +0.000 N 
ATOM     16  C   UNL     1       1.073   8.491  21.421  0.00  0.00    +0.000 C 
ATOM     17  C   UNL     1      -0.258   8.903  22.024  0.00  0.00    +0.000 C 
ATOM     18  C   UNL     1      -0.513  10.302  21.464  0.00  0.00    +0.000 C 
ATOM     19  C   UNL     1       0.364  10.408  20.220  0.00  0.00    +0.000 C 
ATOM     20  H   UNL     1       1.966   6.912  19.622  0.00  0.00    +0.000 HD
ENDBRANCH  11  14
ENDBRANCH   1  11
BRANCH   3  21
ATOM     21  C   UNL     1       3.593   2.462  17.982  0.00  0.00    +0.000 C 
BRANCH  21  22
ATOM     22  C   UNL     1       2.779   2.637  19.253  0.00  0.00    +0.000 A 
ATOM     23  C   UNL     1       1.378   2.665  19.208  0.00  0.00    +0.000 A 
ATOM     24  C   UNL     1       0.621   2.760  20.379  0.00  0.00    +0.000 A 
ATOM     25  C   UNL     1       1.256   2.814  21.620  0.00  0.00    +0.000 A 
ATOM     26  C   UNL     1       2.647   2.784  21.680  0.00  0.00    +0.000 A 
ATOM     27  C   UNL     1       3.404   2.707  20.508  0.00  0.00    +0.000 A 
ENDBRANCH  21  22
ENDBRANCH   3  21
TORSDOF 4
ENDMDL
MODEL 4
REMARK VINA RESULT:      -8.1      2.541      5.171
REMARK  Name = 
REMARK  4 active torsions:
REMARK  status: ('A' for Active; 'I' for Inactive)
REMARK    1  A    between atoms: N_3  and  C_4
REMARK    2  A    between atoms: C_4  and  C_5
REMARK    3  A    between atoms: N_7  and  C_8
REMARK    4  A    between atoms: C_8  and  C_9
REMARK                            x       y       z     vdW  Elec       q    Type
REMARK                         _______ _______ _______ _____ _____    ______ ____
ROOT
ATOM      1  C   UNL     1       2.350   6.119  19.006  0.00  0.00    +0.000 C 
ATOM      2  C   UNL     1       3.740   6.378  18.392  0.00  0.00    +0.000 C 
ATOM      3  N   UNL     1       4.386   5.072  18.214  0.00  0.00    +0.000 NA
ATOM      4  C   UNL     1       3.927   4.309  19.379  0.00  0.00    +0.000 C 
ATOM      5  C   UNL     1       2.455   4.698  19.658  0.00  0.00    +0.000 C 
ATOM      6  C   UNL     1       2.172   4.633  21.180  0.00  0.00    +0.000 C 
ATOM      7  C   UNL     1       2.161   3.195  21.690  0.00  0.00    +0.000 C 
ATOM      8  O   UNL     1       1.159   2.439  21.014  0.00  0.00    +0.000 OA
ATOM      9  C   UNL     1       1.408   2.353  19.615  0.00  0.00    +0.000 C 
ATOM     10  C   UNL     1       1.440   3.739  18.979  0.00  0.00    +0.000 C 
ENDROOT
BRANCH   1  11
ATOM     11  C   UNL     1       1.934   7.262  19.945  0.00  0.00    +0.000 C 
BRANCH  11  14
ATOM     12  O   UNL     1       0.091   9.303  20.371  0.00  0.00    +0.000 OA
ATOM     13  C   UNL     1       1.033   9.521  19.610  0.00  0.00    +0.000 C 
ATOM     14  N   UNL     1       1.969   8.567  19.308  0.00  0.00    +0.000 N 
ATOM     15  N   UNL     1       1.219  10.733  18.997  0.00  0.00    +0.000 N 
ATOM     16  C   UNL     1       2.178  11.099  17.972  0.00  0.00    +0.000 C 
ATOM     17  C   UNL     1       2.320  12.597  18.163  0.00  0.00    +0.000 C 
ATOM     18  C   UNL     1       0.938  13.054  18.631  0.00  0.00    +0.000 C 
ATOM     19  C   UNL     1       0.257  11.800  19.171  0.00  0.00    +0.000 C 
ATOM     20  H   UNL     1       2.888   8.934  19.128  0.00  0.00    +0.000 HD
ENDBRANCH  11  14
ENDBRANCH   1  11
BRANCH   3  21
ATOM     21  C   UNL     1       4.089   4.483  16.899  0.00  0.00    +0.000 C 
BRANCH  21  22
ATOM     22  C   UNL     1       5.235   4.514  15.902  0.00  0.00    +0.000 A 
ATOM     23  C   UNL     1       5.073   3.996  14.609  0.00  0.00    +0.000 A 
ATOM     24  C   UNL     1       6.101   4.080  13.665  0.00  0.00    +0.000 A 
ATOM     25  C   UNL     1       7.307   4.697  13.997  0.00  0.00    +0.000 A 
ATOM     26  C   UNL     1       7.481   5.219  15.277  0.00  0.00    +0.000 A 
ATOM     27  C   UNL     1       6.459   5.119  16.225  0.00  0.00    +0.000 A 
ENDBRANCH  21  22
ENDBRANCH   3  21
TORSDOF 4
ENDMDL
MODEL 5
REMARK VINA RESULT:      -8.1      2.695      5.264
REMARK  Name = 
REMARK  4 active torsions:
REMARK  status: ('A' for Active; 'I' for Inactive)
REMARK    1  A    between atoms: N_3  and  C_4
REMARK    2  A    between atoms: C_4  and  C_5
REMARK    3  A    between atoms: N_7  and  C_8
REMARK    4  A    between atoms: C_8  and  C_9
REMARK                            x       y       z     vdW  Elec       q    Type
REMARK                         _______ _______ _______ _____ _____    ______ ____
ROOT
ATOM      1  C   UNL     1       3.338   5.907  18.050  0.00  0.00    +0.000 C 
ATOM      2  C   UNL     1       4.690   6.016  17.317  0.00  0.00    +0.000 C 
ATOM      3  N   UNL     1       5.065   4.660  16.894  0.00  0.00    +0.000 NA
ATOM      4  C   UNL     1       4.582   3.820  17.995  0.00  0.00    +0.000 C 
ATOM      5  C   UNL     1       3.238   4.408  18.492  0.00  0.00    +0.000 C 
ATOM      6  C   UNL     1       3.088   4.163  20.015  0.00  0.00    +0.000 C 
ATOM      7  C   UNL     1       2.859   2.688  20.330  0.00  0.00    +0.000 C 
ATOM      8  O   UNL     1       1.676   2.224  19.682  0.00  0.00    +0.000 OA
ATOM      9  C   UNL     1       1.776   2.307  18.264  0.00  0.00    +0.000 C 
ATOM     10  C   UNL     1       2.005   3.747  17.817  0.00  0.00    +0.000 C 
ENDROOT
BRANCH   1  11
ATOM     11  C   UNL     1       3.228   6.950  19.173  0.00  0.00    +0.000 C 
BRANCH  11  14
ATOM     12  O   UNL     1       1.564   8.061  21.107  0.00  0.00    +0.000 OA
ATOM     13  C   UNL     1       1.462   8.467  19.950  0.00  0.00    +0.000 C 
ATOM     14  N   UNL     1       2.210   7.954  18.923  0.00  0.00    +0.000 N 
ATOM     15  N   UNL     1       0.586   9.460  19.594  0.00  0.00    +0.000 N 
ATOM     16  C   UNL     1       0.242   9.939  18.268  0.00  0.00    +0.000 C 
ATOM     17  C   UNL     1      -0.232  11.356  18.536  0.00  0.00    +0.000 C 
ATOM     18  C   UNL     1      -0.885  11.285  19.916  0.00  0.00    +0.000 C 
ATOM     19  C   UNL     1      -0.317  10.030  20.571  0.00  0.00    +0.000 C 
ATOM     20  H   UNL     1       2.429   8.619  18.200  0.00  0.00    +0.000 HD
ENDBRANCH  11  14
ENDBRANCH   1  11
BRANCH   3  21
ATOM     21  C   UNL     1       4.545   4.335  15.557  0.00  0.00    +0.000 C 
BRANCH  21  22
ATOM     22  C   UNL     1       5.582   4.310  14.448  0.00  0.00    +0.000 A 
ATOM     23  C   UNL     1       5.357   3.578  13.272  0.00  0.00    +0.000 A 
ATOM     24  C   UNL     1       6.277   3.603  12.220  0.00  0.00    +0.000 A 
ATOM     25  C   UNL     1       7.436   4.373  12.322  0.00  0.00    +0.000 A 
ATOM     26  C   UNL     1       7.672   5.106  13.483  0.00  0.00    +0.000 A 
ATOM     27  C   UNL     1       6.760   5.068  14.541  0.00  0.00    +0.000 A 
ENDBRANCH  21  22
ENDBRANCH   3  21
TORSDOF 4
ENDMDL
MODEL 6
REMARK VINA RESULT:      -8.0      2.788      7.307
REMARK  Name = 
REMARK  4 active torsions:
REMARK  status: ('A' for Active; 'I' for Inactive)
REMARK    1  A    between atoms: N_3  and  C_4
REMARK    2  A    between atoms: C_4  and  C_5
REMARK    3  A    between atoms: N_7  and  C_8
REMARK    4  A    between atoms: C_8  and  C_9
REMARK                            x       y       z     vdW  Elec       q    Type
REMARK                         _______ _______ _______ _____ _____    ______ ____
ROOT
ATOM      1  C   UNL     1       5.023   5.185  18.392  0.00  0.00    +0.000 C 
ATOM      2  C   UNL     1       4.356   6.435  17.786  0.00  0.00    +0.000 C 
ATOM      3  N   UNL     1       2.905   6.280  17.958  0.00  0.00    +0.000 NA
ATOM      4  C   UNL     1       2.699   4.840  17.773  0.00  0.00    +0.000 C 
ATOM      5  C   UNL     1       3.896   4.097  18.415  0.00  0.00    +0.000 C 
ATOM      6  C   UNL     1       4.196   2.799  17.624  0.00  0.00    +0.000 C 
ATOM      7  C   UNL     1       3.105   1.752  17.823  0.00  0.00    +0.000 C 
ATOM      8  O   UNL     1       2.987   1.419  19.204  0.00  0.00    +0.000 OA
ATOM      9  C   UNL     1       2.599   2.539  19.992  0.00  0.00    +0.000 C 
ATOM     10  C   UNL     1       3.621   3.665  19.882  0.00  0.00    +0.000 C 
ENDROOT
BRANCH   1  11
ATOM     11  C   UNL     1       6.304   4.812  17.628  0.00  0.00    +0.000 C 
BRANCH  11  14
ATOM     12  O   UNL     1       7.918   5.649  15.521  0.00  0.00    +0.000 OA
ATOM     13  C   UNL     1       6.942   4.947  15.261  0.00  0.00    +0.000 C 
ATOM     14  N   UNL     1       6.067   4.518  16.225  0.00  0.00    +0.000 N 
ATOM     15  N   UNL     1       6.645   4.541  13.985  0.00  0.00    +0.000 N 
ATOM     16  C   UNL     1       5.466   3.849  13.499  0.00  0.00    +0.000 C 
ATOM     17  C   UNL     1       5.975   3.158  12.248  0.00  0.00    +0.000 C 
ATOM     18  C   UNL     1       7.035   4.108  11.692  0.00  0.00    +0.000 C 
ATOM     19  C   UNL     1       7.445   4.992  12.866  0.00  0.00    +0.000 C 
ATOM     20  H   UNL     1       5.653   3.621  16.037  0.00  0.00    +0.000 HD
ENDBRANCH  11  14
ENDBRANCH   1  11
BRANCH   3  21
ATOM     21  C   UNL     1       2.437   6.841  19.234  0.00  0.00    +0.000 C 
BRANCH  21  22
ATOM     22  C   UNL     1       1.829   8.230  19.147  0.00  0.00    +0.000 A 
ATOM     23  C   UNL     1       1.386   8.892  20.301  0.00  0.00    +0.000 A 
ATOM     24  C   UNL     1       0.886  10.196  20.237  0.00  0.00    +0.000 A 
ATOM     25  C   UNL     1       0.834  10.866  19.014  0.00  0.00    +0.000 A 
ATOM     26  C   UNL     1       1.274  10.222  17.860  0.00  0.00    +0.000 A 
ATOM     27  C   UNL     1       1.757   8.912  17.922  0.00  0.00    +0.000 A 
ENDBRANCH  21  22
ENDBRANCH   3  21
TORSDOF 4
ENDMDL
MODEL 7
REMARK VINA RESULT:      -8.0      2.449      5.100
REMARK  Name = 
REMARK  4 active torsions:
REMARK  status: ('A' for Active; 'I' for Inactive)
REMARK    1  A    between atoms: N_3  and  C_4
REMARK    2  A    between atoms: C_4  and  C_5
REMARK    3  A    between atoms: N_7  and  C_8
REMARK    4  A    between atoms: C_8  and  C_9
REMARK                            x       y       z     vdW  Elec       q    Type
REMARK                         _______ _______ _______ _____ _____    ______ ____
ROOT
ATOM      1  C   UNL     1       2.626   6.178  19.055  0.00  0.00    +0.000 C 
ATOM      2  C   UNL     1       4.043   6.261  18.453  0.00  0.00    +0.000 C 
ATOM      3  N   UNL     1       4.476   4.885  18.174  0.00  0.00    +0.000 NA
ATOM      4  C   UNL     1       3.897   4.120  19.282  0.00  0.00    +0.000 C 
ATOM      5  C   UNL     1       2.503   4.714  19.599  0.00  0.00    +0.000 C 
ATOM      6  C   UNL     1       2.206   4.582  21.114  0.00  0.00    +0.000 C 
ATOM      7  C   UNL     1       1.967   3.130  21.517  0.00  0.00    +0.000 C 
ATOM      8  O   UNL     1       0.861   2.593  20.794  0.00  0.00    +0.000 OA
ATOM      9  C   UNL     1       1.100   2.572  19.391  0.00  0.00    +0.000 C 
ATOM     10  C   UNL     1       1.353   3.979  18.858  0.00  0.00    +0.000 C 
ENDROOT
BRANCH   1  11
ATOM     11  C   UNL     1       2.391   7.300  20.079  0.00  0.00    +0.000 C 
BRANCH  11  14
ATOM     12  O   UNL     1       1.044   9.091  21.728  0.00  0.00    +0.000 OA
ATOM     13  C   UNL     1       0.846   9.158  20.515  0.00  0.00    +0.000 C 
ATOM     14  N   UNL     1       1.434   8.294  19.628  0.00  0.00    +0.000 N 
ATOM     15  N   UNL     1       0.018  10.095  19.954  0.00  0.00    +0.000 N 
ATOM     16  C   UNL     1      -0.431  10.209  18.580  0.00  0.00    +0.000 C 
ATOM     17  C   UNL     1      -0.758  11.685  18.454  0.00  0.00    +0.000 C 
ATOM     18  C   UNL     1      -1.259  12.084  19.842  0.00  0.00    +0.000 C 
ATOM     19  C   UNL     1      -0.724  11.015  20.790  0.00  0.00    +0.000 C 
ATOM     20  H   UNL     1       1.623   8.697  18.725  0.00  0.00    +0.000 HD
ENDBRANCH  11  14
ENDBRANCH   1  11
BRANCH   3  21
ATOM     21  C   UNL     1       4.097   4.450  16.821  0.00  0.00    +0.000 C 
BRANCH  21  22
ATOM     22  C   UNL     1       5.219   4.462  15.798  0.00  0.00    +0.000 A 
ATOM     23  C   UNL     1       5.023   3.937  14.512  0.00  0.00    +0.000 A 
ATOM     24  C   UNL     1       6.030   4.004  13.545  0.00  0.00    +0.000 A 
ATOM     25  C   UNL     1       7.250   4.611  13.845  0.00  0.00    +0.000 A 
ATOM     26  C   UNL     1       7.458   5.139  15.118  0.00  0.00    +0.000 A 
ATOM     27  C   UNL     1       6.457   5.056  16.090  0.00  0.00    +0.000 A 
ENDBRANCH  21  22
ENDBRANCH   3  21
TORSDOF 4
ENDMDL
MODEL 8
REMARK VINA RESULT:      -8.0      2.691      5.171
REMARK  Name = 
REMARK  4 active torsions:
REMARK  status: ('A' for Active; 'I' for Inactive)
REMARK    1  A    between atoms: N_3  and  C_4
REMARK    2  A    between atoms: C_4  and  C_5
REMARK    3  A    between atoms: N_7  and  C_8
REMARK    4  A    between atoms: C_8  and  C_9
REMARK                            x       y       z     vdW  Elec       q    Type
REMARK                         _______ _______ _______ _____ _____    ______ ____
ROOT
ATOM      1  C   UNL     1       2.991   6.845  17.525  0.00  0.00    +0.000 C 
ATOM      2  C   UNL     1       4.435   6.671  17.015  0.00  0.00    +0.000 C 
ATOM      3  N   UNL     1       4.817   5.274  17.257  0.00  0.00    +0.000 NA
ATOM      4  C   UNL     1       4.154   4.961  18.528  0.00  0.00    +0.000 C 
ATOM      5  C   UNL     1       2.776   5.668  18.537  0.00  0.00    +0.000 C 
ATOM      6  C   UNL     1       2.406   6.082  19.983  0.00  0.00    +0.000 C 
ATOM      7  C   UNL     1       2.082   4.870  20.852  0.00  0.00    +0.000 C 
ATOM      8  O   UNL     1       0.986   4.145  20.298  0.00  0.00    +0.000 OA
ATOM      9  C   UNL     1       1.286   3.628  19.006  0.00  0.00    +0.000 C 
ATOM     10  C   UNL     1       1.627   4.752  18.033  0.00  0.00    +0.000 C 
ENDROOT
BRANCH   1  11
ATOM     11  C   UNL     1       2.763   8.260  18.080  0.00  0.00    +0.000 C 
BRANCH  11  14
ATOM     12  O   UNL     1       1.348   9.952  19.776  0.00  0.00    +0.000 OA
ATOM     13  C   UNL     1       0.821   9.620  18.716  0.00  0.00    +0.000 C 
ATOM     14  N   UNL     1       1.422   8.760  17.834  0.00  0.00    +0.000 N 
ATOM     15  N   UNL     1      -0.414  10.077  18.333  0.00  0.00    +0.000 N 
ATOM     16  C   UNL     1      -1.227   9.669  17.203  0.00  0.00    +0.000 C 
ATOM     17  C   UNL     1      -2.098  10.887  16.958  0.00  0.00    +0.000 C 
ATOM     18  C   UNL     1      -2.316  11.485  18.348  0.00  0.00    +0.000 C 
ATOM     19  C   UNL     1      -1.188  10.928  19.212  0.00  0.00    +0.000 C 
ATOM     20  H   UNL     1       1.198   8.936  16.869  0.00  0.00    +0.000 HD
ENDBRANCH  11  14
ENDBRANCH   1  11
BRANCH   3  21
ATOM     21  C   UNL     1       4.478   4.403  16.121  0.00  0.00    +0.000 C 
BRANCH  21  22
ATOM     22  C   UNL     1       5.454   4.447  14.958  0.00  0.00    +0.000 A 
ATOM     23  C   UNL     1       6.658   5.158  15.060  0.00  0.00    +0.000 A 
ATOM     24  C   UNL     1       7.591   5.149  14.018  0.00  0.00    +0.000 A 
ATOM     25  C   UNL     1       7.338   4.415  12.859  0.00  0.00    +0.000 A 
ATOM     26  C   UNL     1       6.147   3.702  12.745  0.00  0.00    +0.000 A 
ATOM     27  C   UNL     1       5.207   3.726  13.780  0.00  0.00    +0.000 A 
ENDBRANCH  21  22
ENDBRANCH   3  21
TORSDOF 4
ENDMDL
MODEL 9
REMARK VINA RESULT:      -7.8      2.445      5.041
REMARK  Name = 
REMARK  4 active torsions:
REMARK  status: ('A' for Active; 'I' for Inactive)
REMARK    1  A    between atoms: N_3  and  C_4
REMARK    2  A    between atoms: C_4  and  C_5
REMARK    3  A    between atoms: N_7  and  C_8
REMARK    4  A    between atoms: C_8  and  C_9
REMARK                            x       y       z     vdW  Elec       q    Type
REMARK                         _______ _______ _______ _____ _____    ______ ____
ROOT
ATOM      1  C   UNL     1       1.922   6.313  19.763  0.00  0.00    +0.000 C 
ATOM      2  C   UNL     1       3.211   6.973  19.236  0.00  0.00    +0.000 C 
ATOM      3  N   UNL     1       4.054   5.903  18.689  0.00  0.00    +0.000 NA
ATOM      4  C   UNL     1       3.798   4.778  19.594  0.00  0.00    +0.000 C 
ATOM      5  C   UNL     1       2.299   4.809  19.985  0.00  0.00    +0.000 C 
ATOM      6  C   UNL     1       2.121   4.275  21.428  0.00  0.00    +0.000 C 
ATOM      7  C   UNL     1       2.380   2.773  21.511  0.00  0.00    +0.000 C 
ATOM      8  O   UNL     1       1.479   2.070  20.657  0.00  0.00    +0.000 OA
ATOM      9  C   UNL     1       1.658   2.421  19.289  0.00  0.00    +0.000 C 
ATOM     10  C   UNL     1       1.421   3.912  19.071  0.00  0.00    +0.000 C 
ENDROOT
BRANCH   1  11
ATOM     11  C   UNL     1       1.376   7.059  20.992  0.00  0.00    +0.000 C 
BRANCH  11  14
ATOM     12  O   UNL     1      -0.532   8.652  22.241  0.00  0.00    +0.000 OA
ATOM     13  C   UNL     1       0.246   9.188  21.455  0.00  0.00    +0.000 C 
ATOM     14  N   UNL     1       1.195   8.481  20.763  0.00  0.00    +0.000 N 
ATOM     15  N   UNL     1       0.225  10.535  21.201  0.00  0.00    +0.000 N 
ATOM     16  C   UNL     1       0.964  11.287  20.204  0.00  0.00    +0.000 C 
ATOM     17  C   UNL     1       1.010  12.682  20.801  0.00  0.00    +0.000 C 
ATOM     18  C   UNL     1      -0.306  12.812  21.567  0.00  0.00    +0.000 C 
ATOM     19  C   UNL     1      -0.780  11.382  21.808  0.00  0.00    +0.000 C 
ATOM     20  H   UNL     1       2.036   8.998  20.571  0.00  0.00    +0.000 HD
ENDBRANCH  11  14
ENDBRANCH   1  11
BRANCH   3  21
ATOM     21  C   UNL     1       3.784   5.659  17.264  0.00  0.00    +0.000 C 
BRANCH  21  22
ATOM     22  C   UNL     1       4.994   5.272  16.432  0.00  0.00    +0.000 A 
ATOM     23  C   UNL     1       4.867   4.390  15.349  0.00  0.00    +0.000 A 
ATOM     24  C   UNL     1       5.963   4.080  14.539  0.00  0.00    +0.000 A 
ATOM     25  C   UNL     1       7.206   4.661  14.791  0.00  0.00    +0.000 A 
ATOM     26  C   UNL     1       7.347   5.542  15.861  0.00  0.00    +0.000 A 
ATOM     27  C   UNL     1       6.254   5.837  16.682  0.00  0.00    +0.000 A 
ENDBRANCH  21  22
ENDBRANCH   3  21
TORSDOF 4
ENDMDL
