MODEL 1
REMARK VINA RESULT:      -7.9      0.000      0.000
REMARK  Name = 
REMARK  4 active torsions:
REMARK  status: ('A' for Active; 'I' for Inactive)
REMARK    1  A    between atoms: C_1  and  C_2
REMARK    2  A    between atoms: C_2  and  C_3
REMARK    3  A    between atoms: C_2  and  N_9
REMARK    4  A    between atoms: C_12  and  C_13
REMARK                            x       y       z     vdW  Elec       q    Type
REMARK                         _______ _______ _______ _____ _____    ______ ____
ROOT
ATOM      1  N   UNL     1       4.337   4.515  18.337  0.00  0.00    +0.000 NA
ATOM      2  C   UNL     1       4.451   5.491  19.433  0.00  0.00    +0.000 C 
ATOM      3  C   UNL     1       3.136   5.681  20.182  0.00  0.00    +0.000 C 
ATOM      4  C   UNL     1       1.994   6.054  19.244  0.00  0.00    +0.000 C 
ATOM      5  C   UNL     1       1.904   5.024  18.113  0.00  0.00    +0.000 C 
ATOM      6  C   UNL     1       3.247   4.841  17.405  0.00  0.00    +0.000 C 
ENDROOT
BRANCH   4   7
ATOM      7  C   UNL     1       2.059   7.460  18.731  0.00  0.00    +0.000 A 
ATOM      8  N   UNL     1       2.642   7.819  17.526  0.00  0.00    +0.000 NA
ATOM      9  N   UNL     1       2.524   9.139  17.355  0.00  0.00    +0.000 NA
ATOM     10  N   UNL     1       1.877   9.612  18.432  0.00  0.00    +0.000 N 
ATOM     11  C   UNL     1       1.542  10.951  18.659  0.00  0.00    +0.000 A 
ATOM     12  N   UNL     1       0.900  11.334  19.743  0.00  0.00    +0.000 NA
ATOM     13  C   UNL     1       0.594  10.317  20.610  0.00  0.00    +0.000 A 
ATOM     14  N   UNL     1      -0.066  10.480  21.792  0.00  0.00    +0.000 N 
ATOM     15  C   UNL     1      -0.216   9.256  22.413  0.00  0.00    +0.000 A 
ATOM     16  C   UNL     1       0.364   8.284  21.617  0.00  0.00    +0.000 A 
ATOM     17  C   UNL     1       0.862   8.964  20.507  0.00  0.00    +0.000 A 
ATOM     18  C   UNL     1       1.575   8.600  19.297  0.00  0.00    +0.000 A 
ATOM     19  H   UNL     1      -0.395  11.371  22.146  0.00  0.00    +0.000 HD
ENDBRANCH   4   7
BRANCH   1  21
ATOM     20  C   UNL     1       5.443   3.914  16.144  0.00  0.00    +0.000 C 
ATOM     21  C   UNL     1       5.640   4.305  17.630  0.00  0.00    +0.000 C 
BRANCH  21  22
ATOM     22  C   UNL     1       6.595   5.504  17.809  0.00  0.00    +0.000 A 
ATOM     23  C   UNL     1       7.559   5.502  18.836  0.00  0.00    +0.000 A 
ATOM     24  C   UNL     1       8.323   6.638  19.114  0.00  0.00    +0.000 A 
ATOM     25  C   UNL     1       8.185   7.780  18.331  0.00  0.00    +0.000 A 
ATOM     26  C   UNL     1       7.313   7.769  17.247  0.00  0.00    +0.000 A 
ATOM     27  C   UNL     1       6.534   6.639  16.983  0.00  0.00    +0.000 A 
ENDBRANCH  21  22
ENDBRANCH   1  21
TORSDOF 3
ENDMDL
MODEL 2
REMARK VINA RESULT:      -7.8      3.180      5.681
REMARK  Name = 
REMARK  4 active torsions:
REMARK  status: ('A' for Active; 'I' for Inactive)
REMARK    1  A    between atoms: C_1  and  C_2
REMARK    2  A    between atoms: C_2  and  C_3
REMARK    3  A    between atoms: C_2  and  N_9
REMARK    4  A    between atoms: C_12  and  C_13
REMARK                            x       y       z     vdW  Elec       q    Type
REMARK                         _______ _______ _______ _____ _____    ______ ____
ROOT
ATOM      1  N   UNL     1       6.744   4.276  14.834  0.00  0.00    +0.000 NA
ATOM      2  C   UNL     1       7.306   5.274  15.760  0.00  0.00    +0.000 C 
ATOM      3  C   UNL     1       7.343   4.775  17.201  0.00  0.00    +0.000 C 
ATOM      4  C   UNL     1       5.973   4.307  17.679  0.00  0.00    +0.000 C 
ATOM      5  C   UNL     1       5.412   3.276  16.694  0.00  0.00    +0.000 C 
ATOM      6  C   UNL     1       5.418   3.801  15.258  0.00  0.00    +0.000 C 
ENDROOT
BRANCH   4   7
ATOM      7  C   UNL     1       5.007   5.420  17.948  0.00  0.00    +0.000 A 
ATOM      8  N   UNL     1       5.039   6.648  17.305  0.00  0.00    +0.000 NA
ATOM      9  N   UNL     1       4.040   7.410  17.760  0.00  0.00    +0.000 NA
ATOM     10  N   UNL     1       3.384   6.681  18.676  0.00  0.00    +0.000 N 
ATOM     11  C   UNL     1       2.264   7.100  19.402  0.00  0.00    +0.000 A 
ATOM     12  N   UNL     1       1.673   6.320  20.283  0.00  0.00    +0.000 NA
ATOM     13  C   UNL     1       2.245   5.082  20.417  0.00  0.00    +0.000 A 
ATOM     14  N   UNL     1       1.801   4.113  21.268  0.00  0.00    +0.000 N 
ATOM     15  C   UNL     1       2.597   2.990  21.148  0.00  0.00    +0.000 A 
ATOM     16  C   UNL     1       3.575   3.242  20.204  0.00  0.00    +0.000 A 
ATOM     17  C   UNL     1       3.340   4.544  19.766  0.00  0.00    +0.000 A 
ATOM     18  C   UNL     1       3.955   5.449  18.812  0.00  0.00    +0.000 A 
ATOM     19  H   UNL     1       1.004   4.214  21.886  0.00  0.00    +0.000 HD
ENDBRANCH   4   7
BRANCH   1  21
ATOM     20  C   UNL     1       8.040   5.533  13.064  0.00  0.00    +0.000 C 
ATOM     21  C   UNL     1       6.745   4.758  13.417  0.00  0.00    +0.000 C 
BRANCH  21  22
ATOM     22  C   UNL     1       6.442   3.621  12.419  0.00  0.00    +0.000 A 
ATOM     23  C   UNL     1       5.116   3.344  12.032  0.00  0.00    +0.000 A 
ATOM     24  C   UNL     1       4.806   2.224  11.258  0.00  0.00    +0.000 A 
ATOM     25  C   UNL     1       5.822   1.391  10.799  0.00  0.00    +0.000 A 
ATOM     26  C   UNL     1       7.148   1.703  11.083  0.00  0.00    +0.000 A 
ATOM     27  C   UNL     1       7.454   2.812  11.875  0.00  0.00    +0.000 A 
ENDBRANCH  21  22
ENDBRANCH   1  21
TORSDOF 3
ENDMDL
MODEL 3
REMARK VINA RESULT:      -7.5      1.927      7.496
REMARK  Name = 
REMARK  4 active torsions:
REMARK  status: ('A' for Active; 'I' for Inactive)
REMARK    1  A    between atoms: C_1  and  C_2
REMARK    2  A    between atoms: C_2  and  C_3
REMARK    3  A    between atoms: C_2  and  N_9
REMARK    4  A    between atoms: C_12  and  C_13
REMARK                            x       y       z     vdW  Elec       q    Type
REMARK                         _______ _______ _______ _____ _____    ______ ____
ROOT
ATOM      1  N   UNL     1       1.797   7.638  19.135  0.00  0.00    +0.000 NA
ATOM      2  C   UNL     1       2.502   7.348  17.875  0.00  0.00    +0.000 C 
ATOM      3  C   UNL     1       2.415   5.877  17.485  0.00  0.00    +0.000 C 
ATOM      4  C   UNL     1       2.903   4.959  18.600  0.00  0.00    +0.000 C 
ATOM      5  C   UNL     1       2.155   5.288  19.897  0.00  0.00    +0.000 C 
ATOM      6  C   UNL     1       2.242   6.776  20.240  0.00  0.00    +0.000 C 
ENDROOT
BRANCH   4   7
ATOM      7  C   UNL     1       4.389   4.960  18.785  0.00  0.00    +0.000 A 
ATOM      8  N   UNL     1       5.020   5.148  20.004  0.00  0.00    +0.000 NA
ATOM      9  N   UNL     1       6.343   5.079  19.832  0.00  0.00    +0.000 NA
ATOM     10  N   UNL     1       6.552   4.852  18.526  0.00  0.00    +0.000 N 
ATOM     11  C   UNL     1       7.801   4.709  17.913  0.00  0.00    +0.000 A 
ATOM     12  N   UNL     1       7.921   4.482  16.621  0.00  0.00    +0.000 NA
ATOM     13  C   UNL     1       6.730   4.398  15.948  0.00  0.00    +0.000 A 
ATOM     14  N   UNL     1       6.613   4.169  14.608  0.00  0.00    +0.000 N 
ATOM     15  C   UNL     1       5.278   4.137  14.258  0.00  0.00    +0.000 A 
ATOM     16  C   UNL     1       4.519   4.355  15.393  0.00  0.00    +0.000 A 
ATOM     17  C   UNL     1       5.438   4.516  16.428  0.00  0.00    +0.000 A 
ATOM     18  C   UNL     1       5.366   4.771  17.855  0.00  0.00    +0.000 A 
ATOM     19  H   UNL     1       7.397   4.039  13.979  0.00  0.00    +0.000 HD
ENDBRANCH   4   7
BRANCH   1  21
ATOM     20  C   UNL     1       1.655  10.006  18.259  0.00  0.00    +0.000 C 
ATOM     21  C   UNL     1       1.855   9.090  19.493  0.00  0.00    +0.000 C 
BRANCH  21  22
ATOM     22  C   UNL     1       0.900   9.440  20.654  0.00  0.00    +0.000 A 
ATOM     23  C   UNL     1      -0.173  10.330  20.453  0.00  0.00    +0.000 A 
ATOM     24  C   UNL     1      -0.949  10.782  21.523  0.00  0.00    +0.000 A 
ATOM     25  C   UNL     1      -0.711  10.304  22.807  0.00  0.00    +0.000 A 
ATOM     26  C   UNL     1       0.277   9.346  23.013  0.00  0.00    +0.000 A 
ATOM     27  C   UNL     1       1.066   8.911  21.945  0.00  0.00    +0.000 A 
ENDBRANCH  21  22
ENDBRANCH   1  21
TORSDOF 3
ENDMDL
MODEL 4
REMARK VINA RESULT:      -7.4      3.125      5.645
REMARK  Name = 
REMARK  4 active torsions:
REMARK  status: ('A' for Active; 'I' for Inactive)
REMARK    1  A    between atoms: C_1  and  C_2
REMARK    2  A    between atoms: C_2  and  C_3
REMARK    3  A    between atoms: C_2  and  N_9
REMARK    4  A    between atoms: C_12  and  C_13
REMARK                            x       y       z     vdW  Elec       q    Type
REMARK                         _______ _______ _______ _____ _____    ______ ____
ROOT
ATOM      1  N   UNL     1       6.646   4.281  14.925  0.00  0.00    +0.000 NA
ATOM      2  C   UNL     1       7.203   5.307  15.823  0.00  0.00    +0.000 C 
ATOM      3  C   UNL     1       7.306   4.825  17.265  0.00  0.00    +0.000 C 
ATOM      4  C   UNL     1       5.970   4.313  17.793  0.00  0.00    +0.000 C 
ATOM      5  C   UNL     1       5.415   3.252  16.837  0.00  0.00    +0.000 C 
ATOM      6  C   UNL     1       5.353   3.762  15.397  0.00  0.00    +0.000 C 
ENDROOT
BRANCH   4   7
ATOM      7  C   UNL     1       4.974   5.393  18.085  0.00  0.00    +0.000 A 
ATOM      8  N   UNL     1       4.975   6.635  17.472  0.00  0.00    +0.000 NA
ATOM      9  N   UNL     1       3.954   7.360  17.941  0.00  0.00    +0.000 NA
ATOM     10  N   UNL     1       3.316   6.592  18.838  0.00  0.00    +0.000 N 
ATOM     11  C   UNL     1       2.183   6.964  19.570  0.00  0.00    +0.000 A 
ATOM     12  N   UNL     1       1.611   6.148  20.430  0.00  0.00    +0.000 NA
ATOM     13  C   UNL     1       2.216   4.923  20.537  0.00  0.00    +0.000 A 
ATOM     14  N   UNL     1       1.796   3.922  21.364  0.00  0.00    +0.000 N 
ATOM     15  C   UNL     1       2.621   2.824  21.220  0.00  0.00    +0.000 A 
ATOM     16  C   UNL     1       3.595   3.124  20.286  0.00  0.00    +0.000 A 
ATOM     17  C   UNL     1       3.327   4.430  19.878  0.00  0.00    +0.000 A 
ATOM     18  C   UNL     1       3.919   5.373  18.947  0.00  0.00    +0.000 A 
ATOM     19  H   UNL     1       0.994   3.987  21.981  0.00  0.00    +0.000 HD
ENDBRANCH   4   7
BRANCH   1  21
ATOM     20  C   UNL     1       7.961   5.227  12.984  0.00  0.00    +0.000 C 
ATOM     21  C   UNL     1       6.582   4.748  13.505  0.00  0.00    +0.000 C 
BRANCH  21  22
ATOM     22  C   UNL     1       5.928   3.700  12.579  0.00  0.00    +0.000 A 
ATOM     23  C   UNL     1       6.657   2.575  12.146  0.00  0.00    +0.000 A 
ATOM     24  C   UNL     1       6.139   1.703  11.186  0.00  0.00    +0.000 A 
ATOM     25  C   UNL     1       4.857   1.900  10.684  0.00  0.00    +0.000 A 
ATOM     26  C   UNL     1       4.080   2.946  11.173  0.00  0.00    +0.000 A 
ATOM     27  C   UNL     1       4.607   3.830  12.118  0.00  0.00    +0.000 A 
ENDBRANCH  21  22
ENDBRANCH   1  21
TORSDOF 3
ENDMDL
MODEL 5
REMARK VINA RESULT:      -7.2      4.356      7.142
REMARK  Name = 
REMARK  4 active torsions:
REMARK  status: ('A' for Active; 'I' for Inactive)
REMARK    1  A    between atoms: C_1  and  C_2
REMARK    2  A    between atoms: C_2  and  C_3
REMARK    3  A    between atoms: C_2  and  N_9
REMARK    4  A    between atoms: C_12  and  C_13
REMARK                            x       y       z     vdW  Elec       q    Type
REMARK                         _______ _______ _______ _____ _____    ______ ____
ROOT
ATOM      1  N   UNL     1       0.262  10.342  19.313  0.00  0.00    +0.000 NA
ATOM      2  C   UNL     1      -1.146   9.921  19.214  0.00  0.00    +0.000 C 
ATOM      3  C   UNL     1      -1.958  10.816  18.285  0.00  0.00    +0.000 C 
ATOM      4  C   UNL     1      -1.860  12.286  18.678  0.00  0.00    +0.000 C 
ATOM      5  C   UNL     1      -0.385  12.692  18.777  0.00  0.00    +0.000 C 
ATOM      6  C   UNL     1       0.401  11.755  19.694  0.00  0.00    +0.000 C 
ENDROOT
BRANCH   4   7
ATOM      7  C   UNL     1      -2.632  12.641  19.911  0.00  0.00    +0.000 A 
ATOM      8  N   UNL     1      -2.058  13.147  21.067  0.00  0.00    +0.000 NA
ATOM      9  N   UNL     1      -3.015  13.370  21.973  0.00  0.00    +0.000 NA
ATOM     10  N   UNL     1      -4.176  13.011  21.405  0.00  0.00    +0.000 N 
ATOM     11  C   UNL     1      -5.436  13.084  22.010  0.00  0.00    +0.000 A 
ATOM     12  N   UNL     1      -6.532  12.715  21.380  0.00  0.00    +0.000 NA
ATOM     13  C   UNL     1      -6.328  12.265  20.102  0.00  0.00    +0.000 A 
ATOM     14  N   UNL     1      -7.316  11.832  19.267  0.00  0.00    +0.000 N 
ATOM     15  C   UNL     1      -6.769  11.457  18.056  0.00  0.00    +0.000 A 
ATOM     16  C   UNL     1      -5.400  11.647  18.113  0.00  0.00    +0.000 A 
ATOM     17  C   UNL     1      -5.149  12.145  19.390  0.00  0.00    +0.000 A 
ATOM     18  C   UNL     1      -3.973  12.560  20.133  0.00  0.00    +0.000 A 
ATOM     19  H   UNL     1      -8.300  11.802  19.511  0.00  0.00    +0.000 HD
ENDBRANCH   4   7
BRANCH   1  21
ATOM     20  C   UNL     1       0.203   8.817  21.328  0.00  0.00    +0.000 C 
ATOM     21  C   UNL     1       1.061   9.437  20.197  0.00  0.00    +0.000 C 
BRANCH  21  22
ATOM     22  C   UNL     1       1.838   8.375  19.390  0.00  0.00    +0.000 A 
ATOM     23  C   UNL     1       2.117   7.114  19.952  0.00  0.00    +0.000 A 
ATOM     24  C   UNL     1       2.952   6.201  19.303  0.00  0.00    +0.000 A 
ATOM     25  C   UNL     1       3.474   6.503  18.049  0.00  0.00    +0.000 A 
ATOM     26  C   UNL     1       3.128   7.700  17.430  0.00  0.00    +0.000 A 
ATOM     27  C   UNL     1       2.310   8.621  18.090  0.00  0.00    +0.000 A 
ENDBRANCH  21  22
ENDBRANCH   1  21
TORSDOF 3
ENDMDL
MODEL 6
REMARK VINA RESULT:      -7.1      4.237      7.214
REMARK  Name = 
REMARK  4 active torsions:
REMARK  status: ('A' for Active; 'I' for Inactive)
REMARK    1  A    between atoms: C_1  and  C_2
REMARK    2  A    between atoms: C_2  and  C_3
REMARK    3  A    between atoms: C_2  and  N_9
REMARK    4  A    between atoms: C_12  and  C_13
REMARK                            x       y       z     vdW  Elec       q    Type
REMARK                         _______ _______ _______ _____ _____    ______ ____
ROOT
ATOM      1  N   UNL     1       0.390  10.309  19.718  0.00  0.00    +0.000 NA
ATOM      2  C   UNL     1      -1.001   9.976  19.364  0.00  0.00    +0.000 C 
ATOM      3  C   UNL     1      -1.640  11.027  18.464  0.00  0.00    +0.000 C 
ATOM      4  C   UNL     1      -1.556  12.425  19.068  0.00  0.00    +0.000 C 
ATOM      5  C   UNL     1      -0.100  12.739  19.429  0.00  0.00    +0.000 C 
ATOM      6  C   UNL     1       0.514  11.650  20.309  0.00  0.00    +0.000 C 
ENDROOT
BRANCH   4   7
ATOM      7  C   UNL     1      -2.489  12.650  20.217  0.00  0.00    +0.000 A 
ATOM      8  N   UNL     1      -2.080  13.030  21.486  0.00  0.00    +0.000 NA
ATOM      9  N   UNL     1      -3.151  13.160  22.275  0.00  0.00    +0.000 NA
ATOM     10  N   UNL     1      -4.223  12.866  21.522  0.00  0.00    +0.000 N 
ATOM     11  C   UNL     1      -5.552  12.878  21.957  0.00  0.00    +0.000 A 
ATOM     12  N   UNL     1      -6.551  12.581  21.152  0.00  0.00    +0.000 NA
ATOM     13  C   UNL     1      -6.173  12.267  19.873  0.00  0.00    +0.000 A 
ATOM     14  N   UNL     1      -7.037  11.928  18.873  0.00  0.00    +0.000 N 
ATOM     15  C   UNL     1      -6.329  11.681  17.713  0.00  0.00    +0.000 A 
ATOM     16  C   UNL     1      -4.982  11.859  17.972  0.00  0.00    +0.000 A 
ATOM     17  C   UNL     1      -4.908  12.219  19.316  0.00  0.00    +0.000 A 
ATOM     18  C   UNL     1      -3.847  12.550  20.249  0.00  0.00    +0.000 A 
ATOM     19  H   UNL     1      -8.043  11.875  18.978  0.00  0.00    +0.000 HD
ENDBRANCH   4   7
BRANCH   1  21
ATOM     20  C   UNL     1       0.004   8.589  21.530  0.00  0.00    +0.000 C 
ATOM     21  C   UNL     1       1.023   9.255  20.571  0.00  0.00    +0.000 C 
BRANCH  21  22
ATOM     22  C   UNL     1       1.811   8.226  19.733  0.00  0.00    +0.000 A 
ATOM     23  C   UNL     1       2.295   8.567  18.455  0.00  0.00    +0.000 A 
ATOM     24  C   UNL     1       2.869   7.607  17.618  0.00  0.00    +0.000 A 
ATOM     25  C   UNL     1       3.029   6.300  18.065  0.00  0.00    +0.000 A 
ATOM     26  C   UNL     1       2.652   5.965  19.361  0.00  0.00    +0.000 A 
ATOM     27  C   UNL     1       2.059   6.921  20.189  0.00  0.00    +0.000 A 
ENDBRANCH  21  22
ENDBRANCH   1  21
TORSDOF 3
ENDMDL
MODEL 7
REMARK VINA RESULT:      -7.1      2.945      5.146
REMARK  Name = 
REMARK  4 active torsions:
REMARK  status: ('A' for Active; 'I' for Inactive)
REMARK    1  A    between atoms: C_1  and  C_2
REMARK    2  A    between atoms: C_2  and  C_3
REMARK    3  A    between atoms: C_2  and  N_9
REMARK    4  A    between atoms: C_12  and  C_13
REMARK                            x       y       z     vdW  Elec       q    Type
REMARK                         _______ _______ _______ _____ _____    ______ ____
ROOT
ATOM      1  N   UNL     1       2.319   8.028  18.745  0.00  0.00    +0.000 NA
ATOM      2  C   UNL     1       2.201   9.122  17.766  0.00  0.00    +0.000 C 
ATOM      3  C   UNL     1       1.985  10.477  18.431  0.00  0.00    +0.000 C 
ATOM      4  C   UNL     1       0.788  10.466  19.376  0.00  0.00    +0.000 C 
ATOM      5  C   UNL     1       0.938   9.316  20.378  0.00  0.00    +0.000 C 
ATOM      6  C   UNL     1       1.181   7.980  19.675  0.00  0.00    +0.000 C 
ENDROOT
BRANCH   4   7
ATOM      7  C   UNL     1      -0.539  10.446  18.681  0.00  0.00    +0.000 A 
ATOM      8  N   UNL     1      -0.816   9.680  17.560  0.00  0.00    +0.000 NA
ATOM      9  N   UNL     1      -2.086   9.877  17.195  0.00  0.00    +0.000 NA
ATOM     10  N   UNL     1      -2.608  10.754  18.066  0.00  0.00    +0.000 N 
ATOM     11  C   UNL     1      -3.921  11.237  18.049  0.00  0.00    +0.000 A 
ATOM     12  N   UNL     1      -4.358  12.096  18.947  0.00  0.00    +0.000 NA
ATOM     13  C   UNL     1      -3.425  12.462  19.881  0.00  0.00    +0.000 A 
ATOM     14  N   UNL     1      -3.656  13.338  20.902  0.00  0.00    +0.000 N 
ATOM     15  C   UNL     1      -2.510  13.478  21.661  0.00  0.00    +0.000 A 
ATOM     16  C   UNL     1      -1.521  12.681  21.116  0.00  0.00    +0.000 A 
ATOM     17  C   UNL     1      -2.108  12.063  20.013  0.00  0.00    +0.000 A 
ATOM     18  C   UNL     1      -1.679  11.121  18.996  0.00  0.00    +0.000 A 
ATOM     19  H   UNL     1      -4.541  13.804  21.069  0.00  0.00    +0.000 HD
ENDBRANCH   4   7
BRANCH   1  21
ATOM     20  C   UNL     1       3.992   6.613  17.484  0.00  0.00    +0.000 C 
ATOM     21  C   UNL     1       2.568   6.707  18.088  0.00  0.00    +0.000 C 
BRANCH  21  22
ATOM     22  C   UNL     1       2.239   5.524  19.022  0.00  0.00    +0.000 A 
ATOM     23  C   UNL     1       1.471   4.439  18.556  0.00  0.00    +0.000 A 
ATOM     24  C   UNL     1       1.029   3.439  19.425  0.00  0.00    +0.000 A 
ATOM     25  C   UNL     1       1.398   3.467  20.767  0.00  0.00    +0.000 A 
ATOM     26  C   UNL     1       2.241   4.474  21.226  0.00  0.00    +0.000 A 
ATOM     27  C   UNL     1       2.665   5.485  20.360  0.00  0.00    +0.000 A 
ENDBRANCH  21  22
ENDBRANCH   1  21
TORSDOF 3
ENDMDL
MODEL 8
REMARK VINA RESULT:      -7.1      3.589      6.636
REMARK  Name = 
REMARK  4 active torsions:
REMARK  status: ('A' for Active; 'I' for Inactive)
REMARK    1  A    between atoms: C_1  and  C_2
REMARK    2  A    between atoms: C_2  and  C_3
REMARK    3  A    between atoms: C_2  and  N_9
REMARK    4  A    between atoms: C_12  and  C_13
REMARK                            x       y       z     vdW  Elec       q    Type
REMARK                         _______ _______ _______ _____ _____    ______ ____
ROOT
ATOM      1  N   UNL     1       1.132   9.699  20.190  0.00  0.00    +0.000 NA
ATOM      2  C   UNL     1       0.064   9.612  19.179  0.00  0.00    +0.000 C 
ATOM      3  C   UNL     1       0.013  10.843  18.281  0.00  0.00    +0.000 C 
ATOM      4  C   UNL     1      -0.108  12.133  19.085  0.00  0.00    +0.000 C 
ATOM      5  C   UNL     1       1.012  12.191  20.130  0.00  0.00    +0.000 C 
ATOM      6  C   UNL     1       1.049  10.929  20.992  0.00  0.00    +0.000 C 
ENDROOT
BRANCH   4   7
ATOM      7  C   UNL     1      -1.461  12.353  19.688  0.00  0.00    +0.000 A 
ATOM      8  N   UNL     1      -1.670  12.856  20.962  0.00  0.00    +0.000 NA
ATOM      9  N   UNL     1      -2.983  12.942  21.193  0.00  0.00    +0.000 NA
ATOM     10  N   UNL     1      -3.600  12.501  20.085  0.00  0.00    +0.000 N 
ATOM     11  C   UNL     1      -4.984  12.423  19.899  0.00  0.00    +0.000 A 
ATOM     12  N   UNL     1      -5.512  11.981  18.776  0.00  0.00    +0.000 NA
ATOM     13  C   UNL     1      -4.595  11.615  17.826  0.00  0.00    +0.000 A 
ATOM     14  N   UNL     1      -4.914  11.130  16.591  0.00  0.00    +0.000 N 
ATOM     15  C   UNL     1      -3.757  10.868  15.883  0.00  0.00    +0.000 A 
ATOM     16  C   UNL     1      -2.672  11.185  16.679  0.00  0.00    +0.000 A 
ATOM     17  C   UNL     1      -3.214  11.643  17.879  0.00  0.00    +0.000 A 
ATOM     18  C   UNL     1      -2.688  12.133  19.139  0.00  0.00    +0.000 A 
ATOM     19  H   UNL     1      -5.860  10.994  16.255  0.00  0.00    +0.000 HD
ENDBRANCH   4   7
BRANCH   1  21
ATOM     20  C   UNL     1      -0.149   8.169  21.743  0.00  0.00    +0.000 C 
ATOM     21  C   UNL     1       1.200   8.472  21.044  0.00  0.00    +0.000 C 
BRANCH  21  22
ATOM     22  C   UNL     1       1.755   7.257  20.270  0.00  0.00    +0.000 A 
ATOM     23  C   UNL     1       2.507   7.443  19.093  0.00  0.00    +0.000 A 
ATOM     24  C   UNL     1       2.880   6.359  18.294  0.00  0.00    +0.000 A 
ATOM     25  C   UNL     1       2.566   5.062  18.687  0.00  0.00    +0.000 A 
ATOM     26  C   UNL     1       1.914   4.849  19.898  0.00  0.00    +0.000 A 
ATOM     27  C   UNL     1       1.523   5.935  20.685  0.00  0.00    +0.000 A 
ENDBRANCH  21  22
ENDBRANCH   1  21
TORSDOF 3
ENDMDL
MODEL 9
REMARK VINA RESULT:      -6.9      7.762     11.031
REMARK  Name = 
REMARK  4 active torsions:
REMARK  status: ('A' for Active; 'I' for Inactive)
REMARK    1  A    between atoms: C_1  and  C_2
REMARK    2  A    between atoms: C_2  and  C_3
REMARK    3  A    between atoms: C_2  and  N_9
REMARK    4  A    between atoms: C_12  and  C_13
REMARK                            x       y       z     vdW  Elec       q    Type
REMARK                         _______ _______ _______ _____ _____    ______ ____
ROOT
ATOM      1  N   UNL     1       4.147  15.940  18.437  0.00  0.00    +0.000 NA
ATOM      2  C   UNL     1       4.949  16.780  19.342  0.00  0.00    +0.000 C 
ATOM      3  C   UNL     1       6.378  16.973  18.844  0.00  0.00    +0.000 C 
ATOM      4  C   UNL     1       7.076  15.644  18.581  0.00  0.00    +0.000 C 
ATOM      5  C   UNL     1       6.216  14.791  17.642  0.00  0.00    +0.000 C 
ATOM      6  C   UNL     1       4.785  14.644  18.160  0.00  0.00    +0.000 C 
ENDROOT
BRANCH   4   7
ATOM      7  C   UNL     1       7.468  14.903  19.823  0.00  0.00    +0.000 A 
ATOM      8  N   UNL     1       6.913  15.135  21.072  0.00  0.00    +0.000 NA
ATOM      9  N   UNL     1       7.466  14.305  21.961  0.00  0.00    +0.000 NA
ATOM     10  N   UNL     1       8.358  13.559  21.290  0.00  0.00    +0.000 N 
ATOM     11  C   UNL     1       9.162  12.557  21.844  0.00  0.00    +0.000 A 
ATOM     12  N   UNL     1      10.012  11.864  21.114  0.00  0.00    +0.000 NA
ATOM     13  C   UNL     1      10.031  12.208  19.787  0.00  0.00    +0.000 A 
ATOM     14  N   UNL     1      10.831  11.625  18.849  0.00  0.00    +0.000 N 
ATOM     15  C   UNL     1      10.595  12.201  17.616  0.00  0.00    +0.000 A 
ATOM     16  C   UNL     1       9.627  13.177  17.763  0.00  0.00    +0.000 A 
ATOM     17  C   UNL     1       9.294  13.167  19.117  0.00  0.00    +0.000 A 
ATOM     18  C   UNL     1       8.379  13.903  19.970  0.00  0.00    +0.000 A 
ATOM     19  H   UNL     1      11.490  10.879  19.041  0.00  0.00    +0.000 HD
ENDBRANCH   4   7
BRANCH   1  21
ATOM     20  C   UNL     1       2.628  15.866  20.456  0.00  0.00    +0.000 C 
ATOM     21  C   UNL     1       2.737  15.785  18.913  0.00  0.00    +0.000 C 
BRANCH  21  22
ATOM     22  C   UNL     1       1.774  16.755  18.196  0.00  0.00    +0.000 A 
ATOM     23  C   UNL     1       0.435  16.875  18.619  0.00  0.00    +0.000 A 
ATOM     24  C   UNL     1      -0.490  17.624  17.888  0.00  0.00    +0.000 A 
ATOM     25  C   UNL     1      -0.084  18.321  16.755  0.00  0.00    +0.000 A 
ATOM     26  C   UNL     1       1.255  18.301  16.378  0.00  0.00    +0.000 A 
ATOM     27  C   UNL     1       2.176  17.534  17.098  0.00  0.00    +0.000 A 
ENDBRANCH  21  22
ENDBRANCH   1  21
TORSDOF 3
ENDMDL
