MODEL 1
REMARK VINA RESULT:      -8.5      0.000      0.000
REMARK  Name = 
REMARK  6 active torsions:
REMARK  status: ('A' for Active; 'I' for Inactive)
REMARK    1  A    between atoms: C_1  and  C_2
REMARK    2  A    between atoms: N_4  and  C_5
REMARK    3  A    between atoms: C_8  and  S_9
REMARK    4  A    between atoms: S_9  and  N_12
REMARK    5  A    between atoms: N_12  and  C_13
REMARK    6  A    between atoms: N_17  and  C_18
REMARK                            x       y       z     vdW  Elec       q    Type
REMARK                         _______ _______ _______ _____ _____    ______ ____
ROOT
ATOM      1  S   UNL     1       3.232   3.845  17.604  0.00  0.00    +0.000 S 
ATOM      2  O   UNL     1       3.986   2.932  18.442  0.00  0.00    +0.000 OA
ATOM      3  O   UNL     1       2.065   3.358  16.896  0.00  0.00    +0.000 OA
ENDROOT
BRANCH   1   7
ATOM      4  C   UNL     1       1.908   7.244  20.387  0.00  0.00    +0.000 A 
ATOM      5  C   UNL     1       1.856   5.908  20.798  0.00  0.00    +0.000 A 
ATOM      6  C   UNL     1       2.258   4.875  19.951  0.00  0.00    +0.000 A 
ATOM      7  C   UNL     1       2.692   5.171  18.659  0.00  0.00    +0.000 A 
ATOM      8  C   UNL     1       2.778   6.502  18.233  0.00  0.00    +0.000 A 
ATOM      9  C   UNL     1       2.371   7.532  19.094  0.00  0.00    +0.000 A 
BRANCH   4  13
ATOM     10  C   UNL     1       0.078   9.881  22.374  0.00  0.00    +0.000 C 
ATOM     11  C   UNL     1       0.209   8.575  21.629  0.00  0.00    +0.000 C 
ATOM     12  O   UNL     1      -0.779   7.875  21.437  0.00  0.00    +0.000 OA
ATOM     13  N   UNL     1       1.501   8.314  21.210  0.00  0.00    +0.000 N 
ATOM     14  H   UNL     1       2.234   8.913  21.579  0.00  0.00    +0.000 HD
ENDBRANCH   4  13
ENDBRANCH   1   7
BRANCH   1  15
ATOM     15  N   UNL     1       4.295   4.527  16.548  0.00  0.00    +0.000 N 
ATOM     16  H   UNL     1       3.852   5.294  16.065  0.00  0.00    +0.000 HD
BRANCH  15  17
ATOM     17  C   UNL     1       5.639   4.672  16.875  0.00  0.00    +0.000 A 
ATOM     18  C   UNL     1       6.105   5.030  18.118  0.00  0.00    +0.000 A 
ATOM     19  C   UNL     1       7.501   4.873  18.024  0.00  0.00    +0.000 A 
ATOM     20  N   UNL     1       7.889   4.463  16.815  0.00  0.00    +0.000 NA
ATOM     21  N   UNL     1       6.755   4.481  16.072  0.00  0.00    +0.000 N 
BRANCH  21  22
ATOM     22  C   UNL     1       6.800   4.395  14.659  0.00  0.00    +0.000 A 
ATOM     23  C   UNL     1       5.986   3.473  13.992  0.00  0.00    +0.000 A 
ATOM     24  C   UNL     1       5.991   3.435  12.596  0.00  0.00    +0.000 A 
ATOM     25  C   UNL     1       6.833   4.280  11.872  0.00  0.00    +0.000 A 
ATOM     26  C   UNL     1       7.680   5.165  12.536  0.00  0.00    +0.000 A 
ATOM     27  C   UNL     1       7.665   5.225  13.930  0.00  0.00    +0.000 A 
ENDBRANCH  21  22
ENDBRANCH  15  17
ENDBRANCH   1  15
TORSDOF 5
ENDMDL
MODEL 2
REMARK VINA RESULT:      -8.3      2.392      3.589
REMARK  Name = 
REMARK  6 active torsions:
REMARK  status: ('A' for Active; 'I' for Inactive)
REMARK    1  A    between atoms: C_1  and  C_2
REMARK    2  A    between atoms: N_4  and  C_5
REMARK    3  A    between atoms: C_8  and  S_9
REMARK    4  A    between atoms: S_9  and  N_12
REMARK    5  A    between atoms: N_12  and  C_13
REMARK    6  A    between atoms: N_17  and  C_18
REMARK                            x       y       z     vdW  Elec       q    Type
REMARK                         _______ _______ _______ _____ _____    ______ ____
ROOT
ATOM      1  S   UNL     1       3.205   6.640  18.586  0.00  0.00    +0.000 S 
ATOM      2  O   UNL     1       3.834   7.379  17.509  0.00  0.00    +0.000 OA
ATOM      3  O   UNL     1       4.032   6.067  19.630  0.00  0.00    +0.000 OA
ENDROOT
BRANCH   1   7
ATOM      4  C   UNL     1       0.337   9.544  20.682  0.00  0.00    +0.000 A 
ATOM      5  C   UNL     1       0.772   8.374  21.312  0.00  0.00    +0.000 A 
ATOM      6  C   UNL     1       1.643   7.491  20.674  0.00  0.00    +0.000 A 
ATOM      7  C   UNL     1       2.067   7.760  19.373  0.00  0.00    +0.000 A 
ATOM      8  C   UNL     1       1.667   8.937  18.731  0.00  0.00    +0.000 A 
ATOM      9  C   UNL     1       0.790   9.817  19.383  0.00  0.00    +0.000 A 
BRANCH   4  13
ATOM     10  C   UNL     1      -1.831  11.601  22.989  0.00  0.00    +0.000 C 
ATOM     11  C   UNL     1      -0.689  10.676  22.649  0.00  0.00    +0.000 C 
ATOM     12  O   UNL     1      -0.002  10.193  23.543  0.00  0.00    +0.000 OA
ATOM     13  N   UNL     1      -0.551  10.455  21.291  0.00  0.00    +0.000 N 
ATOM     14  H   UNL     1      -1.098  11.046  20.672  0.00  0.00    +0.000 HD
ENDBRANCH   4  13
ENDBRANCH   1   7
BRANCH   1  15
ATOM     15  N   UNL     1       2.269   5.475  17.896  0.00  0.00    +0.000 N 
ATOM     16  H   UNL     1       1.956   5.781  16.987  0.00  0.00    +0.000 HD
BRANCH  15  17
ATOM     17  C   UNL     1       2.578   4.127  18.042  0.00  0.00    +0.000 A 
ATOM     18  C   UNL     1       1.838   3.232  18.779  0.00  0.00    +0.000 A 
ATOM     19  C   UNL     1       2.416   1.982  18.489  0.00  0.00    +0.000 A 
ATOM     20  N   UNL     1       3.448   2.077  17.649  0.00  0.00    +0.000 NA
ATOM     21  N   UNL     1       3.633   3.411  17.491  0.00  0.00    +0.000 N 
BRANCH  21  22
ATOM     22  C   UNL     1       4.816   3.925  16.907  0.00  0.00    +0.000 A 
ATOM     23  C   UNL     1       5.941   4.159  17.706  0.00  0.00    +0.000 A 
ATOM     24  C   UNL     1       7.123   4.609  17.115  0.00  0.00    +0.000 A 
ATOM     25  C   UNL     1       7.171   4.865  15.744  0.00  0.00    +0.000 A 
ATOM     26  C   UNL     1       6.038   4.680  14.955  0.00  0.00    +0.000 A 
ATOM     27  C   UNL     1       4.859   4.210  15.534  0.00  0.00    +0.000 A 
ENDBRANCH  21  22
ENDBRANCH  15  17
ENDBRANCH   1  15
TORSDOF 5
ENDMDL
MODEL 3
REMARK VINA RESULT:      -8.3      2.431      3.715
REMARK  Name = 
REMARK  6 active torsions:
REMARK  status: ('A' for Active; 'I' for Inactive)
REMARK    1  A    between atoms: C_1  and  C_2
REMARK    2  A    between atoms: N_4  and  C_5
REMARK    3  A    between atoms: C_8  and  S_9
REMARK    4  A    between atoms: S_9  and  N_12
REMARK    5  A    between atoms: N_12  and  C_13
REMARK    6  A    between atoms: N_17  and  C_18
REMARK                            x       y       z     vdW  Elec       q    Type
REMARK                         _______ _______ _______ _____ _____    ______ ____
ROOT
ATOM      1  S   UNL     1       2.845   6.788  18.467  0.00  0.00    +0.000 S 
ATOM      2  O   UNL     1       1.915   5.908  17.786  0.00  0.00    +0.000 OA
ATOM      3  O   UNL     1       3.855   7.485  17.696  0.00  0.00    +0.000 OA
ENDROOT
BRANCH   1   7
ATOM      4  C   UNL     1       0.388   9.992  20.646  0.00  0.00    +0.000 A 
ATOM      5  C   UNL     1       0.815   8.834  21.304  0.00  0.00    +0.000 A 
ATOM      6  C   UNL     1       1.561   7.860  20.640  0.00  0.00    +0.000 A 
ATOM      7  C   UNL     1       1.864   8.024  19.289  0.00  0.00    +0.000 A 
ATOM      8  C   UNL     1       1.471   9.187  18.615  0.00  0.00    +0.000 A 
ATOM      9  C   UNL     1       0.721  10.159  19.293  0.00  0.00    +0.000 A 
BRANCH   4  13
ATOM     10  C   UNL     1      -1.633  12.172  22.973  0.00  0.00    +0.000 C 
ATOM     11  C   UNL     1      -0.666  11.066  22.630  0.00  0.00    +0.000 C 
ATOM     12  O   UNL     1      -0.232  10.333  23.513  0.00  0.00    +0.000 OA
ATOM     13  N   UNL     1      -0.376  10.994  21.280  0.00  0.00    +0.000 N 
ATOM     14  H   UNL     1      -0.692  11.765  20.700  0.00  0.00    +0.000 HD
ENDBRANCH   4  13
ENDBRANCH   1   7
BRANCH   1  15
ATOM     15  N   UNL     1       3.550   5.914  19.670  0.00  0.00    +0.000 N 
ATOM     16  H   UNL     1       3.344   6.335  20.564  0.00  0.00    +0.000 HD
BRANCH  15  17
ATOM     17  C   UNL     1       3.598   4.525  19.616  0.00  0.00    +0.000 A 
ATOM     18  C   UNL     1       3.019   3.688  20.541  0.00  0.00    +0.000 A 
ATOM     19  C   UNL     1       3.166   2.403  19.986  0.00  0.00    +0.000 A 
ATOM     20  N   UNL     1       3.798   2.422  18.811  0.00  0.00    +0.000 NA
ATOM     21  N   UNL     1       4.188   3.712  18.659  0.00  0.00    +0.000 N 
BRANCH  21  22
ATOM     22  C   UNL     1       5.143   4.079  17.680  0.00  0.00    +0.000 A 
ATOM     23  C   UNL     1       6.421   4.494  18.076  0.00  0.00    +0.000 A 
ATOM     24  C   UNL     1       7.376   4.797  17.104  0.00  0.00    +0.000 A 
ATOM     25  C   UNL     1       7.049   4.730  15.749  0.00  0.00    +0.000 A 
ATOM     26  C   UNL     1       5.764   4.365  15.354  0.00  0.00    +0.000 A 
ATOM     27  C   UNL     1       4.809   4.039  16.318  0.00  0.00    +0.000 A 
ENDBRANCH  21  22
ENDBRANCH  15  17
ENDBRANCH   1  15
TORSDOF 5
ENDMDL
MODEL 4
REMARK VINA RESULT:      -8.2      2.592      4.023
REMARK  Name = 
REMARK  6 active torsions:
REMARK  status: ('A' for Active; 'I' for Inactive)
REMARK    1  A    between atoms: C_1  and  C_2
REMARK    2  A    between atoms: N_4  and  C_5
REMARK    3  A    between atoms: C_8  and  S_9
REMARK    4  A    between atoms: S_9  and  N_12
REMARK    5  A    between atoms: N_12  and  C_13
REMARK    6  A    between atoms: N_17  and  C_18
REMARK                            x       y       z     vdW  Elec       q    Type
REMARK                         _______ _______ _______ _____ _____    ______ ____
ROOT
ATOM      1  S   UNL     1       2.809   6.847  18.495  0.00  0.00    +0.000 S 
ATOM      2  O   UNL     1       1.861   5.974  17.830  0.00  0.00    +0.000 OA
ATOM      3  O   UNL     1       3.824   7.521  17.710  0.00  0.00    +0.000 OA
ENDROOT
BRANCH   1   7
ATOM      4  C   UNL     1       0.269  10.075  20.540  0.00  0.00    +0.000 A 
ATOM      5  C   UNL     1       0.598  10.163  19.183  0.00  0.00    +0.000 A 
ATOM      6  C   UNL     1       1.372   9.181  18.563  0.00  0.00    +0.000 A 
ATOM      7  C   UNL     1       1.852   8.107  19.310  0.00  0.00    +0.000 A 
ATOM      8  C   UNL     1       1.515   7.983  20.664  0.00  0.00    +0.000 A 
ATOM      9  C   UNL     1       0.737   8.977  21.277  0.00  0.00    +0.000 A 
BRANCH   4  13
ATOM     10  C   UNL     1      -1.077  13.020  22.482  0.00  0.00    +0.000 C 
ATOM     11  C   UNL     1      -0.042  12.266  21.683  0.00  0.00    +0.000 C 
ATOM     12  O   UNL     1       1.079  12.739  21.527  0.00  0.00    +0.000 OA
ATOM     13  N   UNL     1      -0.501  11.052  21.205  0.00  0.00    +0.000 N 
ATOM     14  H   UNL     1      -1.497  10.872  21.287  0.00  0.00    +0.000 HD
ENDBRANCH   4  13
ENDBRANCH   1   7
BRANCH   1  15
ATOM     15  N   UNL     1       3.509   5.975  19.703  0.00  0.00    +0.000 N 
ATOM     16  H   UNL     1       3.316   6.409  20.594  0.00  0.00    +0.000 HD
BRANCH  15  17
ATOM     17  C   UNL     1       3.534   4.585  19.664  0.00  0.00    +0.000 A 
ATOM     18  C   UNL     1       2.933   3.768  20.593  0.00  0.00    +0.000 A 
ATOM     19  C   UNL     1       3.063   2.475  20.053  0.00  0.00    +0.000 A 
ATOM     20  N   UNL     1       3.707   2.470  18.884  0.00  0.00    +0.000 NA
ATOM     21  N   UNL     1       4.120   3.752  18.721  0.00  0.00    +0.000 N 
BRANCH  21  22
ATOM     22  C   UNL     1       5.090   4.093  17.748  0.00  0.00    +0.000 A 
ATOM     23  C   UNL     1       6.370   4.490  18.152  0.00  0.00    +0.000 A 
ATOM     24  C   UNL     1       7.340   4.768  17.186  0.00  0.00    +0.000 A 
ATOM     25  C   UNL     1       7.024   4.691  15.829  0.00  0.00    +0.000 A 
ATOM     26  C   UNL     1       5.737   4.344  15.426  0.00  0.00    +0.000 A 
ATOM     27  C   UNL     1       4.767   4.044  16.383  0.00  0.00    +0.000 A 
ENDBRANCH  21  22
ENDBRANCH  15  17
ENDBRANCH   1  15
TORSDOF 5
ENDMDL
MODEL 5
REMARK VINA RESULT:      -8.2      0.798      1.255
REMARK  Name = 
REMARK  6 active torsions:
REMARK  status: ('A' for Active; 'I' for Inactive)
REMARK    1  A    between atoms: C_1  and  C_2
REMARK    2  A    between atoms: N_4  and  C_5
REMARK    3  A    between atoms: C_8  and  S_9
REMARK    4  A    between atoms: S_9  and  N_12
REMARK    5  A    between atoms: N_12  and  C_13
REMARK    6  A    between atoms: N_17  and  C_18
REMARK                            x       y       z     vdW  Elec       q    Type
REMARK                         _______ _______ _______ _____ _____    ______ ____
ROOT
ATOM      1  S   UNL     1       3.267   3.991  17.755  0.00  0.00    +0.000 S 
ATOM      2  O   UNL     1       4.025   3.194  18.700  0.00  0.00    +0.000 OA
ATOM      3  O   UNL     1       2.126   3.400  17.084  0.00  0.00    +0.000 OA
ENDROOT
BRANCH   1   7
ATOM      4  C   UNL     1       1.801   7.632  20.130  0.00  0.00    +0.000 A 
ATOM      5  C   UNL     1       1.682   6.336  20.644  0.00  0.00    +0.000 A 
ATOM      6  C   UNL     1       2.127   5.230  19.920  0.00  0.00    +0.000 A 
ATOM      7  C   UNL     1       2.674   5.410  18.650  0.00  0.00    +0.000 A 
ATOM      8  C   UNL     1       2.827   6.699  18.125  0.00  0.00    +0.000 A 
ATOM      9  C   UNL     1       2.375   7.804  18.862  0.00  0.00    +0.000 A 
BRANCH   4  13
ATOM     10  C   UNL     1       0.345  10.924  21.271  0.00  0.00    +0.000 C 
ATOM     11  C   UNL     1       0.513   9.754  20.332  0.00  0.00    +0.000 C 
ATOM     12  O   UNL     1      -0.060   9.749  19.248  0.00  0.00    +0.000 OA
ATOM     13  N   UNL     1       1.353   8.774  20.827  0.00  0.00    +0.000 N 
ATOM     14  H   UNL     1       1.627   8.852  21.802  0.00  0.00    +0.000 HD
ENDBRANCH   4  13
ENDBRANCH   1   7
BRANCH   1  15
ATOM     15  N   UNL     1       4.334   4.582  16.649  0.00  0.00    +0.000 N 
ATOM     16  H   UNL     1       3.901   5.326  16.121  0.00  0.00    +0.000 HD
BRANCH  15  17
ATOM     17  C   UNL     1       5.683   4.720  16.956  0.00  0.00    +0.000 A 
ATOM     18  C   UNL     1       6.171   5.064  18.195  0.00  0.00    +0.000 A 
ATOM     19  C   UNL     1       7.564   4.904  18.076  0.00  0.00    +0.000 A 
ATOM     20  N   UNL     1       7.931   4.504  16.857  0.00  0.00    +0.000 NA
ATOM     21  N   UNL     1       6.785   4.532  16.133  0.00  0.00    +0.000 N 
BRANCH  21  22
ATOM     22  C   UNL     1       6.808   4.459  14.719  0.00  0.00    +0.000 A 
ATOM     23  C   UNL     1       7.698   5.262  13.995  0.00  0.00    +0.000 A 
ATOM     24  C   UNL     1       7.757   5.142  12.606  0.00  0.00    +0.000 A 
ATOM     25  C   UNL     1       6.907   4.260  11.938  0.00  0.00    +0.000 A 
ATOM     26  C   UNL     1       5.986   3.496  12.652  0.00  0.00    +0.000 A 
ATOM     27  C   UNL     1       5.935   3.593  14.043  0.00  0.00    +0.000 A 
ENDBRANCH  21  22
ENDBRANCH  15  17
ENDBRANCH   1  15
TORSDOF 5
ENDMDL
MODEL 6
REMARK VINA RESULT:      -8.1      2.604      3.816
REMARK  Name = 
REMARK  6 active torsions:
REMARK  status: ('A' for Active; 'I' for Inactive)
REMARK    1  A    between atoms: C_1  and  C_2
REMARK    2  A    between atoms: N_4  and  C_5
REMARK    3  A    between atoms: C_8  and  S_9
REMARK    4  A    between atoms: S_9  and  N_12
REMARK    5  A    between atoms: N_12  and  C_13
REMARK    6  A    between atoms: N_17  and  C_18
REMARK                            x       y       z     vdW  Elec       q    Type
REMARK                         _______ _______ _______ _____ _____    ______ ____
ROOT
ATOM      1  S   UNL     1       3.173   6.673  18.538  0.00  0.00    +0.000 S 
ATOM      2  O   UNL     1       3.994   7.277  17.507  0.00  0.00    +0.000 OA
ATOM      3  O   UNL     1       3.809   6.122  19.718  0.00  0.00    +0.000 OA
ENDROOT
BRANCH   1   7
ATOM      4  C   UNL     1       0.325   9.949  20.021  0.00  0.00    +0.000 A 
ATOM      5  C   UNL     1       0.761   8.929  20.872  0.00  0.00    +0.000 A 
ATOM      6  C   UNL     1       1.626   7.932  20.419  0.00  0.00    +0.000 A 
ATOM      7  C   UNL     1       2.043   7.932  19.089  0.00  0.00    +0.000 A 
ATOM      8  C   UNL     1       1.641   8.957  18.224  0.00  0.00    +0.000 A 
ATOM      9  C   UNL     1       0.770   9.953  18.691  0.00  0.00    +0.000 A 
BRANCH   4  13
ATOM     10  C   UNL     1      -1.422  12.896  21.609  0.00  0.00    +0.000 C 
ATOM     11  C   UNL     1      -0.225  12.073  21.200  0.00  0.00    +0.000 C 
ATOM     12  O   UNL     1       0.900  12.405  21.558  0.00  0.00    +0.000 OA
ATOM     13  N   UNL     1      -0.557  10.967  20.438  0.00  0.00    +0.000 N 
ATOM     14  H   UNL     1      -1.513  10.915  20.098  0.00  0.00    +0.000 HD
ENDBRANCH   4  13
ENDBRANCH   1   7
BRANCH   1  15
ATOM     15  N   UNL     1       2.238   5.530  17.809  0.00  0.00    +0.000 N 
ATOM     16  H   UNL     1       1.988   5.835  16.880  0.00  0.00    +0.000 HD
BRANCH  15  17
ATOM     17  C   UNL     1       2.491   4.174  17.987  0.00  0.00    +0.000 A 
ATOM     18  C   UNL     1       1.670   3.311  18.674  0.00  0.00    +0.000 A 
ATOM     19  C   UNL     1       2.228   2.040  18.437  0.00  0.00    +0.000 A 
ATOM     20  N   UNL     1       3.322   2.095  17.675  0.00  0.00    +0.000 NA
ATOM     21  N   UNL     1       3.561   3.421  17.522  0.00  0.00    +0.000 N 
BRANCH  21  22
ATOM     22  C   UNL     1       4.799   3.891  17.024  0.00  0.00    +0.000 A 
ATOM     23  C   UNL     1       4.962   4.101  15.649  0.00  0.00    +0.000 A 
ATOM     24  C   UNL     1       6.166   4.622  15.171  0.00  0.00    +0.000 A 
ATOM     25  C   UNL     1       7.215   4.893  16.051  0.00  0.00    +0.000 A 
ATOM     26  C   UNL     1       7.072   4.638  17.413  0.00  0.00    +0.000 A 
ATOM     27  C   UNL     1       5.865   4.138  17.903  0.00  0.00    +0.000 A 
ENDBRANCH  21  22
ENDBRANCH  15  17
ENDBRANCH   1  15
TORSDOF 5
ENDMDL
MODEL 7
REMARK VINA RESULT:      -8.1      2.620      3.887
REMARK  Name = 
REMARK  6 active torsions:
REMARK  status: ('A' for Active; 'I' for Inactive)
REMARK    1  A    between atoms: C_1  and  C_2
REMARK    2  A    between atoms: N_4  and  C_5
REMARK    3  A    between atoms: C_8  and  S_9
REMARK    4  A    between atoms: S_9  and  N_12
REMARK    5  A    between atoms: N_12  and  C_13
REMARK    6  A    between atoms: N_17  and  C_18
REMARK                            x       y       z     vdW  Elec       q    Type
REMARK                         _______ _______ _______ _____ _____    ______ ____
ROOT
ATOM      1  S   UNL     1       2.742   6.938  18.540  0.00  0.00    +0.000 S 
ATOM      2  O   UNL     1       1.833   6.043  17.851  0.00  0.00    +0.000 OA
ATOM      3  O   UNL     1       3.705   7.700  17.770  0.00  0.00    +0.000 OA
ENDROOT
BRANCH   1   7
ATOM      4  C   UNL     1       0.210   9.971  20.872  0.00  0.00    +0.000 A 
ATOM      5  C   UNL     1       0.731   8.831  21.494  0.00  0.00    +0.000 A 
ATOM      6  C   UNL     1       1.499   7.909  20.783  0.00  0.00    +0.000 A 
ATOM      7  C   UNL     1       1.732   8.107  19.423  0.00  0.00    +0.000 A 
ATOM      8  C   UNL     1       1.244   9.253  18.784  0.00  0.00    +0.000 A 
ATOM      9  C   UNL     1       0.471  10.173  19.509  0.00  0.00    +0.000 A 
BRANCH   4  13
ATOM     10  C   UNL     1      -1.211  12.917  22.758  0.00  0.00    +0.000 C 
ATOM     11  C   UNL     1      -0.196  12.203  21.898  0.00  0.00    +0.000 C 
ATOM     12  O   UNL     1       0.850  12.764  21.588  0.00  0.00    +0.000 OA
ATOM     13  N   UNL     1      -0.579  10.920  21.554  0.00  0.00    +0.000 N 
ATOM     14  H   UNL     1      -1.538  10.656  21.759  0.00  0.00    +0.000 HD
ENDBRANCH   4  13
ENDBRANCH   1   7
BRANCH   1  15
ATOM     15  N   UNL     1       3.510   6.056  19.699  0.00  0.00    +0.000 N 
ATOM     16  H   UNL     1       3.406   6.507  20.596  0.00  0.00    +0.000 HD
BRANCH  15  17
ATOM     17  C   UNL     1       3.484   4.666  19.678  0.00  0.00    +0.000 A 
ATOM     18  C   UNL     1       2.839   3.884  20.607  0.00  0.00    +0.000 A 
ATOM     19  C   UNL     1       2.930   2.579  20.086  0.00  0.00    +0.000 A 
ATOM     20  N   UNL     1       3.591   2.536  18.928  0.00  0.00    +0.000 NA
ATOM     21  N   UNL     1       4.053   3.799  18.755  0.00  0.00    +0.000 N 
BRANCH  21  22
ATOM     22  C   UNL     1       5.049   4.091  17.793  0.00  0.00    +0.000 A 
ATOM     23  C   UNL     1       4.741   4.022  16.429  0.00  0.00    +0.000 A 
ATOM     24  C   UNL     1       5.710   4.370  15.487  0.00  0.00    +0.000 A 
ATOM     25  C   UNL     1       6.990   4.743  15.898  0.00  0.00    +0.000 A 
ATOM     26  C   UNL     1       7.314   4.766  17.253  0.00  0.00    +0.000 A 
ATOM     27  C   UNL     1       6.345   4.441  18.203  0.00  0.00    +0.000 A 
ENDBRANCH  21  22
ENDBRANCH  15  17
ENDBRANCH   1  15
TORSDOF 5
ENDMDL
MODEL 8
REMARK VINA RESULT:      -8.1      2.577      3.924
REMARK  Name = 
REMARK  6 active torsions:
REMARK  status: ('A' for Active; 'I' for Inactive)
REMARK    1  A    between atoms: C_1  and  C_2
REMARK    2  A    between atoms: N_4  and  C_5
REMARK    3  A    between atoms: C_8  and  S_9
REMARK    4  A    between atoms: S_9  and  N_12
REMARK    5  A    between atoms: N_12  and  C_13
REMARK    6  A    between atoms: N_17  and  C_18
REMARK                            x       y       z     vdW  Elec       q    Type
REMARK                         _______ _______ _______ _____ _____    ______ ____
ROOT
ATOM      1  S   UNL     1       3.181   6.693  18.553  0.00  0.00    +0.000 S 
ATOM      2  O   UNL     1       3.985   7.316  17.520  0.00  0.00    +0.000 OA
ATOM      3  O   UNL     1       3.836   6.122  19.713  0.00  0.00    +0.000 OA
ENDROOT
BRANCH   1   7
ATOM      4  C   UNL     1       0.224   9.882  20.016  0.00  0.00    +0.000 A 
ATOM      5  C   UNL     1       0.686   9.873  18.696  0.00  0.00    +0.000 A 
ATOM      6  C   UNL     1       1.587   8.904  18.252  0.00  0.00    +0.000 A 
ATOM      7  C   UNL     1       2.059   7.942  19.144  0.00  0.00    +0.000 A 
ATOM      8  C   UNL     1       1.591   7.914  20.463  0.00  0.00    +0.000 A 
ATOM      9  C   UNL     1       0.686   8.894  20.898  0.00  0.00    +0.000 A 
BRANCH   4  13
ATOM     10  C   UNL     1      -1.565  12.702  21.776  0.00  0.00    +0.000 C 
ATOM     11  C   UNL     1      -0.356  11.940  21.293  0.00  0.00    +0.000 C 
ATOM     12  O   UNL     1       0.769  12.301  21.621  0.00  0.00    +0.000 OA
ATOM     13  N   UNL     1      -0.678  10.851  20.503  0.00  0.00    +0.000 N 
ATOM     14  H   UNL     1      -1.643  10.774  20.197  0.00  0.00    +0.000 HD
ENDBRANCH   4  13
ENDBRANCH   1   7
BRANCH   1  15
ATOM     15  N   UNL     1       2.235   5.564  17.820  0.00  0.00    +0.000 N 
ATOM     16  H   UNL     1       1.973   5.883  16.898  0.00  0.00    +0.000 HD
BRANCH  15  17
ATOM     17  C   UNL     1       2.488   4.205  17.974  0.00  0.00    +0.000 A 
ATOM     18  C   UNL     1       1.675   3.333  18.660  0.00  0.00    +0.000 A 
ATOM     19  C   UNL     1       2.226   2.065  18.397  0.00  0.00    +0.000 A 
ATOM     20  N   UNL     1       3.309   2.129  17.620  0.00  0.00    +0.000 NA
ATOM     21  N   UNL     1       3.549   3.456  17.482  0.00  0.00    +0.000 N 
BRANCH  21  22
ATOM     22  C   UNL     1       4.781   3.932  16.974  0.00  0.00    +0.000 A 
ATOM     23  C   UNL     1       5.851   4.165  17.847  0.00  0.00    +0.000 A 
ATOM     24  C   UNL     1       7.081   4.576  17.332  0.00  0.00    +0.000 A 
ATOM     25  C   UNL     1       7.234   4.796  15.962  0.00  0.00    +0.000 A 
ATOM     26  C   UNL     1       6.157   4.612  15.097  0.00  0.00    +0.000 A 
ATOM     27  C   UNL     1       4.929   4.180  15.600  0.00  0.00    +0.000 A 
ENDBRANCH  21  22
ENDBRANCH  15  17
ENDBRANCH   1  15
TORSDOF 5
ENDMDL
MODEL 9
REMARK VINA RESULT:      -8.0      2.686      4.226
REMARK  Name = 
REMARK  6 active torsions:
REMARK  status: ('A' for Active; 'I' for Inactive)
REMARK    1  A    between atoms: C_1  and  C_2
REMARK    2  A    between atoms: N_4  and  C_5
REMARK    3  A    between atoms: C_8  and  S_9
REMARK    4  A    between atoms: S_9  and  N_12
REMARK    5  A    between atoms: N_12  and  C_13
REMARK    6  A    between atoms: N_17  and  C_18
REMARK                            x       y       z     vdW  Elec       q    Type
REMARK                         _______ _______ _______ _____ _____    ______ ____
ROOT
ATOM      1  S   UNL     1       2.812   6.813  18.413  0.00  0.00    +0.000 S 
ATOM      2  O   UNL     1       1.846   5.935  17.781  0.00  0.00    +0.000 OA
ATOM      3  O   UNL     1       3.939   7.298  17.641  0.00  0.00    +0.000 OA
ENDROOT
BRANCH   1   7
ATOM      4  C   UNL     1       0.414  10.465  19.811  0.00  0.00    +0.000 A 
ATOM      5  C   UNL     1       0.856  10.351  18.489  0.00  0.00    +0.000 A 
ATOM      6  C   UNL     1       1.586   9.241  18.065  0.00  0.00    +0.000 A 
ATOM      7  C   UNL     1       1.909   8.238  18.978  0.00  0.00    +0.000 A 
ATOM      8  C   UNL     1       1.456   8.316  20.301  0.00  0.00    +0.000 A 
ATOM      9  C   UNL     1       0.723   9.438  20.715  0.00  0.00    +0.000 A 
BRANCH   4  13
ATOM     10  C   UNL     1      -2.003  13.301  20.418  0.00  0.00    +0.000 C 
ATOM     11  C   UNL     1      -1.556  11.989  19.823  0.00  0.00    +0.000 C 
ATOM     12  O   UNL     1      -2.267  11.410  19.008  0.00  0.00    +0.000 OA
ATOM     13  N   UNL     1      -0.317  11.576  20.280  0.00  0.00    +0.000 N 
ATOM     14  H   UNL     1       0.075  12.086  21.066  0.00  0.00    +0.000 HD
ENDBRANCH   4  13
ENDBRANCH   1   7
BRANCH   1  15
ATOM     15  N   UNL     1       3.339   6.056  19.776  0.00  0.00    +0.000 N 
ATOM     16  H   UNL     1       3.012   6.553  20.591  0.00  0.00    +0.000 HD
BRANCH  15  17
ATOM     17  C   UNL     1       3.389   4.668  19.853  0.00  0.00    +0.000 A 
ATOM     18  C   UNL     1       2.757   3.918  20.817  0.00  0.00    +0.000 A 
ATOM     19  C   UNL     1       2.934   2.587  20.393  0.00  0.00    +0.000 A 
ATOM     20  N   UNL     1       3.634   2.500  19.260  0.00  0.00    +0.000 NA
ATOM     21  N   UNL     1       4.034   3.772  19.011  0.00  0.00    +0.000 N 
BRANCH  21  22
ATOM     22  C   UNL     1       5.044   4.052  18.060  0.00  0.00    +0.000 A 
ATOM     23  C   UNL     1       6.281   4.553  18.486  0.00  0.00    +0.000 A 
ATOM     24  C   UNL     1       7.293   4.770  17.549  0.00  0.00    +0.000 A 
ATOM     25  C   UNL     1       7.062   4.531  16.194  0.00  0.00    +0.000 A 
ATOM     26  C   UNL     1       5.816   4.080  15.763  0.00  0.00    +0.000 A 
ATOM     27  C   UNL     1       4.806   3.839  16.694  0.00  0.00    +0.000 A 
ENDBRANCH  21  22
ENDBRANCH  15  17
ENDBRANCH   1  15
TORSDOF 5
ENDMDL
