MODEL 1
REMARK VINA RESULT:      -7.5      0.000      0.000
REMARK  Name = 
REMARK  5 active torsions:
REMARK  status: ('A' for Active; 'I' for Inactive)
REMARK    1  A    between atoms: C_1  and  C_2
REMARK    2  A    between atoms: C_2  and  C_3
REMARK    3  A    between atoms: C_2  and  N_4
REMARK    4  A    between atoms: N_4  and  C_20
REMARK    5  A    between atoms: C_9  and  C_10
REMARK                            x       y       z     vdW  Elec       q    Type
REMARK                         _______ _______ _______ _____ _____    ______ ____
ROOT
ATOM      1  N   UNL     1       5.871   5.425  17.450  0.00  0.00    +0.000 N 
ATOM      2  C   UNL     1       4.502   5.479  17.716  0.00  0.00    +0.000 A 
ATOM      3  N   UNL     1       3.762   4.361  17.616  0.00  0.00    +0.000 NA
ATOM      4  C   UNL     1       2.440   4.460  17.857  0.00  0.00    +0.000 A 
ATOM      5  C   UNL     1       1.810   5.639  18.151  0.00  0.00    +0.000 A 
ATOM      6  C   UNL     1       2.629   6.741  18.197  0.00  0.00    +0.000 A 
ATOM      7  N   UNL     1       3.958   6.664  18.015  0.00  0.00    +0.000 NA
ENDROOT
BRANCH   6   8
ATOM      8  C   UNL     1       2.121   8.060  18.499  0.00  0.00    +0.000 A 
ATOM      9  C   UNL     1       2.022   9.202  17.678  0.00  0.00    +0.000 A 
ATOM     10  N   UNL     1       1.450  10.238  18.281  0.00  0.00    +0.000 NA
ATOM     11  N   UNL     1       1.158   9.779  19.510  0.00  0.00    +0.000 N 
ATOM     12  N   UNL     1       0.501  10.568  20.388  0.00  0.00    +0.000 NA
ATOM     13  C   UNL     1       0.312  10.001  21.531  0.00  0.00    +0.000 A 
ATOM     14  C   UNL     1       0.757   8.647  21.928  0.00  0.00    +0.000 A 
ATOM     15  C   UNL     1       1.409   7.927  21.001  0.00  0.00    +0.000 A 
ATOM     16  C   UNL     1       1.599   8.484  19.710  0.00  0.00    +0.000 A 
ENDBRANCH   6   8
BRANCH   1  18
ATOM     17  C   UNL     1       7.904   5.497  18.893  0.00  0.00    +0.000 C 
ATOM     18  C   UNL     1       6.808   6.289  18.182  0.00  0.00    +0.000 C 
ATOM     19  C   UNL     1       7.413   7.386  17.301  0.00  0.00    +0.000 C 
ENDBRANCH   1  18
BRANCH   1  20
ATOM     20  C   UNL     1       6.387   4.396  16.539  0.00  0.00    +0.000 C 
ATOM     21  C   UNL     1       5.794   4.283  15.153  0.00  0.00    +0.000 C 
ATOM     22  C   UNL     1       7.208   4.741  15.322  0.00  0.00    +0.000 C 
ENDBRANCH   1  20
TORSDOF 3
ENDMDL
MODEL 2
REMARK VINA RESULT:      -7.5      1.228      2.005
REMARK  Name = 
REMARK  5 active torsions:
REMARK  status: ('A' for Active; 'I' for Inactive)
REMARK    1  A    between atoms: C_1  and  C_2
REMARK    2  A    between atoms: C_2  and  C_3
REMARK    3  A    between atoms: C_2  and  N_4
REMARK    4  A    between atoms: N_4  and  C_20
REMARK    5  A    between atoms: C_9  and  C_10
REMARK                            x       y       z     vdW  Elec       q    Type
REMARK                         _______ _______ _______ _____ _____    ______ ____
ROOT
ATOM      1  N   UNL     1       5.742   4.804  17.081  0.00  0.00    +0.000 N 
ATOM      2  C   UNL     1       4.430   4.629  17.523  0.00  0.00    +0.000 A 
ATOM      3  N   UNL     1       3.747   3.530  17.156  0.00  0.00    +0.000 NA
ATOM      4  C   UNL     1       2.475   3.410  17.582  0.00  0.00    +0.000 A 
ATOM      5  C   UNL     1       1.832   4.363  18.325  0.00  0.00    +0.000 A 
ATOM      6  C   UNL     1       2.585   5.471  18.626  0.00  0.00    +0.000 A 
ATOM      7  N   UNL     1       3.872   5.594  18.261  0.00  0.00    +0.000 NA
ENDROOT
BRANCH   6   8
ATOM      8  C   UNL     1       2.056   6.566  19.408  0.00  0.00    +0.000 A 
ATOM      9  C   UNL     1       1.640   6.598  20.756  0.00  0.00    +0.000 A 
ATOM     10  N   UNL     1       1.254   7.803  21.160  0.00  0.00    +0.000 NA
ATOM     11  N   UNL     1       1.424   8.581  20.077  0.00  0.00    +0.000 N 
ATOM     12  N   UNL     1       1.181   9.908  20.152  0.00  0.00    +0.000 NA
ATOM     13  C   UNL     1       1.365  10.517  19.031  0.00  0.00    +0.000 A 
ATOM     14  C   UNL     1       1.774   9.902  17.749  0.00  0.00    +0.000 A 
ATOM     15  C   UNL     1       1.991   8.578  17.754  0.00  0.00    +0.000 A 
ATOM     16  C   UNL     1       1.851   7.866  18.974  0.00  0.00    +0.000 A 
ENDBRANCH   6   8
BRANCH   1  18
ATOM     17  C   UNL     1       7.981   4.638  18.166  0.00  0.00    +0.000 C 
ATOM     18  C   UNL     1       6.731   5.483  17.930  0.00  0.00    +0.000 C 
ATOM     19  C   UNL     1       7.103   6.874  17.409  0.00  0.00    +0.000 C 
ENDBRANCH   1  18
BRANCH   1  20
ATOM     20  C   UNL     1       6.168   4.176  15.824  0.00  0.00    +0.000 C 
ATOM     21  C   UNL     1       5.592   4.683  14.522  0.00  0.00    +0.000 C 
ATOM     22  C   UNL     1       7.041   4.894  14.826  0.00  0.00    +0.000 C 
ENDBRANCH   1  20
TORSDOF 3
ENDMDL
MODEL 3
REMARK VINA RESULT:      -7.3      1.725      6.831
REMARK  Name = 
REMARK  5 active torsions:
REMARK  status: ('A' for Active; 'I' for Inactive)
REMARK    1  A    between atoms: C_1  and  C_2
REMARK    2  A    between atoms: C_2  and  C_3
REMARK    3  A    between atoms: C_2  and  N_4
REMARK    4  A    between atoms: N_4  and  C_20
REMARK    5  A    between atoms: C_9  and  C_10
REMARK                            x       y       z     vdW  Elec       q    Type
REMARK                         _______ _______ _______ _____ _____    ______ ____
ROOT
ATOM      1  N   UNL     1       1.730   8.079  19.836  0.00  0.00    +0.000 N 
ATOM      2  C   UNL     1       2.275   6.796  19.905  0.00  0.00    +0.000 A 
ATOM      3  N   UNL     1       1.612   5.828  20.563  0.00  0.00    +0.000 NA
ATOM      4  C   UNL     1       2.182   4.609  20.628  0.00  0.00    +0.000 A 
ATOM      5  C   UNL     1       3.414   4.320  20.104  0.00  0.00    +0.000 A 
ATOM      6  C   UNL     1       4.042   5.372  19.482  0.00  0.00    +0.000 A 
ATOM      7  N   UNL     1       3.475   6.583  19.355  0.00  0.00    +0.000 NA
ENDROOT
BRANCH   6   8
ATOM      8  C   UNL     1       5.345   5.232  18.872  0.00  0.00    +0.000 A 
ATOM      9  C   UNL     1       6.627   5.252  19.460  0.00  0.00    +0.000 A 
ATOM     10  N   UNL     1       7.610   5.039  18.592  0.00  0.00    +0.000 NA
ATOM     11  N   UNL     1       6.976   4.865  17.420  0.00  0.00    +0.000 N 
ATOM     12  N   UNL     1       7.682   4.561  16.308  0.00  0.00    +0.000 NA
ATOM     13  C   UNL     1       6.942   4.448  15.258  0.00  0.00    +0.000 A 
ATOM     14  C   UNL     1       5.477   4.639  15.186  0.00  0.00    +0.000 A 
ATOM     15  C   UNL     1       4.849   4.946  16.331  0.00  0.00    +0.000 A 
ATOM     16  C   UNL     1       5.608   5.033  17.527  0.00  0.00    +0.000 A 
ENDBRANCH   6   8
BRANCH   1  18
ATOM     17  C   UNL     1       2.612   8.155  17.506  0.00  0.00    +0.000 C 
ATOM     18  C   UNL     1       1.943   8.917  18.648  0.00  0.00    +0.000 C 
ATOM     19  C   UNL     1       0.659   9.601  18.168  0.00  0.00    +0.000 C 
ENDBRANCH   1  18
BRANCH   1  20
ATOM     20  C   UNL     1       0.820   8.532  20.896  0.00  0.00    +0.000 C 
ATOM     21  C   UNL     1       1.404   9.010  22.206  0.00  0.00    +0.000 C 
ATOM     22  C   UNL     1       0.719   9.982  21.298  0.00  0.00    +0.000 C 
ENDBRANCH   1  20
TORSDOF 3
ENDMDL
MODEL 4
REMARK VINA RESULT:      -7.2      2.544      4.228
REMARK  Name = 
REMARK  5 active torsions:
REMARK  status: ('A' for Active; 'I' for Inactive)
REMARK    1  A    between atoms: C_1  and  C_2
REMARK    2  A    between atoms: C_2  and  C_3
REMARK    3  A    between atoms: C_2  and  N_4
REMARK    4  A    between atoms: N_4  and  C_20
REMARK    5  A    between atoms: C_9  and  C_10
REMARK                            x       y       z     vdW  Elec       q    Type
REMARK                         _______ _______ _______ _____ _____    ______ ____
ROOT
ATOM      1  N   UNL     1       2.513   4.733  19.489  0.00  0.00    +0.000 N 
ATOM      2  C   UNL     1       2.343   6.088  19.198  0.00  0.00    +0.000 A 
ATOM      3  N   UNL     1       2.778   6.573  18.021  0.00  0.00    +0.000 NA
ATOM      4  C   UNL     1       2.617   7.890  17.788  0.00  0.00    +0.000 A 
ATOM      5  C   UNL     1       2.082   8.761  18.698  0.00  0.00    +0.000 A 
ATOM      6  C   UNL     1       1.698   8.194  19.889  0.00  0.00    +0.000 A 
ATOM      7  N   UNL     1       1.796   6.876  20.129  0.00  0.00    +0.000 NA
ENDROOT
BRANCH   6   8
ATOM      8  C   UNL     1       1.109   8.975  20.954  0.00  0.00    +0.000 A 
ATOM      9  C   UNL     1       1.361   8.948  22.342  0.00  0.00    +0.000 A 
ATOM     10  N   UNL     1       0.665   9.852  23.022  0.00  0.00    +0.000 NA
ATOM     11  N   UNL     1      -0.048  10.491  22.079  0.00  0.00    +0.000 N 
ATOM     12  N   UNL     1      -0.838  11.534  22.418  0.00  0.00    +0.000 NA
ATOM     13  C   UNL     1      -1.477  12.029  21.414  0.00  0.00    +0.000 A 
ATOM     14  C   UNL     1      -1.427  11.553  20.014  0.00  0.00    +0.000 A 
ATOM     15  C   UNL     1      -0.623  10.508  19.758  0.00  0.00    +0.000 A 
ATOM     16  C   UNL     1       0.141   9.956  20.818  0.00  0.00    +0.000 A 
ENDBRANCH   6   8
BRANCH   1  18
ATOM     17  C   UNL     1       0.876   2.854  19.543  0.00  0.00    +0.000 C 
ATOM     18  C   UNL     1       1.520   4.014  20.299  0.00  0.00    +0.000 C 
ATOM     19  C   UNL     1       2.081   3.544  21.644  0.00  0.00    +0.000 C 
ENDBRANCH   1  18
BRANCH   1  20
ATOM     20  C   UNL     1       3.615   3.995  18.860  0.00  0.00    +0.000 C 
ATOM     21  C   UNL     1       5.036   4.316  19.264  0.00  0.00    +0.000 C 
ATOM     22  C   UNL     1       4.443   2.990  19.620  0.00  0.00    +0.000 C 
ENDBRANCH   1  20
TORSDOF 3
ENDMDL
MODEL 5
REMARK VINA RESULT:      -7.0      1.578      6.895
REMARK  Name = 
REMARK  5 active torsions:
REMARK  status: ('A' for Active; 'I' for Inactive)
REMARK    1  A    between atoms: C_1  and  C_2
REMARK    2  A    between atoms: C_2  and  C_3
REMARK    3  A    between atoms: C_2  and  N_4
REMARK    4  A    between atoms: N_4  and  C_20
REMARK    5  A    between atoms: C_9  and  C_10
REMARK                            x       y       z     vdW  Elec       q    Type
REMARK                         _______ _______ _______ _____ _____    ______ ____
ROOT
ATOM      1  N   UNL     1       1.612   8.430  19.300  0.00  0.00    +0.000 N 
ATOM      2  C   UNL     1       2.385   7.270  19.238  0.00  0.00    +0.000 A 
ATOM      3  N   UNL     1       2.059   6.214  20.005  0.00  0.00    +0.000 NA
ATOM      4  C   UNL     1       2.844   5.121  19.934  0.00  0.00    +0.000 A 
ATOM      5  C   UNL     1       3.974   5.048  19.165  0.00  0.00    +0.000 A 
ATOM      6  C   UNL     1       4.259   6.181  18.441  0.00  0.00    +0.000 A 
ATOM      7  N   UNL     1       3.465   7.265  18.450  0.00  0.00    +0.000 NA
ENDROOT
BRANCH   6   8
ATOM      8  C   UNL     1       5.412   6.265  17.574  0.00  0.00    +0.000 A 
ATOM      9  C   UNL     1       6.568   7.067  17.681  0.00  0.00    +0.000 A 
ATOM     10  N   UNL     1       7.457   6.842  16.720  0.00  0.00    +0.000 NA
ATOM     11  N   UNL     1       6.893   5.877  15.974  0.00  0.00    +0.000 N 
ATOM     12  N   UNL     1       7.564   5.353  14.925  0.00  0.00    +0.000 NA
ATOM     13  C   UNL     1       6.889   4.455  14.292  0.00  0.00    +0.000 A 
ATOM     14  C   UNL     1       5.514   4.006  14.601  0.00  0.00    +0.000 A 
ATOM     15  C   UNL     1       4.911   4.577  15.655  0.00  0.00    +0.000 A 
ATOM     16  C   UNL     1       5.629   5.536  16.417  0.00  0.00    +0.000 A 
ENDBRANCH   6   8
BRANCH   1  18
ATOM     17  C   UNL     1      -0.048   9.602  17.855  0.00  0.00    +0.000 C 
ATOM     18  C   UNL     1       1.420   9.263  18.105  0.00  0.00    +0.000 C 
ATOM     19  C   UNL     1       2.277  10.532  18.123  0.00  0.00    +0.000 C 
ENDBRANCH   1  18
BRANCH   1  20
ATOM     20  C   UNL     1       0.871   8.737  20.530  0.00  0.00    +0.000 C 
ATOM     21  C   UNL     1       1.644   9.085  21.781  0.00  0.00    +0.000 C 
ATOM     22  C   UNL     1       0.814  10.130  21.104  0.00  0.00    +0.000 C 
ENDBRANCH   1  20
TORSDOF 3
ENDMDL
MODEL 6
REMARK VINA RESULT:      -6.9      1.813      3.594
REMARK  Name = 
REMARK  5 active torsions:
REMARK  status: ('A' for Active; 'I' for Inactive)
REMARK    1  A    between atoms: C_1  and  C_2
REMARK    2  A    between atoms: C_2  and  C_3
REMARK    3  A    between atoms: C_2  and  N_4
REMARK    4  A    between atoms: N_4  and  C_20
REMARK    5  A    between atoms: C_9  and  C_10
REMARK                            x       y       z     vdW  Elec       q    Type
REMARK                         _______ _______ _______ _____ _____    ______ ____
ROOT
ATOM      1  N   UNL     1       2.689   3.905  18.759  0.00  0.00    +0.000 N 
ATOM      2  C   UNL     1       3.101   5.112  18.193  0.00  0.00    +0.000 A 
ATOM      3  N   UNL     1       4.163   5.131  17.367  0.00  0.00    +0.000 NA
ATOM      4  C   UNL     1       4.544   6.319  16.861  0.00  0.00    +0.000 A 
ATOM      5  C   UNL     1       3.940   7.506  17.178  0.00  0.00    +0.000 A 
ATOM      6  C   UNL     1       2.889   7.408  18.057  0.00  0.00    +0.000 A 
ATOM      7  N   UNL     1       2.452   6.231  18.535  0.00  0.00    +0.000 NA
ENDROOT
BRANCH   6   8
ATOM      8  C   UNL     1       2.142   8.567  18.489  0.00  0.00    +0.000 A 
ATOM      9  C   UNL     1       1.843   9.761  17.799  0.00  0.00    +0.000 A 
ATOM     10  N   UNL     1       1.081  10.596  18.495  0.00  0.00    +0.000 NA
ATOM     11  N   UNL     1       0.862   9.950  19.653  0.00  0.00    +0.000 N 
ATOM     12  N   UNL     1       0.058  10.497  20.591  0.00  0.00    +0.000 NA
ATOM     13  C   UNL     1      -0.038   9.774  21.654  0.00  0.00    +0.000 A 
ATOM     14  C   UNL     1       0.644   8.487  21.911  0.00  0.00    +0.000 A 
ATOM     15  C   UNL     1       1.431   8.012  20.933  0.00  0.00    +0.000 A 
ATOM     16  C   UNL     1       1.533   8.743  19.721  0.00  0.00    +0.000 A 
ENDBRANCH   6   8
BRANCH   1  18
ATOM     17  C   UNL     1       0.839   2.239  18.634  0.00  0.00    +0.000 C 
ATOM     18  C   UNL     1       1.266   3.652  19.023  0.00  0.00    +0.000 C 
ATOM     19  C   UNL     1       0.868   3.964  20.469  0.00  0.00    +0.000 C 
ENDBRANCH   1  18
BRANCH   1  20
ATOM     20  C   UNL     1       3.670   2.830  18.954  0.00  0.00    +0.000 C 
ATOM     21  C   UNL     1       4.941   3.129  19.716  0.00  0.00    +0.000 C 
ATOM     22  C   UNL     1       3.919   2.208  20.305  0.00  0.00    +0.000 C 
ENDBRANCH   1  20
TORSDOF 3
ENDMDL
MODEL 7
REMARK VINA RESULT:      -6.8      2.510      6.539
REMARK  Name = 
REMARK  5 active torsions:
REMARK  status: ('A' for Active; 'I' for Inactive)
REMARK    1  A    between atoms: C_1  and  C_2
REMARK    2  A    between atoms: C_2  and  C_3
REMARK    3  A    between atoms: C_2  and  N_4
REMARK    4  A    between atoms: N_4  and  C_20
REMARK    5  A    between atoms: C_9  and  C_10
REMARK                            x       y       z     vdW  Elec       q    Type
REMARK                         _______ _______ _______ _____ _____    ______ ____
ROOT
ATOM      1  N   UNL     1       2.582   3.692  19.661  0.00  0.00    +0.000 N 
ATOM      2  C   UNL     1       2.905   4.941  19.128  0.00  0.00    +0.000 A 
ATOM      3  N   UNL     1       2.058   5.973  19.295  0.00  0.00    +0.000 NA
ATOM      4  C   UNL     1       2.394   7.156  18.745  0.00  0.00    +0.000 A 
ATOM      5  C   UNL     1       3.521   7.348  17.991  0.00  0.00    +0.000 A 
ATOM      6  C   UNL     1       4.313   6.236  17.836  0.00  0.00    +0.000 A 
ATOM      7  N   UNL     1       4.032   5.058  18.418  0.00  0.00    +0.000 NA
ENDROOT
BRANCH   6   8
ATOM      8  C   UNL     1       5.541   6.272  17.074  0.00  0.00    +0.000 A 
ATOM      9  C   UNL     1       6.743   6.966  17.326  0.00  0.00    +0.000 A 
ATOM     10  N   UNL     1       7.691   6.721  16.429  0.00  0.00    +0.000 NA
ATOM     11  N   UNL     1       7.120   5.851  15.579  0.00  0.00    +0.000 N 
ATOM     12  N   UNL     1       7.836   5.334  14.557  0.00  0.00    +0.000 NA
ATOM     13  C   UNL     1       7.149   4.534  13.815  0.00  0.00    +0.000 A 
ATOM     14  C   UNL     1       5.721   4.186  13.979  0.00  0.00    +0.000 A 
ATOM     15  C   UNL     1       5.076   4.746  15.015  0.00  0.00    +0.000 A 
ATOM     16  C   UNL     1       5.798   5.595  15.893  0.00  0.00    +0.000 A 
ENDBRANCH   6   8
BRANCH   1  18
ATOM     17  C   UNL     1       3.297   2.187  21.515  0.00  0.00    +0.000 C 
ATOM     18  C   UNL     1       3.637   2.798  20.157  0.00  0.00    +0.000 C 
ATOM     19  C   UNL     1       4.012   1.709  19.148  0.00  0.00    +0.000 C 
ENDBRANCH   1  18
BRANCH   1  20
ATOM     20  C   UNL     1       1.171   3.337  19.858  0.00  0.00    +0.000 C 
ATOM     21  C   UNL     1       0.302   3.094  18.646  0.00  0.00    +0.000 C 
ATOM     22  C   UNL     1       0.642   1.958  19.557  0.00  0.00    +0.000 C 
ENDBRANCH   1  20
TORSDOF 3
ENDMDL
MODEL 8
REMARK VINA RESULT:      -6.6      2.251      6.957
REMARK  Name = 
REMARK  5 active torsions:
REMARK  status: ('A' for Active; 'I' for Inactive)
REMARK    1  A    between atoms: C_1  and  C_2
REMARK    2  A    between atoms: C_2  and  C_3
REMARK    3  A    between atoms: C_2  and  N_4
REMARK    4  A    between atoms: N_4  and  C_20
REMARK    5  A    between atoms: C_9  and  C_10
REMARK                            x       y       z     vdW  Elec       q    Type
REMARK                         _______ _______ _______ _____ _____    ______ ____
ROOT
ATOM      1  N   UNL     1       2.304   5.655  19.706  0.00  0.00    +0.000 N 
ATOM      2  C   UNL     1       2.772   4.876  18.647  0.00  0.00    +0.000 A 
ATOM      3  N   UNL     1       2.164   3.711  18.361  0.00  0.00    +0.000 NA
ATOM      4  C   UNL     1       2.661   2.977  17.346  0.00  0.00    +0.000 A 
ATOM      5  C   UNL     1       3.771   3.330  16.629  0.00  0.00    +0.000 A 
ATOM      6  C   UNL     1       4.357   4.514  17.007  0.00  0.00    +0.000 A 
ATOM      7  N   UNL     1       3.852   5.294  17.978  0.00  0.00    +0.000 NA
ENDROOT
BRANCH   6   8
ATOM      8  C   UNL     1       5.534   5.031  16.347  0.00  0.00    +0.000 A 
ATOM      9  C   UNL     1       6.532   5.904  16.828  0.00  0.00    +0.000 A 
ATOM     10  N   UNL     1       7.505   6.127  15.952  0.00  0.00    +0.000 NA
ATOM     11  N   UNL     1       7.157   5.390  14.884  0.00  0.00    +0.000 N 
ATOM     12  N   UNL     1       7.972   5.333  13.807  0.00  0.00    +0.000 NA
ATOM     13  C   UNL     1       7.495   4.606  12.854  0.00  0.00    +0.000 A 
ATOM     14  C   UNL     1       6.196   3.899  12.848  0.00  0.00    +0.000 A 
ATOM     15  C   UNL     1       5.441   4.009  13.953  0.00  0.00    +0.000 A 
ATOM     16  C   UNL     1       5.941   4.755  15.052  0.00  0.00    +0.000 A 
ENDBRANCH   6   8
BRANCH   1  18
ATOM     17  C   UNL     1       2.032   7.666  18.257  0.00  0.00    +0.000 C 
ATOM     18  C   UNL     1       2.375   7.122  19.642  0.00  0.00    +0.000 C 
ATOM     19  C   UNL     1       1.528   7.803  20.720  0.00  0.00    +0.000 C 
ENDBRANCH   1  18
BRANCH   1  20
ATOM     20  C   UNL     1       1.606   5.007  20.823  0.00  0.00    +0.000 C 
ATOM     21  C   UNL     1       1.024   3.626  20.619  0.00  0.00    +0.000 C 
ATOM     22  C   UNL     1       2.183   3.816  21.545  0.00  0.00    +0.000 C 
ENDBRANCH   1  20
TORSDOF 3
ENDMDL
MODEL 9
REMARK VINA RESULT:      -6.6      2.133      3.644
REMARK  Name = 
REMARK  5 active torsions:
REMARK  status: ('A' for Active; 'I' for Inactive)
REMARK    1  A    between atoms: C_1  and  C_2
REMARK    2  A    between atoms: C_2  and  C_3
REMARK    3  A    between atoms: C_2  and  N_4
REMARK    4  A    between atoms: N_4  and  C_20
REMARK    5  A    between atoms: C_9  and  C_10
REMARK                            x       y       z     vdW  Elec       q    Type
REMARK                         _______ _______ _______ _____ _____    ______ ____
ROOT
ATOM      1  N   UNL     1       2.708   4.302  19.747  0.00  0.00    +0.000 N 
ATOM      2  C   UNL     1       2.908   5.484  19.031  0.00  0.00    +0.000 A 
ATOM      3  N   UNL     1       3.916   5.560  18.144  0.00  0.00    +0.000 NA
ATOM      4  C   UNL     1       4.092   6.724  17.491  0.00  0.00    +0.000 A 
ATOM      5  C   UNL     1       3.333   7.841  17.717  0.00  0.00    +0.000 A 
ATOM      6  C   UNL     1       2.349   7.694  18.665  0.00  0.00    +0.000 A 
ATOM      7  N   UNL     1       2.116   6.529  19.292  0.00  0.00    +0.000 NA
ENDROOT
BRANCH   6   8
ATOM      8  C   UNL     1       1.457   8.775  19.016  0.00  0.00    +0.000 A 
ATOM      9  C   UNL     1       0.802   9.713  18.191  0.00  0.00    +0.000 A 
ATOM     10  N   UNL     1       0.008  10.541  18.860  0.00  0.00    +0.000 NA
ATOM     11  N   UNL     1       0.128  10.146  20.139  0.00  0.00    +0.000 N 
ATOM     12  N   UNL     1      -0.604  10.745  21.104  0.00  0.00    +0.000 NA
ATOM     13  C   UNL     1      -0.365  10.276  22.281  0.00  0.00    +0.000 A 
ATOM     14  C   UNL     1       0.607   9.216  22.628  0.00  0.00    +0.000 A 
ATOM     15  C   UNL     1       1.301   8.675  21.614  0.00  0.00    +0.000 A 
ATOM     16  C   UNL     1       1.040   9.119  20.292  0.00  0.00    +0.000 A 
ENDBRANCH   6   8
BRANCH   1  18
ATOM     17  C   UNL     1       0.645   3.114  19.008  0.00  0.00    +0.000 C 
ATOM     18  C   UNL     1       1.352   3.880  20.124  0.00  0.00    +0.000 C 
ATOM     19  C   UNL     1       1.322   3.086  21.433  0.00  0.00    +0.000 C 
ENDBRANCH   1  18
BRANCH   1  20
ATOM     20  C   UNL     1       3.847   3.409  19.994  0.00  0.00    +0.000 C 
ATOM     21  C   UNL     1       3.961   2.132  19.193  0.00  0.00    +0.000 C 
ATOM     22  C   UNL     1       4.957   3.230  18.991  0.00  0.00    +0.000 C 
ENDBRANCH   1  20
TORSDOF 3
ENDMDL
