MODEL 1
REMARK VINA RESULT:      -7.5      0.000      0.000
REMARK  Name = 
REMARK  2 active torsions:
REMARK  status: ('A' for Active; 'I' for Inactive)
REMARK    1  A    between atoms: C_4  and  C_5
REMARK    2  A    between atoms: N_9  and  C_10
REMARK                            x       y       z     vdW  Elec       q    Type
REMARK                         _______ _______ _______ _____ _____    ______ ____
ROOT
ATOM      1  C   UNL     1       6.454   4.494  16.202  0.00  0.00    +0.000 C 
ATOM      2  O   UNL     1       7.617   5.098  16.795  0.00  0.00    +0.000 OA
ATOM      3  C   UNL     1       7.290   6.445  17.143  0.00  0.00    +0.000 C 
ATOM      4  C   UNL     1       5.793   6.626  16.970  0.00  0.00    +0.000 C 
ATOM      5  N   UNL     1       5.308   5.307  16.598  0.00  0.00    +0.000 N 
ENDROOT
BRANCH   1   9
ATOM      6  C   UNL     1       7.027   4.301  11.894  0.00  0.00    +0.000 A 
ATOM      7  C   UNL     1       7.834   5.128  12.671  0.00  0.00    +0.000 A 
ATOM      8  C   UNL     1       7.642   5.191  14.054  0.00  0.00    +0.000 A 
ATOM      9  C   UNL     1       6.630   4.442  14.685  0.00  0.00    +0.000 A 
ATOM     10  C   UNL     1       5.843   3.597  13.882  0.00  0.00    +0.000 A 
ATOM     11  C   UNL     1       6.036   3.533  12.499  0.00  0.00    +0.000 A 
ENDBRANCH   1   9
BRANCH   5  12
ATOM     12  C   UNL     1       4.123   4.834  17.131  0.00  0.00    +0.000 A 
ATOM     13  C   UNL     1       3.749   3.486  16.969  0.00  0.00    +0.000 A 
ATOM     14  C   UNL     1       2.537   2.978  17.447  0.00  0.00    +0.000 A 
ATOM     15  C   UNL     1       1.664   3.806  18.137  0.00  0.00    +0.000 A 
ATOM     16  C   UNL     1       2.024   5.128  18.367  0.00  0.00    +0.000 A 
ATOM     17  C   UNL     1       3.242   5.628  17.882  0.00  0.00    +0.000 A 
ENDBRANCH   5  12
TORSDOF 2
ENDMDL
MODEL 2
REMARK VINA RESULT:      -7.4      0.084      1.172
REMARK  Name = 
REMARK  2 active torsions:
REMARK  status: ('A' for Active; 'I' for Inactive)
REMARK    1  A    between atoms: C_4  and  C_5
REMARK    2  A    between atoms: N_9  and  C_10
REMARK                            x       y       z     vdW  Elec       q    Type
REMARK                         _______ _______ _______ _____ _____    ______ ____
ROOT
ATOM      1  C   UNL     1       6.497   4.538  16.257  0.00  0.00    +0.000 C 
ATOM      2  O   UNL     1       7.645   5.160  16.861  0.00  0.00    +0.000 OA
ATOM      3  C   UNL     1       7.307   6.515  17.164  0.00  0.00    +0.000 C 
ATOM      4  C   UNL     1       5.815   6.689  16.952  0.00  0.00    +0.000 C 
ATOM      5  N   UNL     1       5.341   5.360  16.604  0.00  0.00    +0.000 N 
ENDROOT
BRANCH   1   9
ATOM      6  C   UNL     1       7.028   4.317  11.945  0.00  0.00    +0.000 A 
ATOM      7  C   UNL     1       6.059   3.539  12.571  0.00  0.00    +0.000 A 
ATOM      8  C   UNL     1       5.895   3.610  13.958  0.00  0.00    +0.000 A 
ATOM      9  C   UNL     1       6.709   4.446  14.747  0.00  0.00    +0.000 A 
ATOM     10  C   UNL     1       7.666   5.238  14.089  0.00  0.00    +0.000 A 
ATOM     11  C   UNL     1       7.828   5.170  12.702  0.00  0.00    +0.000 A 
ENDBRANCH   1   9
BRANCH   5  12
ATOM     12  C   UNL     1       4.143   4.900  17.121  0.00  0.00    +0.000 A 
ATOM     13  C   UNL     1       3.786   3.542  17.007  0.00  0.00    +0.000 A 
ATOM     14  C   UNL     1       2.563   3.043  17.471  0.00  0.00    +0.000 A 
ATOM     15  C   UNL     1       1.664   3.893  18.097  0.00  0.00    +0.000 A 
ATOM     16  C   UNL     1       2.005   5.226  18.280  0.00  0.00    +0.000 A 
ATOM     17  C   UNL     1       3.234   5.716  17.810  0.00  0.00    +0.000 A 
ENDBRANCH   5  12
TORSDOF 2
ENDMDL
MODEL 3
REMARK VINA RESULT:      -7.4      0.810      5.313
REMARK  Name = 
REMARK  2 active torsions:
REMARK  status: ('A' for Active; 'I' for Inactive)
REMARK    1  A    between atoms: C_4  and  C_5
REMARK    2  A    between atoms: N_9  and  C_10
REMARK                            x       y       z     vdW  Elec       q    Type
REMARK                         _______ _______ _______ _____ _____    ______ ____
ROOT
ATOM      1  C   UNL     1       5.477   5.847  16.590  0.00  0.00    +0.000 C 
ATOM      2  O   UNL     1       6.224   6.487  17.640  0.00  0.00    +0.000 OA
ATOM      3  C   UNL     1       7.307   5.629  18.002  0.00  0.00    +0.000 C 
ATOM      4  C   UNL     1       7.380   4.507  16.984  0.00  0.00    +0.000 C 
ATOM      5  N   UNL     1       6.353   4.833  16.009  0.00  0.00    +0.000 N 
ENDROOT
BRANCH   1   9
ATOM      6  C   UNL     1       1.796   4.175  18.194  0.00  0.00    +0.000 A 
ATOM      7  C   UNL     1       2.127   5.504  18.443  0.00  0.00    +0.000 A 
ATOM      8  C   UNL     1       3.315   6.035  17.930  0.00  0.00    +0.000 A 
ATOM      9  C   UNL     1       4.200   5.244  17.173  0.00  0.00    +0.000 A 
ATOM     10  C   UNL     1       3.833   3.912  16.917  0.00  0.00    +0.000 A 
ATOM     11  C   UNL     1       2.645   3.381  17.428  0.00  0.00    +0.000 A 
ENDBRANCH   1   9
BRANCH   5  12
ATOM     12  C   UNL     1       6.600   4.650  14.661  0.00  0.00    +0.000 A 
ATOM     13  C   UNL     1       5.842   3.731  13.910  0.00  0.00    +0.000 A 
ATOM     14  C   UNL     1       6.092   3.478  12.556  0.00  0.00    +0.000 A 
ATOM     15  C   UNL     1       7.099   4.168  11.899  0.00  0.00    +0.000 A 
ATOM     16  C   UNL     1       7.830   5.124  12.591  0.00  0.00    +0.000 A 
ATOM     17  C   UNL     1       7.572   5.369  13.949  0.00  0.00    +0.000 A 
ENDBRANCH   5  12
TORSDOF 2
ENDMDL
MODEL 4
REMARK VINA RESULT:      -7.4      1.676      3.897
REMARK  Name = 
REMARK  2 active torsions:
REMARK  status: ('A' for Active; 'I' for Inactive)
REMARK    1  A    between atoms: C_4  and  C_5
REMARK    2  A    between atoms: N_9  and  C_10
REMARK                            x       y       z     vdW  Elec       q    Type
REMARK                         _______ _______ _______ _____ _____    ______ ____
ROOT
ATOM      1  C   UNL     1       5.095   5.796  16.479  0.00  0.00    +0.000 C 
ATOM      2  O   UNL     1       5.446   5.954  15.093  0.00  0.00    +0.000 OA
ATOM      3  C   UNL     1       5.834   4.677  14.584  0.00  0.00    +0.000 C 
ATOM      4  C   UNL     1       5.495   3.630  15.629  0.00  0.00    +0.000 C 
ATOM      5  N   UNL     1       4.833   4.374  16.687  0.00  0.00    +0.000 N 
ENDROOT
BRANCH   1   9
ATOM      6  C   UNL     1       8.405   7.198  18.928  0.00  0.00    +0.000 A 
ATOM      7  C   UNL     1       7.822   5.960  19.182  0.00  0.00    +0.000 A 
ATOM      8  C   UNL     1       6.755   5.516  18.396  0.00  0.00    +0.000 A 
ATOM      9  C   UNL     1       6.239   6.308  17.352  0.00  0.00    +0.000 A 
ATOM     10  C   UNL     1       6.859   7.545  17.101  0.00  0.00    +0.000 A 
ATOM     11  C   UNL     1       7.927   7.988  17.885  0.00  0.00    +0.000 A 
ENDBRANCH   1   9
BRANCH   5  12
ATOM     12  C   UNL     1       3.726   3.837  17.318  0.00  0.00    +0.000 A 
ATOM     13  C   UNL     1       3.731   2.501  17.763  0.00  0.00    +0.000 A 
ATOM     14  C   UNL     1       2.616   1.901  18.360  0.00  0.00    +0.000 A 
ATOM     15  C   UNL     1       1.459   2.639  18.559  0.00  0.00    +0.000 A 
ATOM     16  C   UNL     1       1.435   3.977  18.186  0.00  0.00    +0.000 A 
ATOM     17  C   UNL     1       2.558   4.567  17.587  0.00  0.00    +0.000 A 
ENDBRANCH   5  12
TORSDOF 2
ENDMDL
MODEL 5
REMARK VINA RESULT:      -7.4      0.101      1.162
REMARK  Name = 
REMARK  2 active torsions:
REMARK  status: ('A' for Active; 'I' for Inactive)
REMARK    1  A    between atoms: C_4  and  C_5
REMARK    2  A    between atoms: N_9  and  C_10
REMARK                            x       y       z     vdW  Elec       q    Type
REMARK                         _______ _______ _______ _____ _____    ______ ____
ROOT
ATOM      1  C   UNL     1       6.489   4.543  16.189  0.00  0.00    +0.000 C 
ATOM      2  O   UNL     1       7.615   5.220  16.774  0.00  0.00    +0.000 OA
ATOM      3  C   UNL     1       7.211   6.550  17.104  0.00  0.00    +0.000 C 
ATOM      4  C   UNL     1       5.707   6.644  16.929  0.00  0.00    +0.000 C 
ATOM      5  N   UNL     1       5.298   5.295  16.574  0.00  0.00    +0.000 N 
ENDROOT
BRANCH   1   9
ATOM      6  C   UNL     1       7.073   4.321  11.884  0.00  0.00    +0.000 A 
ATOM      7  C   UNL     1       7.880   5.150  12.658  0.00  0.00    +0.000 A 
ATOM      8  C   UNL     1       7.685   5.222  14.040  0.00  0.00    +0.000 A 
ATOM      9  C   UNL     1       6.669   4.480  14.673  0.00  0.00    +0.000 A 
ATOM     10  C   UNL     1       5.881   3.634  13.873  0.00  0.00    +0.000 A 
ATOM     11  C   UNL     1       6.078   3.560  12.491  0.00  0.00    +0.000 A 
ENDBRANCH   1   9
BRANCH   5  12
ATOM     12  C   UNL     1       4.141   4.763  17.113  0.00  0.00    +0.000 A 
ATOM     13  C   UNL     1       3.227   5.582  17.804  0.00  0.00    +0.000 A 
ATOM     14  C   UNL     1       2.070   5.078  18.408  0.00  0.00    +0.000 A 
ATOM     15  C   UNL     1       1.774   3.726  18.311  0.00  0.00    +0.000 A 
ATOM     16  C   UNL     1       2.620   2.897  17.587  0.00  0.00    +0.000 A 
ATOM     17  C   UNL     1       3.779   3.413  16.987  0.00  0.00    +0.000 A 
ENDBRANCH   5  12
TORSDOF 2
ENDMDL
MODEL 6
REMARK VINA RESULT:      -7.4      0.083      1.647
REMARK  Name = 
REMARK  2 active torsions:
REMARK  status: ('A' for Active; 'I' for Inactive)
REMARK    1  A    between atoms: C_4  and  C_5
REMARK    2  A    between atoms: N_9  and  C_10
REMARK                            x       y       z     vdW  Elec       q    Type
REMARK                         _______ _______ _______ _____ _____    ______ ____
ROOT
ATOM      1  C   UNL     1       6.471   4.482  16.249  0.00  0.00    +0.000 C 
ATOM      2  O   UNL     1       7.616   5.101  16.862  0.00  0.00    +0.000 OA
ATOM      3  C   UNL     1       7.274   6.452  17.178  0.00  0.00    +0.000 C 
ATOM      4  C   UNL     1       5.782   6.623  16.964  0.00  0.00    +0.000 C 
ATOM      5  N   UNL     1       5.312   5.297  16.602  0.00  0.00    +0.000 N 
ENDROOT
BRANCH   1   9
ATOM      6  C   UNL     1       7.012   4.305  11.937  0.00  0.00    +0.000 A 
ATOM      7  C   UNL     1       6.043   3.519  12.553  0.00  0.00    +0.000 A 
ATOM      8  C   UNL     1       5.877   3.575  13.940  0.00  0.00    +0.000 A 
ATOM      9  C   UNL     1       6.686   4.405  14.739  0.00  0.00    +0.000 A 
ATOM     10  C   UNL     1       7.644   5.205  14.091  0.00  0.00    +0.000 A 
ATOM     11  C   UNL     1       7.809   5.151  12.704  0.00  0.00    +0.000 A 
ENDBRANCH   1   9
BRANCH   5  12
ATOM     12  C   UNL     1       4.115   4.828  17.112  0.00  0.00    +0.000 A 
ATOM     13  C   UNL     1       3.222   5.699  17.767  0.00  0.00    +0.000 A 
ATOM     14  C   UNL     1       2.025   5.258  18.341  0.00  0.00    +0.000 A 
ATOM     15  C   UNL     1       1.666   3.921  18.250  0.00  0.00    +0.000 A 
ATOM     16  C   UNL     1       2.492   3.043  17.562  0.00  0.00    +0.000 A 
ATOM     17  C   UNL     1       3.692   3.495  16.990  0.00  0.00    +0.000 A 
ENDBRANCH   5  12
TORSDOF 2
ENDMDL
MODEL 7
REMARK VINA RESULT:      -7.4      0.835      5.381
REMARK  Name = 
REMARK  2 active torsions:
REMARK  status: ('A' for Active; 'I' for Inactive)
REMARK    1  A    between atoms: C_4  and  C_5
REMARK    2  A    between atoms: N_9  and  C_10
REMARK                            x       y       z     vdW  Elec       q    Type
REMARK                         _______ _______ _______ _____ _____    ______ ____
ROOT
ATOM      1  C   UNL     1       5.507   5.932  16.532  0.00  0.00    +0.000 C 
ATOM      2  O   UNL     1       6.272   6.613  17.542  0.00  0.00    +0.000 OA
ATOM      3  C   UNL     1       7.350   5.760  17.933  0.00  0.00    +0.000 C 
ATOM      4  C   UNL     1       7.398   4.589  16.969  0.00  0.00    +0.000 C 
ATOM      5  N   UNL     1       6.363   4.880  15.991  0.00  0.00    +0.000 N 
ENDROOT
BRANCH   1   9
ATOM      6  C   UNL     1       1.825   4.386  18.258  0.00  0.00    +0.000 A 
ATOM      7  C   UNL     1       2.195   5.711  18.471  0.00  0.00    +0.000 A 
ATOM      8  C   UNL     1       3.383   6.201  17.920  0.00  0.00    +0.000 A 
ATOM      9  C   UNL     1       4.229   5.373  17.158  0.00  0.00    +0.000 A 
ATOM     10  C   UNL     1       3.823   4.046  16.938  0.00  0.00    +0.000 A 
ATOM     11  C   UNL     1       2.635   3.555  17.488  0.00  0.00    +0.000 A 
ENDBRANCH   1   9
BRANCH   5  12
ATOM     12  C   UNL     1       6.593   4.630  14.651  0.00  0.00    +0.000 A 
ATOM     13  C   UNL     1       7.595   5.329  13.951  0.00  0.00    +0.000 A 
ATOM     14  C   UNL     1       7.828   5.144  12.583  0.00  0.00    +0.000 A 
ATOM     15  C   UNL     1       7.075   4.220  11.874  0.00  0.00    +0.000 A 
ATOM     16  C   UNL     1       6.117   3.469  12.542  0.00  0.00    +0.000 A 
ATOM     17  C   UNL     1       5.891   3.664  13.913  0.00  0.00    +0.000 A 
ENDBRANCH   5  12
TORSDOF 2
ENDMDL
MODEL 8
REMARK VINA RESULT:      -7.4      0.845      5.381
REMARK  Name = 
REMARK  2 active torsions:
REMARK  status: ('A' for Active; 'I' for Inactive)
REMARK    1  A    between atoms: C_4  and  C_5
REMARK    2  A    between atoms: N_9  and  C_10
REMARK                            x       y       z     vdW  Elec       q    Type
REMARK                         _______ _______ _______ _____ _____    ______ ____
ROOT
ATOM      1  C   UNL     1       5.530   5.959  16.560  0.00  0.00    +0.000 C 
ATOM      2  O   UNL     1       6.306   6.579  17.601  0.00  0.00    +0.000 OA
ATOM      3  C   UNL     1       7.346   5.675  17.977  0.00  0.00    +0.000 C 
ATOM      4  C   UNL     1       7.366   4.535  16.976  0.00  0.00    +0.000 C 
ATOM      5  N   UNL     1       6.356   4.895  15.996  0.00  0.00    +0.000 N 
ENDROOT
BRANCH   1   9
ATOM      6  C   UNL     1       1.860   4.402  18.299  0.00  0.00    +0.000 A 
ATOM      7  C   UNL     1       2.678   3.575  17.535  0.00  0.00    +0.000 A 
ATOM      8  C   UNL     1       3.854   4.081  16.973  0.00  0.00    +0.000 A 
ATOM      9  C   UNL     1       4.225   5.427  17.151  0.00  0.00    +0.000 A 
ATOM     10  C   UNL     1       3.394   6.238  17.944  0.00  0.00    +0.000 A 
ATOM     11  C   UNL     1       2.219   5.731  18.507  0.00  0.00    +0.000 A 
ENDBRANCH   1   9
BRANCH   5  12
ATOM     12  C   UNL     1       6.595   4.680  14.651  0.00  0.00    +0.000 A 
ATOM     13  C   UNL     1       5.827   3.748  13.925  0.00  0.00    +0.000 A 
ATOM     14  C   UNL     1       6.068   3.463  12.576  0.00  0.00    +0.000 A 
ATOM     15  C   UNL     1       7.076   4.131  11.897  0.00  0.00    +0.000 A 
ATOM     16  C   UNL     1       7.816   5.098  12.564  0.00  0.00    +0.000 A 
ATOM     17  C   UNL     1       7.567   5.376  13.917  0.00  0.00    +0.000 A 
ENDBRANCH   5  12
TORSDOF 2
ENDMDL
MODEL 9
REMARK VINA RESULT:      -7.3      1.647      4.038
REMARK  Name = 
REMARK  2 active torsions:
REMARK  status: ('A' for Active; 'I' for Inactive)
REMARK    1  A    between atoms: C_4  and  C_5
REMARK    2  A    between atoms: N_9  and  C_10
REMARK                            x       y       z     vdW  Elec       q    Type
REMARK                         _______ _______ _______ _____ _____    ______ ____
ROOT
ATOM      1  C   UNL     1       5.131   5.791  16.461  0.00  0.00    +0.000 C 
ATOM      2  O   UNL     1       5.493   5.937  15.076  0.00  0.00    +0.000 OA
ATOM      3  C   UNL     1       5.893   4.656  14.585  0.00  0.00    +0.000 C 
ATOM      4  C   UNL     1       5.551   3.619  15.638  0.00  0.00    +0.000 C 
ATOM      5  N   UNL     1       4.876   4.370  16.683  0.00  0.00    +0.000 N 
ENDROOT
BRANCH   1   9
ATOM      6  C   UNL     1       8.412   7.242  18.921  0.00  0.00    +0.000 A 
ATOM      7  C   UNL     1       7.851   5.992  19.168  0.00  0.00    +0.000 A 
ATOM      8  C   UNL     1       6.793   5.532  18.379  0.00  0.00    +0.000 A 
ATOM      9  C   UNL     1       6.264   6.320  17.338  0.00  0.00    +0.000 A 
ATOM     10  C   UNL     1       6.861   7.569  17.093  0.00  0.00    +0.000 A 
ATOM     11  C   UNL     1       7.920   8.028  17.882  0.00  0.00    +0.000 A 
ENDBRANCH   1   9
BRANCH   5  12
ATOM     12  C   UNL     1       3.767   3.833  17.309  0.00  0.00    +0.000 A 
ATOM     13  C   UNL     1       2.660   4.642  17.629  0.00  0.00    +0.000 A 
ATOM     14  C   UNL     1       1.539   4.151  18.308  0.00  0.00    +0.000 A 
ATOM     15  C   UNL     1       1.479   2.812  18.664  0.00  0.00    +0.000 A 
ATOM     16  C   UNL     1       2.525   1.970  18.314  0.00  0.00    +0.000 A 
ATOM     17  C   UNL     1       3.646   2.473  17.635  0.00  0.00    +0.000 A 
ENDBRANCH   5  12
TORSDOF 2
ENDMDL
