MODEL 1
REMARK VINA RESULT:      -6.6      0.000      0.000
REMARK  Name = 
REMARK  7 active torsions:
REMARK  status: ('A' for Active; 'I' for Inactive)
REMARK    1  A    between atoms: C_1  and  O_2
REMARK    2  A    between atoms: O_2  and  C_3
REMARK    3  A    between atoms: C_5  and  C_6
REMARK    4  A    between atoms: C_7  and  O_8
REMARK    5  A    between atoms: C_7  and  C_9
REMARK    6  A    between atoms: C_14  and  O_15
REMARK    7  A    between atoms: O_15  and  C_16
REMARK                            x       y       z     vdW  Elec       q    Type
REMARK                         _______ _______ _______ _____ _____    ______ ____
ROOT
ATOM      1  C   UNL     1       6.550   4.577  15.434  0.00  0.00    +0.000 A 
ATOM      2  C   UNL     1       5.199   4.515  15.671  0.00  0.00    +0.000 A 
ATOM      3  C   UNL     1       4.820   4.540  16.997  0.00  0.00    +0.000 A 
ATOM      4  N   UNL     1       5.711   4.588  17.999  0.00  0.00    +0.000 NA
ATOM      5  C   UNL     1       7.007   4.622  17.649  0.00  0.00    +0.000 A 
ATOM      6  N   UNL     1       7.474   4.627  16.399  0.00  0.00    +0.000 NA
ENDROOT
BRANCH   1   8
ATOM      7  C   UNL     1       6.154   3.725  13.293  0.00  0.00    +0.000 C 
ATOM      8  O   UNL     1       6.946   4.587  14.110  0.00  0.00    +0.000 OA
ENDBRANCH   1   8
BRANCH   3   9
ATOM      9  C   UNL     1       3.386   4.523  17.343  0.00  0.00    +0.000 C 
ATOM     10  C   UNL     1       2.684   3.572  17.996  0.00  0.00    +0.000 C 
BRANCH  10  11
ATOM     11  C   UNL     1       3.230   2.253  18.530  0.00  0.00    +0.000 C 
ATOM     12  F   UNL     1       2.239   1.475  19.049  0.00  0.00    +0.000 F 
ATOM     13  F   UNL     1       3.820   1.499  17.566  0.00  0.00    +0.000 F 
ATOM     14  F   UNL     1       4.126   2.426  19.536  0.00  0.00    +0.000 F 
ENDBRANCH  10  11
BRANCH  10  15
ATOM     15  O   UNL     1       1.319   3.779  18.234  0.00  0.00    +0.000 OA
ATOM     16  H   UNL     1       1.118   4.730  18.238  0.00  0.00    +0.000 HD
ENDBRANCH  10  15
ENDBRANCH   3   9
BRANCH   5  17
ATOM     17  O   UNL     1       7.993   4.652  18.609  0.00  0.00    +0.000 OA
ATOM     18  C   UNL     1       7.937   5.797  19.444  0.00  0.00    +0.000 C 
ENDBRANCH   5  17
TORSDOF 5
ENDMDL
MODEL 2
REMARK VINA RESULT:      -6.5      1.916      2.239
REMARK  Name = 
REMARK  7 active torsions:
REMARK  status: ('A' for Active; 'I' for Inactive)
REMARK    1  A    between atoms: C_1  and  O_2
REMARK    2  A    between atoms: O_2  and  C_3
REMARK    3  A    between atoms: C_5  and  C_6
REMARK    4  A    between atoms: C_7  and  O_8
REMARK    5  A    between atoms: C_7  and  C_9
REMARK    6  A    between atoms: C_14  and  O_15
REMARK    7  A    between atoms: O_15  and  C_16
REMARK                            x       y       z     vdW  Elec       q    Type
REMARK                         _______ _______ _______ _____ _____    ______ ____
ROOT
ATOM      1  C   UNL     1       5.519   4.935  16.578  0.00  0.00    +0.000 A 
ATOM      2  C   UNL     1       4.610   3.917  16.727  0.00  0.00    +0.000 A 
ATOM      3  C   UNL     1       4.469   3.419  18.006  0.00  0.00    +0.000 A 
ATOM      4  N   UNL     1       5.197   3.873  19.038  0.00  0.00    +0.000 NA
ATOM      5  C   UNL     1       6.072   4.856  18.770  0.00  0.00    +0.000 A 
ATOM      6  N   UNL     1       6.265   5.420  17.577  0.00  0.00    +0.000 NA
ENDROOT
BRANCH   1   8
ATOM      7  C   UNL     1       6.440   4.651  14.447  0.00  0.00    +0.000 C 
ATOM      8  O   UNL     1       5.649   5.469  15.309  0.00  0.00    +0.000 OA
ENDBRANCH   1   8
BRANCH   3   9
ATOM      9  C   UNL     1       3.482   2.354  18.267  0.00  0.00    +0.000 C 
ATOM     10  C   UNL     1       2.206   2.470  18.692  0.00  0.00    +0.000 C 
BRANCH  10  11
ATOM     11  C   UNL     1       1.477   3.767  19.021  0.00  0.00    +0.000 C 
ATOM     12  F   UNL     1       2.221   4.567  19.836  0.00  0.00    +0.000 F 
ATOM     13  F   UNL     1       1.209   4.514  17.918  0.00  0.00    +0.000 F 
ATOM     14  F   UNL     1       0.308   3.557  19.680  0.00  0.00    +0.000 F 
ENDBRANCH  10  11
BRANCH  10  15
ATOM     15  O   UNL     1       1.437   1.309  18.853  0.00  0.00    +0.000 OA
ATOM     16  H   UNL     1       1.846   0.723  19.512  0.00  0.00    +0.000 HD
ENDBRANCH  10  15
ENDBRANCH   3   9
BRANCH   5  17
ATOM     17  O   UNL     1       6.875   5.370  19.763  0.00  0.00    +0.000 OA
ATOM     18  C   UNL     1       8.087   5.928  19.281  0.00  0.00    +0.000 C 
ENDBRANCH   5  17
TORSDOF 5
ENDMDL
MODEL 3
REMARK VINA RESULT:      -6.5      0.661      3.169
REMARK  Name = 
REMARK  7 active torsions:
REMARK  status: ('A' for Active; 'I' for Inactive)
REMARK    1  A    between atoms: C_1  and  O_2
REMARK    2  A    between atoms: O_2  and  C_3
REMARK    3  A    between atoms: C_5  and  C_6
REMARK    4  A    between atoms: C_7  and  O_8
REMARK    5  A    between atoms: C_7  and  C_9
REMARK    6  A    between atoms: C_14  and  O_15
REMARK    7  A    between atoms: O_15  and  C_16
REMARK                            x       y       z     vdW  Elec       q    Type
REMARK                         _______ _______ _______ _____ _____    ______ ____
ROOT
ATOM      1  C   UNL     1       7.085   4.612  17.648  0.00  0.00    +0.000 A 
ATOM      2  C   UNL     1       5.779   4.688  18.067  0.00  0.00    +0.000 A 
ATOM      3  C   UNL     1       4.823   4.543  17.083  0.00  0.00    +0.000 A 
ATOM      4  N   UNL     1       5.141   4.371  15.791  0.00  0.00    +0.000 NA
ATOM      5  C   UNL     1       6.451   4.335  15.495  0.00  0.00    +0.000 A 
ATOM      6  N   UNL     1       7.449   4.441  16.373  0.00  0.00    +0.000 NA
ENDROOT
BRANCH   1   8
ATOM      7  C   UNL     1       7.789   5.781  19.548  0.00  0.00    +0.000 C 
ATOM      8  O   UNL     1       8.055   4.723  18.626  0.00  0.00    +0.000 OA
ENDBRANCH   1   8
BRANCH   3   9
ATOM      9  C   UNL     1       3.394   4.566  17.449  0.00  0.00    +0.000 C 
ATOM     10  C   UNL     1       2.667   3.620  18.082  0.00  0.00    +0.000 C 
BRANCH  10  11
ATOM     11  C   UNL     1       3.172   2.266  18.567  0.00  0.00    +0.000 C 
ATOM     12  F   UNL     1       4.097   2.403  19.558  0.00  0.00    +0.000 F 
ATOM     13  F   UNL     1       2.185   1.494  19.091  0.00  0.00    +0.000 F 
ATOM     14  F   UNL     1       3.786   1.555  17.587  0.00  0.00    +0.000 F 
ENDBRANCH  10  11
BRANCH  10  15
ATOM     15  O   UNL     1       1.314   3.868  18.346  0.00  0.00    +0.000 OA
ATOM     16  H   UNL     1       1.160   4.822  18.452  0.00  0.00    +0.000 HD
ENDBRANCH  10  15
ENDBRANCH   3   9
BRANCH   5  17
ATOM     17  O   UNL     1       6.872   4.182  14.193  0.00  0.00    +0.000 OA
ATOM     18  C   UNL     1       5.850   3.741  13.314  0.00  0.00    +0.000 C 
ENDBRANCH   5  17
TORSDOF 5
ENDMDL
MODEL 4
REMARK VINA RESULT:      -6.4      2.055      2.406
REMARK  Name = 
REMARK  7 active torsions:
REMARK  status: ('A' for Active; 'I' for Inactive)
REMARK    1  A    between atoms: C_1  and  O_2
REMARK    2  A    between atoms: O_2  and  C_3
REMARK    3  A    between atoms: C_5  and  C_6
REMARK    4  A    between atoms: C_7  and  O_8
REMARK    5  A    between atoms: C_7  and  C_9
REMARK    6  A    between atoms: C_14  and  O_15
REMARK    7  A    between atoms: O_15  and  C_16
REMARK                            x       y       z     vdW  Elec       q    Type
REMARK                         _______ _______ _______ _____ _____    ______ ____
ROOT
ATOM      1  C   UNL     1       6.637   4.533  15.250  0.00  0.00    +0.000 A 
ATOM      2  C   UNL     1       5.312   4.266  15.492  0.00  0.00    +0.000 A 
ATOM      3  C   UNL     1       4.950   4.172  16.820  0.00  0.00    +0.000 A 
ATOM      4  N   UNL     1       5.839   4.299  17.818  0.00  0.00    +0.000 NA
ATOM      5  C   UNL     1       7.112   4.537  17.462  0.00  0.00    +0.000 A 
ATOM      6  N   UNL     1       7.557   4.669  16.211  0.00  0.00    +0.000 NA
ENDROOT
BRANCH   1   8
ATOM      7  C   UNL     1       6.307   3.768  13.065  0.00  0.00    +0.000 C 
ATOM      8  O   UNL     1       7.010   4.664  13.926  0.00  0.00    +0.000 OA
ENDBRANCH   1   8
BRANCH   3   9
ATOM      9  C   UNL     1       3.539   3.932  17.173  0.00  0.00    +0.000 C 
ATOM     10  C   UNL     1       2.664   4.764  17.778  0.00  0.00    +0.000 C 
BRANCH  10  11
ATOM     11  C   UNL     1       2.951   6.181  18.259  0.00  0.00    +0.000 C 
ATOM     12  F   UNL     1       3.767   6.184  19.350  0.00  0.00    +0.000 F 
ATOM     13  F   UNL     1       3.586   6.936  17.324  0.00  0.00    +0.000 F 
ATOM     14  F   UNL     1       1.827   6.842  18.639  0.00  0.00    +0.000 F 
ENDBRANCH  10  11
BRANCH  10  15
ATOM     15  O   UNL     1       1.352   4.325  17.998  0.00  0.00    +0.000 OA
ATOM     16  H   UNL     1       1.223   3.441  17.617  0.00  0.00    +0.000 HD
ENDBRANCH  10  15
ENDBRANCH   3   9
BRANCH   5  17
ATOM     17  O   UNL     1       8.095   4.661  18.417  0.00  0.00    +0.000 OA
ATOM     18  C   UNL     1       7.896   5.755  19.298  0.00  0.00    +0.000 C 
ENDBRANCH   5  17
TORSDOF 5
ENDMDL
MODEL 5
REMARK VINA RESULT:      -6.4      2.932      5.312
REMARK  Name = 
REMARK  7 active torsions:
REMARK  status: ('A' for Active; 'I' for Inactive)
REMARK    1  A    between atoms: C_1  and  O_2
REMARK    2  A    between atoms: O_2  and  C_3
REMARK    3  A    between atoms: C_5  and  C_6
REMARK    4  A    between atoms: C_7  and  O_8
REMARK    5  A    between atoms: C_7  and  C_9
REMARK    6  A    between atoms: C_14  and  O_15
REMARK    7  A    between atoms: O_15  and  C_16
REMARK                            x       y       z     vdW  Elec       q    Type
REMARK                         _______ _______ _______ _____ _____    ______ ____
ROOT
ATOM      1  C   UNL     1       2.324   4.218  17.882  0.00  0.00    +0.000 A 
ATOM      2  C   UNL     1       3.640   3.849  17.753  0.00  0.00    +0.000 A 
ATOM      3  C   UNL     1       4.570   4.810  18.091  0.00  0.00    +0.000 A 
ATOM      4  N   UNL     1       4.218   6.043  18.489  0.00  0.00    +0.000 NA
ATOM      5  C   UNL     1       2.901   6.299  18.557  0.00  0.00    +0.000 A 
ATOM      6  N   UNL     1       1.927   5.433  18.277  0.00  0.00    +0.000 NA
ENDROOT
BRANCH   1   8
ATOM      7  C   UNL     1       0.926   2.548  18.733  0.00  0.00    +0.000 C 
ATOM      8  O   UNL     1       1.379   3.256  17.580  0.00  0.00    +0.000 OA
ENDBRANCH   1   8
BRANCH   3   9
ATOM      9  C   UNL     1       6.007   4.486  18.025  0.00  0.00    +0.000 C 
ATOM     10  C   UNL     1       6.824   4.473  16.950  0.00  0.00    +0.000 C 
BRANCH  10  11
ATOM     11  C   UNL     1       6.430   4.790  15.512  0.00  0.00    +0.000 C 
ATOM     12  F   UNL     1       5.662   3.802  14.974  0.00  0.00    +0.000 F 
ATOM     13  F   UNL     1       5.691   5.926  15.408  0.00  0.00    +0.000 F 
ATOM     14  F   UNL     1       7.504   4.911  14.690  0.00  0.00    +0.000 F 
ENDBRANCH  10  11
BRANCH  10  15
ATOM     15  O   UNL     1       8.176   4.149  17.128  0.00  0.00    +0.000 OA
ATOM     16  H   UNL     1       8.740   4.871  16.805  0.00  0.00    +0.000 HD
ENDBRANCH  10  15
ENDBRANCH   3   9
BRANCH   5  17
ATOM     17  O   UNL     1       2.447   7.541  18.937  0.00  0.00    +0.000 OA
ATOM     18  C   UNL     1       2.268   8.437  17.852  0.00  0.00    +0.000 C 
ENDBRANCH   5  17
TORSDOF 5
ENDMDL
MODEL 6
REMARK VINA RESULT:      -6.4      2.328      3.760
REMARK  Name = 
REMARK  7 active torsions:
REMARK  status: ('A' for Active; 'I' for Inactive)
REMARK    1  A    between atoms: C_1  and  O_2
REMARK    2  A    between atoms: O_2  and  C_3
REMARK    3  A    between atoms: C_5  and  C_6
REMARK    4  A    between atoms: C_7  and  O_8
REMARK    5  A    between atoms: C_7  and  C_9
REMARK    6  A    between atoms: C_14  and  O_15
REMARK    7  A    between atoms: O_15  and  C_16
REMARK                            x       y       z     vdW  Elec       q    Type
REMARK                         _______ _______ _______ _____ _____    ______ ____
ROOT
ATOM      1  C   UNL     1       7.416   6.419  17.850  0.00  0.00    +0.000 A 
ATOM      2  C   UNL     1       6.625   5.648  18.666  0.00  0.00    +0.000 A 
ATOM      3  C   UNL     1       5.880   4.673  18.036  0.00  0.00    +0.000 A 
ATOM      4  N   UNL     1       5.896   4.505  16.705  0.00  0.00    +0.000 NA
ATOM      5  C   UNL     1       6.690   5.331  16.004  0.00  0.00    +0.000 A 
ATOM      6  N   UNL     1       7.464   6.286  16.520  0.00  0.00    +0.000 NA
ENDROOT
BRANCH   1   8
ATOM      7  C   UNL     1       8.060   8.667  17.868  0.00  0.00    +0.000 C 
ATOM      8  O   UNL     1       8.194   7.379  18.469  0.00  0.00    +0.000 OA
ENDBRANCH   1   8
BRANCH   3   9
ATOM      9  C   UNL     1       5.037   3.769  18.841  0.00  0.00    +0.000 C 
ATOM     10  C   UNL     1       3.761   3.940  19.246  0.00  0.00    +0.000 C 
BRANCH  10  11
ATOM     11  C   UNL     1       2.878   5.150  18.966  0.00  0.00    +0.000 C 
ATOM     12  F   UNL     1       3.395   6.285  19.515  0.00  0.00    +0.000 F 
ATOM     13  F   UNL     1       2.749   5.411  17.639  0.00  0.00    +0.000 F 
ATOM     14  F   UNL     1       1.632   5.022  19.492  0.00  0.00    +0.000 F 
ENDBRANCH  10  11
BRANCH  10  15
ATOM     15  O   UNL     1       3.145   2.928  19.995  0.00  0.00    +0.000 OA
ATOM     16  H   UNL     1       3.655   2.748  20.802  0.00  0.00    +0.000 HD
ENDBRANCH  10  15
ENDBRANCH   3   9
BRANCH   5  17
ATOM     17  O   UNL     1       6.755   5.245  14.632  0.00  0.00    +0.000 OA
ATOM     18  C   UNL     1       6.161   4.068  14.108  0.00  0.00    +0.000 C 
ENDBRANCH   5  17
TORSDOF 5
ENDMDL
MODEL 7
REMARK VINA RESULT:      -6.4      2.665      3.506
REMARK  Name = 
REMARK  7 active torsions:
REMARK  status: ('A' for Active; 'I' for Inactive)
REMARK    1  A    between atoms: C_1  and  O_2
REMARK    2  A    between atoms: O_2  and  C_3
REMARK    3  A    between atoms: C_5  and  C_6
REMARK    4  A    between atoms: C_7  and  O_8
REMARK    5  A    between atoms: C_7  and  C_9
REMARK    6  A    between atoms: C_14  and  O_15
REMARK    7  A    between atoms: O_15  and  C_16
REMARK                            x       y       z     vdW  Elec       q    Type
REMARK                         _______ _______ _______ _____ _____    ______ ____
ROOT
ATOM      1  C   UNL     1       3.936   6.394  17.800  0.00  0.00    +0.000 A 
ATOM      2  C   UNL     1       2.898   5.497  17.752  0.00  0.00    +0.000 A 
ATOM      3  C   UNL     1       3.224   4.185  18.023  0.00  0.00    +0.000 A 
ATOM      4  N   UNL     1       4.482   3.796  18.285  0.00  0.00    +0.000 NA
ATOM      5  C   UNL     1       5.420   4.757  18.282  0.00  0.00    +0.000 A 
ATOM      6  N   UNL     1       5.203   6.053  18.057  0.00  0.00    +0.000 NA
ENDROOT
BRANCH   1   8
ATOM      7  C   UNL     1       2.369   8.097  18.134  0.00  0.00    +0.000 C 
ATOM      8  O   UNL     1       3.621   7.719  17.563  0.00  0.00    +0.000 OA
ENDBRANCH   1   8
BRANCH   3   9
ATOM      9  C   UNL     1       2.163   3.160  18.038  0.00  0.00    +0.000 C 
ATOM     10  C   UNL     1       1.343   2.806  19.051  0.00  0.00    +0.000 C 
BRANCH  10  11
ATOM     11  C   UNL     1       1.336   3.395  20.456  0.00  0.00    +0.000 C 
ATOM     12  F   UNL     1       2.601   3.602  20.919  0.00  0.00    +0.000 F 
ATOM     13  F   UNL     1       0.722   4.606  20.516  0.00  0.00    +0.000 F 
ATOM     14  F   UNL     1       0.742   2.578  21.364  0.00  0.00    +0.000 F 
ENDBRANCH  10  11
BRANCH  10  15
ATOM     15  O   UNL     1       0.384   1.808  18.830  0.00  0.00    +0.000 OA
ATOM     16  H   UNL     1      -0.336   1.885  19.477  0.00  0.00    +0.000 HD
ENDBRANCH  10  15
ENDBRANCH   3   9
BRANCH   5  17
ATOM     17  O   UNL     1       6.740   4.448  18.521  0.00  0.00    +0.000 OA
ATOM     18  C   UNL     1       7.521   5.563  18.918  0.00  0.00    +0.000 C 
ENDBRANCH   5  17
TORSDOF 5
ENDMDL
MODEL 8
REMARK VINA RESULT:      -6.4      1.895      3.576
REMARK  Name = 
REMARK  7 active torsions:
REMARK  status: ('A' for Active; 'I' for Inactive)
REMARK    1  A    between atoms: C_1  and  O_2
REMARK    2  A    between atoms: O_2  and  C_3
REMARK    3  A    between atoms: C_5  and  C_6
REMARK    4  A    between atoms: C_7  and  O_8
REMARK    5  A    between atoms: C_7  and  C_9
REMARK    6  A    between atoms: C_14  and  O_15
REMARK    7  A    between atoms: O_15  and  C_16
REMARK                            x       y       z     vdW  Elec       q    Type
REMARK                         _______ _______ _______ _____ _____    ______ ____
ROOT
ATOM      1  C   UNL     1       5.977   4.801  18.641  0.00  0.00    +0.000 A 
ATOM      2  C   UNL     1       4.996   3.877  18.909  0.00  0.00    +0.000 A 
ATOM      3  C   UNL     1       4.267   3.442  17.822  0.00  0.00    +0.000 A 
ATOM      4  N   UNL     1       4.475   3.912  16.582  0.00  0.00    +0.000 NA
ATOM      5  C   UNL     1       5.445   4.829  16.443  0.00  0.00    +0.000 A 
ATOM      6  N   UNL     1       6.220   5.296  17.423  0.00  0.00    +0.000 NA
ENDROOT
BRANCH   1   8
ATOM      7  C   UNL     1       7.952   5.857  19.311  0.00  0.00    +0.000 C 
ATOM      8  O   UNL     1       6.739   5.223  19.714  0.00  0.00    +0.000 OA
ENDBRANCH   1   8
BRANCH   3   9
ATOM      9  C   UNL     1       3.223   2.416  18.010  0.00  0.00    +0.000 C 
ATOM     10  C   UNL     1       2.054   2.512  18.676  0.00  0.00    +0.000 C 
BRANCH  10  11
ATOM     11  C   UNL     1       1.534   3.738  19.419  0.00  0.00    +0.000 C 
ATOM     12  F   UNL     1       0.267   3.543  19.881  0.00  0.00    +0.000 F 
ATOM     13  F   UNL     1       2.280   4.046  20.512  0.00  0.00    +0.000 F 
ATOM     14  F   UNL     1       1.471   4.841  18.629  0.00  0.00    +0.000 F 
ENDBRANCH  10  11
BRANCH  10  15
ATOM     15  O   UNL     1       1.197   1.403  18.709  0.00  0.00    +0.000 OA
ATOM     16  H   UNL     1       1.455   0.800  19.425  0.00  0.00    +0.000 HD
ENDBRANCH  10  15
ENDBRANCH   3   9
BRANCH   5  17
ATOM     17  O   UNL     1       5.716   5.382  15.211  0.00  0.00    +0.000 OA
ATOM     18  C   UNL     1       6.326   4.478  14.305  0.00  0.00    +0.000 C 
ENDBRANCH   5  17
TORSDOF 5
ENDMDL
MODEL 9
REMARK VINA RESULT:      -6.3      1.329      1.638
REMARK  Name = 
REMARK  7 active torsions:
REMARK  status: ('A' for Active; 'I' for Inactive)
REMARK    1  A    between atoms: C_1  and  O_2
REMARK    2  A    between atoms: O_2  and  C_3
REMARK    3  A    between atoms: C_5  and  C_6
REMARK    4  A    between atoms: C_7  and  O_8
REMARK    5  A    between atoms: C_7  and  C_9
REMARK    6  A    between atoms: C_14  and  O_15
REMARK    7  A    between atoms: O_15  and  C_16
REMARK                            x       y       z     vdW  Elec       q    Type
REMARK                         _______ _______ _______ _____ _____    ______ ____
ROOT
ATOM      1  C   UNL     1       6.565   5.219  15.508  0.00  0.00    +0.000 A 
ATOM      2  C   UNL     1       5.273   4.938  15.881  0.00  0.00    +0.000 A 
ATOM      3  C   UNL     1       4.866   5.470  17.086  0.00  0.00    +0.000 A 
ATOM      4  N   UNL     1       5.686   6.190  17.868  0.00  0.00    +0.000 NA
ATOM      5  C   UNL     1       6.934   6.382  17.412  0.00  0.00    +0.000 A 
ATOM      6  N   UNL     1       7.416   5.932  16.253  0.00  0.00    +0.000 NA
ENDROOT
BRANCH   1   8
ATOM      7  C   UNL     1       6.016   3.849  13.694  0.00  0.00    +0.000 C 
ATOM      8  O   UNL     1       6.978   4.721  14.287  0.00  0.00    +0.000 OA
ENDBRANCH   1   8
BRANCH   3   9
ATOM      9  C   UNL     1       3.480   5.256  17.544  0.00  0.00    +0.000 C 
ATOM     10  C   UNL     1       2.954   4.188  18.179  0.00  0.00    +0.000 C 
BRANCH  10  11
ATOM     11  C   UNL     1       3.694   2.913  18.569  0.00  0.00    +0.000 C 
ATOM     12  F   UNL     1       4.828   3.189  19.273  0.00  0.00    +0.000 F 
ATOM     13  F   UNL     1       2.955   2.100  19.369  0.00  0.00    +0.000 F 
ATOM     14  F   UNL     1       4.096   2.191  17.492  0.00  0.00    +0.000 F 
ENDBRANCH  10  11
BRANCH  10  15
ATOM     15  O   UNL     1       1.600   4.211  18.541  0.00  0.00    +0.000 OA
ATOM     16  H   UNL     1       1.474   4.753  19.337  0.00  0.00    +0.000 HD
ENDBRANCH  10  15
ENDBRANCH   3   9
BRANCH   5  17
ATOM     17  O   UNL     1       7.850   7.091  18.155  0.00  0.00    +0.000 OA
ATOM     18  C   UNL     1       7.955   8.454  17.777  0.00  0.00    +0.000 C 
ENDBRANCH   5  17
TORSDOF 5
ENDMDL
