MODEL 1
REMARK VINA RESULT:      -8.0      0.000      0.000
REMARK  Name = 
REMARK  7 active torsions:
REMARK  status: ('A' for Active; 'I' for Inactive)
REMARK    1  A    between atoms: C_1  and  C_2
REMARK    2  A    between atoms: C_2  and  C_3
REMARK    3  A    between atoms: C_2  and  N_4
REMARK    4  A    between atoms: C_8  and  C_9
REMARK    5  A    between atoms: C_10  and  C_11
REMARK    6  A    between atoms: C_11  and  C_13
REMARK    7  A    between atoms: C_14  and  C_15
REMARK                            x       y       z     vdW  Elec       q    Type
REMARK                         _______ _______ _______ _____ _____    ______ ____
ROOT
ATOM      1  C   UNL     1       3.261   5.317  17.526  0.00  0.00    +0.000 C 
ATOM      2  C   UNL     1       3.514   6.127  18.570  0.00  0.00    +0.000 C 
ENDROOT
BRANCH   2   3
ATOM      3  C   UNL     1       2.624   7.144  19.127  0.00  0.00    +0.000 A 
ATOM      4  C   UNL     1       2.118   7.004  20.364  0.00  0.00    +0.000 A 
ATOM      5  O   UNL     1       1.244   7.845  21.014  0.00  0.00    +0.000 OA
ATOM      6  C   UNL     1       0.781   8.937  20.329  0.00  0.00    +0.000 A 
ATOM      7  C   UNL     1      -0.161   9.748  20.967  0.00  0.00    +0.000 A 
ATOM      8  C   UNL     1      -0.665  10.877  20.316  0.00  0.00    +0.000 A 
ATOM      9  C   UNL     1      -0.226  11.197  19.030  0.00  0.00    +0.000 A 
ATOM     10  C   UNL     1       0.714  10.386  18.393  0.00  0.00    +0.000 A 
ATOM     11  C   UNL     1       1.212   9.251  19.046  0.00  0.00    +0.000 A 
ATOM     12  C   UNL     1       2.191   8.371  18.380  0.00  0.00    +0.000 A 
ATOM     13  O   UNL     1       2.608   8.667  17.270  0.00  0.00    +0.000 OA
ENDBRANCH   2   3
BRANCH   1  14
ATOM     14  C   UNL     1       4.251   4.298  17.080  0.00  0.00    +0.000 C 
ATOM     15  O   UNL     1       4.336   3.184  17.583  0.00  0.00    +0.000 OA
BRANCH  14  17
ATOM     16  C   UNL     1       5.557   3.898  15.036  0.00  0.00    +0.000 C 
ATOM     17  C   UNL     1       5.145   4.756  15.981  0.00  0.00    +0.000 C 
BRANCH  16  22
ATOM     18  N   UNL     1       6.403   3.838  12.733  0.00  0.00    +0.000 N 
ATOM     19  C   UNL     1       7.403   4.457  12.017  0.00  0.00    +0.000 A 
ATOM     20  C   UNL     1       7.997   5.328  12.891  0.00  0.00    +0.000 A 
ATOM     21  N   UNL     1       7.413   5.239  14.123  0.00  0.00    +0.000 NA
ATOM     22  C   UNL     1       6.442   4.347  14.020  0.00  0.00    +0.000 A 
BRANCH  18  24
ATOM     23  C   UNL     1       4.339   3.393  11.438  0.00  0.00    +0.000 C 
ATOM     24  C   UNL     1       5.541   2.794  12.178  0.00  0.00    +0.000 C 
ATOM     25  C   UNL     1       6.344   1.815  11.317  0.00  0.00    +0.000 C 
ENDBRANCH  18  24
ENDBRANCH  16  22
ENDBRANCH  14  17
ENDBRANCH   1  14
TORSDOF 5
ENDMDL
MODEL 2
REMARK VINA RESULT:      -8.0      0.667      1.690
REMARK  Name = 
REMARK  7 active torsions:
REMARK  status: ('A' for Active; 'I' for Inactive)
REMARK    1  A    between atoms: C_1  and  C_2
REMARK    2  A    between atoms: C_2  and  C_3
REMARK    3  A    between atoms: C_2  and  N_4
REMARK    4  A    between atoms: C_8  and  C_9
REMARK    5  A    between atoms: C_10  and  C_11
REMARK    6  A    between atoms: C_11  and  C_13
REMARK    7  A    between atoms: C_14  and  C_15
REMARK                            x       y       z     vdW  Elec       q    Type
REMARK                         _______ _______ _______ _____ _____    ______ ____
ROOT
ATOM      1  C   UNL     1       3.297   4.976  17.493  0.00  0.00    +0.000 C 
ATOM      2  C   UNL     1       3.655   6.123  18.096  0.00  0.00    +0.000 C 
ENDROOT
BRANCH   2   3
ATOM      3  C   UNL     1       2.770   7.212  18.507  0.00  0.00    +0.000 A 
ATOM      4  C   UNL     1       2.579   8.275  17.707  0.00  0.00    +0.000 A 
ATOM      5  O   UNL     1       1.815   9.391  17.960  0.00  0.00    +0.000 OA
ATOM      6  C   UNL     1       1.203   9.480  19.182  0.00  0.00    +0.000 A 
ATOM      7  C   UNL     1       0.487  10.645  19.463  0.00  0.00    +0.000 A 
ATOM      8  C   UNL     1      -0.161  10.788  20.693  0.00  0.00    +0.000 A 
ATOM      9  C   UNL     1      -0.096   9.765  21.640  0.00  0.00    +0.000 A 
ATOM     10  C   UNL     1       0.620   8.601  21.360  0.00  0.00    +0.000 A 
ATOM     11  C   UNL     1       1.274   8.464  20.128  0.00  0.00    +0.000 A 
ATOM     12  C   UNL     1       2.052   7.249  19.823  0.00  0.00    +0.000 A 
ATOM     13  O   UNL     1       2.081   6.333  20.633  0.00  0.00    +0.000 OA
ENDBRANCH   2   3
BRANCH   1  14
ATOM     14  C   UNL     1       4.304   3.932  17.154  0.00  0.00    +0.000 C 
ATOM     15  O   UNL     1       4.320   2.824  17.678  0.00  0.00    +0.000 OA
BRANCH  14  17
ATOM     16  C   UNL     1       5.215   3.924  14.870  0.00  0.00    +0.000 C 
ATOM     17  C   UNL     1       5.304   4.357  16.137  0.00  0.00    +0.000 C 
BRANCH  16  22
ATOM     18  N   UNL     1       6.280   3.739  12.667  0.00  0.00    +0.000 N 
ATOM     19  C   UNL     1       7.357   4.306  12.025  0.00  0.00    +0.000 A 
ATOM     20  C   UNL     1       7.881   5.209  12.911  0.00  0.00    +0.000 A 
ATOM     21  N   UNL     1       7.178   5.189  14.083  0.00  0.00    +0.000 NA
ATOM     22  C   UNL     1       6.204   4.309  13.927  0.00  0.00    +0.000 A 
BRANCH  18  24
ATOM     23  C   UNL     1       4.270   3.266  11.299  0.00  0.00    +0.000 C 
ATOM     24  C   UNL     1       5.454   2.684  12.079  0.00  0.00    +0.000 C 
ATOM     25  C   UNL     1       6.302   1.720  11.244  0.00  0.00    +0.000 C 
ENDBRANCH  18  24
ENDBRANCH  16  22
ENDBRANCH  14  17
ENDBRANCH   1  14
TORSDOF 5
ENDMDL
MODEL 3
REMARK VINA RESULT:      -8.0      2.747      4.125
REMARK  Name = 
REMARK  7 active torsions:
REMARK  status: ('A' for Active; 'I' for Inactive)
REMARK    1  A    between atoms: C_1  and  C_2
REMARK    2  A    between atoms: C_2  and  C_3
REMARK    3  A    between atoms: C_2  and  N_4
REMARK    4  A    between atoms: C_8  and  C_9
REMARK    5  A    between atoms: C_10  and  C_11
REMARK    6  A    between atoms: C_11  and  C_13
REMARK    7  A    between atoms: C_14  and  C_15
REMARK                            x       y       z     vdW  Elec       q    Type
REMARK                         _______ _______ _______ _____ _____    ______ ____
ROOT
ATOM      1  C   UNL     1       1.339   6.372  20.549  0.00  0.00    +0.000 C 
ATOM      2  C   UNL     1       1.817   7.623  20.665  0.00  0.00    +0.000 C 
ENDROOT
BRANCH   2   3
ATOM      3  C   UNL     1       1.085   8.803  21.123  0.00  0.00    +0.000 A 
ATOM      4  C   UNL     1       1.028   9.104  22.432  0.00  0.00    +0.000 A 
ATOM      5  O   UNL     1       0.357  10.148  23.025  0.00  0.00    +0.000 OA
ATOM      6  C   UNL     1      -0.390  10.966  22.219  0.00  0.00    +0.000 A 
ATOM      7  C   UNL     1      -1.127  11.981  22.834  0.00  0.00    +0.000 A 
ATOM      8  C   UNL     1      -1.903  12.847  22.059  0.00  0.00    +0.000 A 
ATOM      9  C   UNL     1      -1.940  12.702  20.672  0.00  0.00    +0.000 A 
ATOM     10  C   UNL     1      -1.203  11.688  20.058  0.00  0.00    +0.000 A 
ATOM     11  C   UNL     1      -0.432  10.816  20.838  0.00  0.00    +0.000 A 
ATOM     12  C   UNL     1       0.337   9.726  20.208  0.00  0.00    +0.000 A 
ATOM     13  O   UNL     1       0.340   9.617  18.991  0.00  0.00    +0.000 OA
ENDBRANCH   2   3
BRANCH   1  14
ATOM     14  C   UNL     1       2.208   5.250  20.094  0.00  0.00    +0.000 C 
ATOM     15  O   UNL     1       1.837   4.082  20.079  0.00  0.00    +0.000 OA
BRANCH  14  17
ATOM     16  C   UNL     1       4.514   4.748  19.406  0.00  0.00    +0.000 C 
ATOM     17  C   UNL     1       3.574   5.667  19.679  0.00  0.00    +0.000 C 
BRANCH  16  22
ATOM     18  N   UNL     1       6.194   5.384  17.734  0.00  0.00    +0.000 N 
ATOM     19  C   UNL     1       7.522   5.747  17.736  0.00  0.00    +0.000 A 
ATOM     20  C   UNL     1       7.899   5.755  19.053  0.00  0.00    +0.000 A 
ATOM     21  N   UNL     1       6.854   5.379  19.850  0.00  0.00    +0.000 NA
ATOM     22  C   UNL     1       5.822   5.168  19.050  0.00  0.00    +0.000 A 
BRANCH  18  24
ATOM     23  C   UNL     1       5.026   6.567  15.898  0.00  0.00    +0.000 C 
ATOM     24  C   UNL     1       5.406   5.215  16.512  0.00  0.00    +0.000 C 
ATOM     25  C   UNL     1       6.115   4.288  15.522  0.00  0.00    +0.000 C 
ENDBRANCH  18  24
ENDBRANCH  16  22
ENDBRANCH  14  17
ENDBRANCH   1  14
TORSDOF 5
ENDMDL
MODEL 4
REMARK VINA RESULT:      -7.8      6.186      7.631
REMARK  Name = 
REMARK  7 active torsions:
REMARK  status: ('A' for Active; 'I' for Inactive)
REMARK    1  A    between atoms: C_1  and  C_2
REMARK    2  A    between atoms: C_2  and  C_3
REMARK    3  A    between atoms: C_2  and  N_4
REMARK    4  A    between atoms: C_8  and  C_9
REMARK    5  A    between atoms: C_10  and  C_11
REMARK    6  A    between atoms: C_11  and  C_13
REMARK    7  A    between atoms: C_14  and  C_15
REMARK                            x       y       z     vdW  Elec       q    Type
REMARK                         _______ _______ _______ _____ _____    ______ ____
ROOT
ATOM      1  C   UNL     1       8.047   7.627  18.021  0.00  0.00    +0.000 C 
ATOM      2  C   UNL     1       7.844   8.924  17.729  0.00  0.00    +0.000 C 
ENDROOT
BRANCH   2   3
ATOM      3  C   UNL     1       8.554  10.072  18.292  0.00  0.00    +0.000 A 
ATOM      4  C   UNL     1       9.439   9.905  19.288  0.00  0.00    +0.000 A 
ATOM      5  O   UNL     1      10.156  10.877  19.947  0.00  0.00    +0.000 OA
ATOM      6  C   UNL     1       9.928  12.182  19.601  0.00  0.00    +0.000 A 
ATOM      7  C   UNL     1      10.604  13.170  20.320  0.00  0.00    +0.000 A 
ATOM      8  C   UNL     1      10.411  14.518  20.007  0.00  0.00    +0.000 A 
ATOM      9  C   UNL     1       9.546  14.878  18.973  0.00  0.00    +0.000 A 
ATOM     10  C   UNL     1       8.870  13.892  18.255  0.00  0.00    +0.000 A 
ATOM     11  C   UNL     1       9.060  12.541  18.576  0.00  0.00    +0.000 A 
ATOM     12  C   UNL     1       8.338  11.486  17.841  0.00  0.00    +0.000 A 
ATOM     13  O   UNL     1       7.609  11.793  16.909  0.00  0.00    +0.000 OA
ENDBRANCH   2   3
BRANCH   1  14
ATOM     14  C   UNL     1       7.269   6.551  17.348  0.00  0.00    +0.000 C 
ATOM     15  O   UNL     1       7.350   6.319  16.146  0.00  0.00    +0.000 OA
BRANCH  14  17
ATOM     16  C   UNL     1       5.844   4.616  17.869  0.00  0.00    +0.000 C 
ATOM     17  C   UNL     1       6.366   5.792  18.254  0.00  0.00    +0.000 C 
BRANCH  16  22
ATOM     18  N   UNL     1       3.594   4.197  18.755  0.00  0.00    +0.000 N 
ATOM     19  C   UNL     1       3.031   3.389  19.718  0.00  0.00    +0.000 A 
ATOM     20  C   UNL     1       4.065   2.652  20.230  0.00  0.00    +0.000 A 
ATOM     21  N   UNL     1       5.244   3.005  19.634  0.00  0.00    +0.000 NA
ATOM     22  C   UNL     1       4.953   3.929  18.735  0.00  0.00    +0.000 A 
BRANCH  18  24
ATOM     23  C   UNL     1       1.475   4.623  17.547  0.00  0.00    +0.000 C 
ATOM     24  C   UNL     1       2.835   5.180  17.982  0.00  0.00    +0.000 C 
ATOM     25  C   UNL     1       2.722   6.508  18.737  0.00  0.00    +0.000 C 
ENDBRANCH  18  24
ENDBRANCH  16  22
ENDBRANCH  14  17
ENDBRANCH   1  14
TORSDOF 5
ENDMDL
MODEL 5
REMARK VINA RESULT:      -7.7      6.327      7.784
REMARK  Name = 
REMARK  7 active torsions:
REMARK  status: ('A' for Active; 'I' for Inactive)
REMARK    1  A    between atoms: C_1  and  C_2
REMARK    2  A    between atoms: C_2  and  C_3
REMARK    3  A    between atoms: C_2  and  N_4
REMARK    4  A    between atoms: C_8  and  C_9
REMARK    5  A    between atoms: C_10  and  C_11
REMARK    6  A    between atoms: C_11  and  C_13
REMARK    7  A    between atoms: C_14  and  C_15
REMARK                            x       y       z     vdW  Elec       q    Type
REMARK                         _______ _______ _______ _____ _____    ______ ____
ROOT
ATOM      1  C   UNL     1       7.889   7.844  17.938  0.00  0.00    +0.000 C 
ATOM      2  C   UNL     1       7.824   9.147  17.616  0.00  0.00    +0.000 C 
ENDROOT
BRANCH   2   3
ATOM      3  C   UNL     1       8.564  10.244  18.239  0.00  0.00    +0.000 A 
ATOM      4  C   UNL     1       9.419  10.003  19.247  0.00  0.00    +0.000 A 
ATOM      5  O   UNL     1      10.158  10.919  19.959  0.00  0.00    +0.000 OA
ATOM      6  C   UNL     1       9.988  12.245  19.661  0.00  0.00    +0.000 A 
ATOM      7  C   UNL     1      10.685  13.176  20.433  0.00  0.00    +0.000 A 
ATOM      8  C   UNL     1      10.552  14.542  20.170  0.00  0.00    +0.000 A 
ATOM      9  C   UNL     1       9.725  14.977  19.134  0.00  0.00    +0.000 A 
ATOM     10  C   UNL     1       9.028  14.046  18.362  0.00  0.00    +0.000 A 
ATOM     11  C   UNL     1       9.158  12.678  18.633  0.00  0.00    +0.000 A 
ATOM     12  C   UNL     1       8.413  11.682  17.841  0.00  0.00    +0.000 A 
ATOM     13  O   UNL     1       7.717  12.054  16.907  0.00  0.00    +0.000 OA
ENDBRANCH   2   3
BRANCH   1  14
ATOM     14  C   UNL     1       7.098   6.822  17.196  0.00  0.00    +0.000 C 
ATOM     15  O   UNL     1       7.528   6.226  16.215  0.00  0.00    +0.000 OA
BRANCH  14  17
ATOM     16  C   UNL     1       5.505   5.648  18.655  0.00  0.00    +0.000 C 
ATOM     17  C   UNL     1       5.729   6.601  17.736  0.00  0.00    +0.000 C 
BRANCH  16  22
ATOM     18  N   UNL     1       3.661   4.154  19.280  0.00  0.00    +0.000 N 
ATOM     19  C   UNL     1       2.363   4.294  19.718  0.00  0.00    +0.000 A 
ATOM     20  C   UNL     1       2.155   5.642  19.829  0.00  0.00    +0.000 A 
ATOM     21  N   UNL     1       3.272   6.330  19.445  0.00  0.00    +0.000 NA
ATOM     22  C   UNL     1       4.184   5.427  19.126  0.00  0.00    +0.000 A 
BRANCH  18  24
ATOM     23  C   UNL     1       4.510   2.050  20.273  0.00  0.00    +0.000 C 
ATOM     24  C   UNL     1       4.281   2.860  18.992  0.00  0.00    +0.000 C 
ATOM     25  C   UNL     1       3.485   2.091  17.933  0.00  0.00    +0.000 C 
ENDBRANCH  18  24
ENDBRANCH  16  22
ENDBRANCH  14  17
ENDBRANCH   1  14
TORSDOF 5
ENDMDL
MODEL 6
REMARK VINA RESULT:      -7.7      5.571      7.772
REMARK  Name = 
REMARK  7 active torsions:
REMARK  status: ('A' for Active; 'I' for Inactive)
REMARK    1  A    between atoms: C_1  and  C_2
REMARK    2  A    between atoms: C_2  and  C_3
REMARK    3  A    between atoms: C_2  and  N_4
REMARK    4  A    between atoms: C_8  and  C_9
REMARK    5  A    between atoms: C_10  and  C_11
REMARK    6  A    between atoms: C_11  and  C_13
REMARK    7  A    between atoms: C_14  and  C_15
REMARK                            x       y       z     vdW  Elec       q    Type
REMARK                         _______ _______ _______ _____ _____    ______ ____
ROOT
ATOM      1  C   UNL     1       6.540   6.736  18.229  0.00  0.00    +0.000 C 
ATOM      2  C   UNL     1       5.435   6.436  17.524  0.00  0.00    +0.000 C 
ENDROOT
BRANCH   2   3
ATOM      3  C   UNL     1       4.259   5.710  18.003  0.00  0.00    +0.000 A 
ATOM      4  C   UNL     1       3.451   6.256  18.927  0.00  0.00    +0.000 A 
ATOM      5  O   UNL     1       2.336   5.694  19.505  0.00  0.00    +0.000 OA
ATOM      6  C   UNL     1       2.012   4.411  19.151  0.00  0.00    +0.000 A 
ATOM      7  C   UNL     1       0.922   3.819  19.792  0.00  0.00    +0.000 A 
ATOM      8  C   UNL     1       0.545   2.513  19.467  0.00  0.00    +0.000 A 
ATOM      9  C   UNL     1       1.255   1.801  18.499  0.00  0.00    +0.000 A 
ATOM     10  C   UNL     1       2.345   2.393  17.859  0.00  0.00    +0.000 A 
ATOM     11  C   UNL     1       2.725   3.700  18.193  0.00  0.00    +0.000 A 
ATOM     12  C   UNL     1       3.886   4.333  17.541  0.00  0.00    +0.000 A 
ATOM     13  O   UNL     1       4.489   3.729  16.666  0.00  0.00    +0.000 OA
ENDBRANCH   2   3
BRANCH   1  14
ATOM     14  C   UNL     1       7.658   7.512  17.622  0.00  0.00    +0.000 C 
ATOM     15  O   UNL     1       8.028   7.355  16.464  0.00  0.00    +0.000 OA
BRANCH  14  17
ATOM     16  C   UNL     1       8.525   9.747  18.166  0.00  0.00    +0.000 C 
ATOM     17  C   UNL     1       8.303   8.480  18.550  0.00  0.00    +0.000 C 
BRANCH  16  22
ATOM     18  N   UNL     1       9.478  11.946  18.693  0.00  0.00    +0.000 N 
ATOM     19  C   UNL     1      10.132  12.526  19.758  0.00  0.00    +0.000 A 
ATOM     20  C   UNL     1      10.188  11.559  20.725  0.00  0.00    +0.000 A 
ATOM     21  N   UNL     1       9.618  10.400  20.276  0.00  0.00    +0.000 NA
ATOM     22  C   UNL     1       9.179  10.643  19.053  0.00  0.00    +0.000 A 
BRANCH  18  24
ATOM     23  C   UNL     1       7.893  13.366  17.425  0.00  0.00    +0.000 C 
ATOM     24  C   UNL     1       9.239  12.632  17.423  0.00  0.00    +0.000 C 
ATOM     25  C   UNL     1      10.415  13.543  17.058  0.00  0.00    +0.000 C 
ENDBRANCH  18  24
ENDBRANCH  16  22
ENDBRANCH  14  17
ENDBRANCH   1  14
TORSDOF 5
ENDMDL
MODEL 7
REMARK VINA RESULT:      -7.6      3.920      5.558
REMARK  Name = 
REMARK  7 active torsions:
REMARK  status: ('A' for Active; 'I' for Inactive)
REMARK    1  A    between atoms: C_1  and  C_2
REMARK    2  A    between atoms: C_2  and  C_3
REMARK    3  A    between atoms: C_2  and  N_4
REMARK    4  A    between atoms: C_8  and  C_9
REMARK    5  A    between atoms: C_10  and  C_11
REMARK    6  A    between atoms: C_11  and  C_13
REMARK    7  A    between atoms: C_14  and  C_15
REMARK                            x       y       z     vdW  Elec       q    Type
REMARK                         _______ _______ _______ _____ _____    ______ ____
ROOT
ATOM      1  C   UNL     1       2.972   8.192  17.876  0.00  0.00    +0.000 C 
ATOM      2  C   UNL     1       2.206   8.035  18.970  0.00  0.00    +0.000 C 
ENDROOT
BRANCH   2   3
ATOM      3  C   UNL     1       1.214   8.976  19.489  0.00  0.00    +0.000 A 
ATOM      4  C   UNL     1       0.599   9.841  18.665  0.00  0.00    +0.000 A 
ATOM      5  O   UNL     1      -0.323  10.807  18.998  0.00  0.00    +0.000 OA
ATOM      6  C   UNL     1      -0.636  10.960  20.322  0.00  0.00    +0.000 A 
ATOM      7  C   UNL     1      -1.517  11.988  20.664  0.00  0.00    +0.000 A 
ATOM      8  C   UNL     1      -1.873  12.187  22.000  0.00  0.00    +0.000 A 
ATOM      9  C   UNL     1      -1.352  11.358  22.994  0.00  0.00    +0.000 A 
ATOM     10  C   UNL     1      -0.471  10.331  22.653  0.00  0.00    +0.000 A 
ATOM     11  C   UNL     1      -0.110  10.138  21.313  0.00  0.00    +0.000 A 
ATOM     12  C   UNL     1       0.836   9.071  20.937  0.00  0.00    +0.000 A 
ATOM     13  O   UNL     1       1.265   8.317  21.797  0.00  0.00    +0.000 OA
ENDBRANCH   2   3
BRANCH   1  14
ATOM     14  C   UNL     1       3.927   7.134  17.441  0.00  0.00    +0.000 C 
ATOM     15  O   UNL     1       5.025   7.384  16.957  0.00  0.00    +0.000 OA
BRANCH  14  17
ATOM     16  C   UNL     1       4.103   4.873  18.388  0.00  0.00    +0.000 C 
ATOM     17  C   UNL     1       3.426   5.746  17.626  0.00  0.00    +0.000 C 
BRANCH  16  22
ATOM     18  N   UNL     1       2.811   3.150  19.565  0.00  0.00    +0.000 N 
ATOM     19  C   UNL     1       2.563   1.805  19.412  0.00  0.00    +0.000 A 
ATOM     20  C   UNL     1       3.222   1.436  18.271  0.00  0.00    +0.000 A 
ATOM     21  N   UNL     1       3.889   2.505  17.739  0.00  0.00    +0.000 NA
ATOM     22  C   UNL     1       3.628   3.541  18.518  0.00  0.00    +0.000 A 
BRANCH  18  24
ATOM     23  C   UNL     1       1.030   4.689  20.336  0.00  0.00    +0.000 C 
ATOM     24  C   UNL     1       2.317   3.939  20.695  0.00  0.00    +0.000 C 
ATOM     25  C   UNL     1       2.173   3.073  21.951  0.00  0.00    +0.000 C 
ENDBRANCH  18  24
ENDBRANCH  16  22
ENDBRANCH  14  17
ENDBRANCH   1  14
TORSDOF 5
ENDMDL
MODEL 8
REMARK VINA RESULT:      -7.6      5.540      7.860
REMARK  Name = 
REMARK  7 active torsions:
REMARK  status: ('A' for Active; 'I' for Inactive)
REMARK    1  A    between atoms: C_1  and  C_2
REMARK    2  A    between atoms: C_2  and  C_3
REMARK    3  A    between atoms: C_2  and  N_4
REMARK    4  A    between atoms: C_8  and  C_9
REMARK    5  A    between atoms: C_10  and  C_11
REMARK    6  A    between atoms: C_11  and  C_13
REMARK    7  A    between atoms: C_14  and  C_15
REMARK                            x       y       z     vdW  Elec       q    Type
REMARK                         _______ _______ _______ _____ _____    ______ ____
ROOT
ATOM      1  C   UNL     1       6.869   6.407  18.085  0.00  0.00    +0.000 C 
ATOM      2  C   UNL     1       5.712   6.095  17.475  0.00  0.00    +0.000 C 
ENDROOT
BRANCH   2   3
ATOM      3  C   UNL     1       4.728   5.107  17.912  0.00  0.00    +0.000 A 
ATOM      4  C   UNL     1       4.749   3.858  17.416  0.00  0.00    +0.000 A 
ATOM      5  O   UNL     1       3.877   2.829  17.693  0.00  0.00    +0.000 OA
ATOM      6  C   UNL     1       2.828   3.092  18.532  0.00  0.00    +0.000 A 
ATOM      7  C   UNL     1       1.906   2.067  18.755  0.00  0.00    +0.000 A 
ATOM      8  C   UNL     1       0.818   2.278  19.605  0.00  0.00    +0.000 A 
ATOM      9  C   UNL     1       0.653   3.512  20.236  0.00  0.00    +0.000 A 
ATOM     10  C   UNL     1       1.573   4.536  20.013  0.00  0.00    +0.000 A 
ATOM     11  C   UNL     1       2.660   4.324  19.154  0.00  0.00    +0.000 A 
ATOM     12  C   UNL     1       3.631   5.402  18.892  0.00  0.00    +0.000 A 
ATOM     13  O   UNL     1       3.514   6.472  19.471  0.00  0.00    +0.000 OA
ENDBRANCH   2   3
BRANCH   1  14
ATOM     14  C   UNL     1       7.771   7.462  17.544  0.00  0.00    +0.000 C 
ATOM     15  O   UNL     1       8.132   7.496  16.373  0.00  0.00    +0.000 OA
BRANCH  14  17
ATOM     16  C   UNL     1       8.630   9.679  18.168  0.00  0.00    +0.000 C 
ATOM     17  C   UNL     1       8.214   8.462  18.552  0.00  0.00    +0.000 C 
BRANCH  16  22
ATOM     18  N   UNL     1       9.313  11.936  18.846  0.00  0.00    +0.000 N 
ATOM     19  C   UNL     1       9.776  12.540  19.994  0.00  0.00    +0.000 A 
ATOM     20  C   UNL     1       9.795  11.557  20.946  0.00  0.00    +0.000 A 
ATOM     21  N   UNL     1       9.389  10.367  20.410  0.00  0.00    +0.000 NA
ATOM     22  C   UNL     1       9.087  10.603  19.145  0.00  0.00    +0.000 A 
BRANCH  18  24
ATOM     23  C   UNL     1       7.921  13.513  17.538  0.00  0.00    +0.000 C 
ATOM     24  C   UNL     1       9.176  12.633  17.567  0.00  0.00    +0.000 C 
ATOM     25  C   UNL     1      10.453  13.403  17.218  0.00  0.00    +0.000 C 
ENDBRANCH  18  24
ENDBRANCH  16  22
ENDBRANCH  14  17
ENDBRANCH   1  14
TORSDOF 5
ENDMDL
MODEL 9
REMARK VINA RESULT:      -7.6      7.562      8.675
REMARK  Name = 
REMARK  7 active torsions:
REMARK  status: ('A' for Active; 'I' for Inactive)
REMARK    1  A    between atoms: C_1  and  C_2
REMARK    2  A    between atoms: C_2  and  C_3
REMARK    3  A    between atoms: C_2  and  N_4
REMARK    4  A    between atoms: C_8  and  C_9
REMARK    5  A    between atoms: C_10  and  C_11
REMARK    6  A    between atoms: C_11  and  C_13
REMARK    7  A    between atoms: C_14  and  C_15
REMARK                            x       y       z     vdW  Elec       q    Type
REMARK                         _______ _______ _______ _____ _____    ______ ____
ROOT
ATOM      1  C   UNL     1       8.682  10.526  17.949  0.00  0.00    +0.000 C 
ATOM      2  C   UNL     1       9.782  11.234  18.258  0.00  0.00    +0.000 C 
ENDROOT
BRANCH   2   3
ATOM      3  C   UNL     1      10.057  12.627  17.908  0.00  0.00    +0.000 A 
ATOM      4  C   UNL     1      11.130  12.944  17.165  0.00  0.00    +0.000 A 
ATOM      5  O   UNL     1      11.547  14.199  16.784  0.00  0.00    +0.000 OA
ATOM      6  C   UNL     1      10.831  15.274  17.239  0.00  0.00    +0.000 A 
ATOM      7  C   UNL     1      11.298  16.548  16.909  0.00  0.00    +0.000 A 
ATOM      8  C   UNL     1      10.604  17.680  17.344  0.00  0.00    +0.000 A 
ATOM      9  C   UNL     1       9.443  17.539  18.105  0.00  0.00    +0.000 A 
ATOM     10  C   UNL     1       8.977  16.266  18.435  0.00  0.00    +0.000 A 
ATOM     11  C   UNL     1       9.678  15.133  18.003  0.00  0.00    +0.000 A 
ATOM     12  C   UNL     1       9.212  13.780  18.360  0.00  0.00    +0.000 A 
ATOM     13  O   UNL     1       8.174  13.649  18.993  0.00  0.00    +0.000 OA
ENDBRANCH   2   3
BRANCH   1  14
ATOM     14  C   UNL     1       8.518   9.115  18.398  0.00  0.00    +0.000 C 
ATOM     15  O   UNL     1       9.011   8.681  19.433  0.00  0.00    +0.000 OA
BRANCH  14  17
ATOM     16  C   UNL     1       7.632   6.943  17.661  0.00  0.00    +0.000 C 
ATOM     17  C   UNL     1       7.719   8.269  17.470  0.00  0.00    +0.000 C 
BRANCH  16  22
ATOM     18  N   UNL     1       5.644   5.646  17.039  0.00  0.00    +0.000 N 
ATOM     19  C   UNL     1       5.231   4.903  15.957  0.00  0.00    +0.000 A 
ATOM     20  C   UNL     1       6.241   4.998  15.038  0.00  0.00    +0.000 A 
ATOM     21  N   UNL     1       7.269   5.750  15.535  0.00  0.00    +0.000 NA
ATOM     22  C   UNL     1       6.899   6.150  16.740  0.00  0.00    +0.000 A 
BRANCH  18  24
ATOM     23  C   UNL     1       3.384   6.034  17.976  0.00  0.00    +0.000 C 
ATOM     24  C   UNL     1       4.866   5.777  18.272  0.00  0.00    +0.000 C 
ATOM     25  C   UNL     1       5.091   4.577  19.197  0.00  0.00    +0.000 C 
ENDBRANCH  18  24
ENDBRANCH  16  22
ENDBRANCH  14  17
ENDBRANCH   1  14
TORSDOF 5
ENDMDL
