MODEL 1
REMARK VINA RESULT:      -9.3      0.000      0.000
REMARK  Name = 
REMARK  2 active torsions:
REMARK  status: ('A' for Active; 'I' for Inactive)
REMARK    1  A    between atoms: C_8  and  C_9
REMARK    2  A    between atoms: N_16  and  C_17
REMARK                            x       y       z     vdW  Elec       q    Type
REMARK                         _______ _______ _______ _____ _____    ______ ____
ROOT
ATOM      1  O   UNL     1       1.611   3.265  17.570  0.00  0.00    +0.000 OA
ATOM      2  C   UNL     1       1.889   4.016  18.492  0.00  0.00    +0.000 C 
ATOM      3  C   UNL     1       1.032   4.166  19.742  0.00  0.00    +0.000 C 
ATOM      4  C   UNL     1       0.870   2.828  20.440  0.00  0.00    +0.000 C 
ATOM      5  C   UNL     1       2.158   2.701  21.226  0.00  0.00    +0.000 C 
ATOM      6  C   UNL     1       2.441   4.131  21.656  0.00  0.00    +0.000 C 
ATOM      7  N   UNL     1       1.813   5.029  20.663  0.00  0.00    +0.000 NA
ATOM      8  C   UNL     1       2.822   5.697  19.807  0.00  0.00    +0.000 C 
ATOM      9  N   UNL     1       3.027   4.800  18.693  0.00  0.00    +0.000 N 
ENDROOT
BRANCH   8  10
ATOM     10  C   UNL     1       2.344   7.079  19.359  0.00  0.00    +0.000 A 
ATOM     11  C   UNL     1       2.546   7.582  18.059  0.00  0.00    +0.000 A 
ATOM     12  C   UNL     1       2.066   8.840  17.680  0.00  0.00    +0.000 A 
ATOM     13  C   UNL     1       1.382   9.631  18.597  0.00  0.00    +0.000 A 
ATOM     14  C   UNL     1       1.183   9.162  19.893  0.00  0.00    +0.000 A 
ATOM     15  C   UNL     1       1.660   7.901  20.261  0.00  0.00    +0.000 A 
ATOM     16  F   UNL     1       1.450   7.486  21.519  0.00  0.00    +0.000 F 
ENDBRANCH   8  10
BRANCH   9  17
ATOM     17  C   UNL     1       4.269   4.622  18.016  0.00  0.00    +0.000 A 
ATOM     18  C   UNL     1       5.491   4.776  18.692  0.00  0.00    +0.000 A 
ATOM     19  C   UNL     1       6.714   4.735  18.013  0.00  0.00    +0.000 A 
ATOM     20  C   UNL     1       6.729   4.541  16.643  0.00  0.00    +0.000 A 
ATOM     21  F   UNL     1       7.895   4.539  15.985  0.00  0.00    +0.000 F 
ATOM     22  C   UNL     1       5.545   4.354  15.947  0.00  0.00    +0.000 A 
ATOM     23  C   UNL     1       4.323   4.374  16.632  0.00  0.00    +0.000 A 
ENDBRANCH   9  17
TORSDOF 2
ENDMDL
MODEL 2
REMARK VINA RESULT:      -9.2      0.420      1.033
REMARK  Name = 
REMARK  2 active torsions:
REMARK  status: ('A' for Active; 'I' for Inactive)
REMARK    1  A    between atoms: C_8  and  C_9
REMARK    2  A    between atoms: N_16  and  C_17
REMARK                            x       y       z     vdW  Elec       q    Type
REMARK                         _______ _______ _______ _____ _____    ______ ____
ROOT
ATOM      1  O   UNL     1       1.816   3.599  17.307  0.00  0.00    +0.000 OA
ATOM      2  C   UNL     1       2.004   4.299  18.290  0.00  0.00    +0.000 C 
ATOM      3  C   UNL     1       1.094   4.296  19.511  0.00  0.00    +0.000 C 
ATOM      4  C   UNL     1       1.008   2.902  20.107  0.00  0.00    +0.000 C 
ATOM      5  C   UNL     1       2.273   2.811  20.934  0.00  0.00    +0.000 C 
ATOM      6  C   UNL     1       2.433   4.223  21.474  0.00  0.00    +0.000 C 
ATOM      7  N   UNL     1       1.775   5.144  20.522  0.00  0.00    +0.000 NA
ATOM      8  C   UNL     1       2.761   5.943  19.757  0.00  0.00    +0.000 C 
ATOM      9  N   UNL     1       3.073   5.147  18.592  0.00  0.00    +0.000 N 
ENDROOT
BRANCH   8  10
ATOM     10  C   UNL     1       2.197   7.316  19.387  0.00  0.00    +0.000 A 
ATOM     11  C   UNL     1       2.282   7.863  18.092  0.00  0.00    +0.000 A 
ATOM     12  C   UNL     1       1.725   9.109  17.788  0.00  0.00    +0.000 A 
ATOM     13  C   UNL     1       1.081   9.846  18.777  0.00  0.00    +0.000 A 
ATOM     14  C   UNL     1       0.998   9.334  20.069  0.00  0.00    +0.000 A 
ATOM     15  C   UNL     1       1.550   8.084  20.362  0.00  0.00    +0.000 A 
ATOM     16  F   UNL     1       1.452   7.626  21.619  0.00  0.00    +0.000 F 
ENDBRANCH   8  10
BRANCH   9  17
ATOM     17  C   UNL     1       4.347   5.109  17.955  0.00  0.00    +0.000 A 
ATOM     18  C   UNL     1       4.484   5.411  16.590  0.00  0.00    +0.000 A 
ATOM     19  C   UNL     1       5.703   5.251  15.922  0.00  0.00    +0.000 A 
ATOM     20  C   UNL     1       6.805   4.780  16.615  0.00  0.00    +0.000 A 
ATOM     21  F   UNL     1       7.963   4.589  15.971  0.00  0.00    +0.000 F 
ATOM     22  C   UNL     1       6.716   4.501  17.970  0.00  0.00    +0.000 A 
ATOM     23  C   UNL     1       5.500   4.684  18.641  0.00  0.00    +0.000 A 
ENDBRANCH   9  17
TORSDOF 2
ENDMDL
MODEL 3
REMARK VINA RESULT:      -9.2      3.314      5.399
REMARK  Name = 
REMARK  2 active torsions:
REMARK  status: ('A' for Active; 'I' for Inactive)
REMARK    1  A    between atoms: C_8  and  C_9
REMARK    2  A    between atoms: N_16  and  C_17
REMARK                            x       y       z     vdW  Elec       q    Type
REMARK                         _______ _______ _______ _____ _____    ______ ____
ROOT
ATOM      1  O   UNL     1       8.260   4.069  17.203  0.00  0.00    +0.000 OA
ATOM      2  C   UNL     1       7.254   4.761  17.244  0.00  0.00    +0.000 C 
ATOM      3  C   UNL     1       6.897   5.658  18.422  0.00  0.00    +0.000 C 
ATOM      4  C   UNL     1       8.004   6.664  18.679  0.00  0.00    +0.000 C 
ATOM      5  C   UNL     1       7.723   7.743  17.654  0.00  0.00    +0.000 C 
ATOM      6  C   UNL     1       6.204   7.777  17.600  0.00  0.00    +0.000 C 
ATOM      7  N   UNL     1       5.712   6.438  17.989  0.00  0.00    +0.000 NA
ATOM      8  C   UNL     1       5.161   5.696  16.830  0.00  0.00    +0.000 C 
ATOM      9  N   UNL     1       6.286   4.989  16.263  0.00  0.00    +0.000 N 
ENDROOT
BRANCH   8  10
ATOM     10  C   UNL     1       4.039   4.749  17.259  0.00  0.00    +0.000 A 
ATOM     11  C   UNL     1       4.162   3.346  17.242  0.00  0.00    +0.000 A 
ATOM     12  C   UNL     1       3.122   2.517  17.673  0.00  0.00    +0.000 A 
ATOM     13  C   UNL     1       1.926   3.070  18.118  0.00  0.00    +0.000 A 
ATOM     14  C   UNL     1       1.773   4.454  18.129  0.00  0.00    +0.000 A 
ATOM     15  C   UNL     1       2.821   5.276  17.705  0.00  0.00    +0.000 A 
ATOM     16  F   UNL     1       2.635   6.604  17.728  0.00  0.00    +0.000 F 
ENDBRANCH   8  10
BRANCH   9  17
ATOM     17  C   UNL     1       6.457   4.723  14.873  0.00  0.00    +0.000 A 
ATOM     18  C   UNL     1       5.682   3.748  14.222  0.00  0.00    +0.000 A 
ATOM     19  C   UNL     1       5.928   3.384  12.893  0.00  0.00    +0.000 A 
ATOM     20  C   UNL     1       6.960   3.990  12.198  0.00  0.00    +0.000 A 
ATOM     21  F   UNL     1       7.222   3.616  10.940  0.00  0.00    +0.000 F 
ATOM     22  C   UNL     1       7.726   4.977  12.798  0.00  0.00    +0.000 A 
ATOM     23  C   UNL     1       7.464   5.356  14.121  0.00  0.00    +0.000 A 
ENDBRANCH   9  17
TORSDOF 2
ENDMDL
MODEL 4
REMARK VINA RESULT:      -9.1      1.998      5.322
REMARK  Name = 
REMARK  2 active torsions:
REMARK  status: ('A' for Active; 'I' for Inactive)
REMARK    1  A    between atoms: C_8  and  C_9
REMARK    2  A    between atoms: N_16  and  C_17
REMARK                            x       y       z     vdW  Elec       q    Type
REMARK                         _______ _______ _______ _____ _____    ______ ____
ROOT
ATOM      1  O   UNL     1       2.364   5.000  21.283  0.00  0.00    +0.000 OA
ATOM      2  C   UNL     1       2.847   4.904  20.165  0.00  0.00    +0.000 C 
ATOM      3  C   UNL     1       3.318   3.586  19.563  0.00  0.00    +0.000 C 
ATOM      4  C   UNL     1       2.179   2.584  19.521  0.00  0.00    +0.000 C 
ATOM      5  C   UNL     1       1.420   2.989  18.275  0.00  0.00    +0.000 C 
ATOM      6  C   UNL     1       2.525   3.430  17.328  0.00  0.00    +0.000 C 
ATOM      7  N   UNL     1       3.663   3.890  18.152  0.00  0.00    +0.000 NA
ATOM      8  C   UNL     1       3.820   5.363  18.099  0.00  0.00    +0.000 C 
ATOM      9  N   UNL     1       2.992   5.872  19.168  0.00  0.00    +0.000 N 
ENDROOT
BRANCH   8  10
ATOM     10  C   UNL     1       5.286   5.771  18.258  0.00  0.00    +0.000 A 
ATOM     11  C   UNL     1       6.110   5.306  19.302  0.00  0.00    +0.000 A 
ATOM     12  C   UNL     1       7.454   5.680  19.392  0.00  0.00    +0.000 A 
ATOM     13  C   UNL     1       8.006   6.539  18.448  0.00  0.00    +0.000 A 
ATOM     14  C   UNL     1       7.208   7.024  17.415  0.00  0.00    +0.000 A 
ATOM     15  C   UNL     1       5.867   6.640  17.327  0.00  0.00    +0.000 A 
ATOM     16  F   UNL     1       5.132   7.131  16.319  0.00  0.00    +0.000 F 
ENDBRANCH   8  10
BRANCH   9  17
ATOM     17  C   UNL     1       2.287   7.109  19.126  0.00  0.00    +0.000 A 
ATOM     18  C   UNL     1       2.214   7.861  17.942  0.00  0.00    +0.000 A 
ATOM     19  C   UNL     1       1.639   9.137  17.917  0.00  0.00    +0.000 A 
ATOM     20  C   UNL     1       1.132   9.680  19.085  0.00  0.00    +0.000 A 
ATOM     21  F   UNL     1       0.616  10.916  19.073  0.00  0.00    +0.000 F 
ATOM     22  C   UNL     1       1.158   8.956  20.266  0.00  0.00    +0.000 A 
ATOM     23  C   UNL     1       1.714   7.669  20.283  0.00  0.00    +0.000 A 
ENDBRANCH   9  17
TORSDOF 2
ENDMDL
MODEL 5
REMARK VINA RESULT:      -9.1      3.351      5.377
REMARK  Name = 
REMARK  2 active torsions:
REMARK  status: ('A' for Active; 'I' for Inactive)
REMARK    1  A    between atoms: C_8  and  C_9
REMARK    2  A    between atoms: N_16  and  C_17
REMARK                            x       y       z     vdW  Elec       q    Type
REMARK                         _______ _______ _______ _____ _____    ______ ____
ROOT
ATOM      1  O   UNL     1       8.330   4.036  17.409  0.00  0.00    +0.000 OA
ATOM      2  C   UNL     1       7.326   4.731  17.378  0.00  0.00    +0.000 C 
ATOM      3  C   UNL     1       6.921   5.673  18.504  0.00  0.00    +0.000 C 
ATOM      4  C   UNL     1       8.019   6.685  18.772  0.00  0.00    +0.000 C 
ATOM      5  C   UNL     1       7.789   7.725  17.696  0.00  0.00    +0.000 C 
ATOM      6  C   UNL     1       6.274   7.761  17.572  0.00  0.00    +0.000 C 
ATOM      7  N   UNL     1       5.759   6.439  17.989  0.00  0.00    +0.000 NA
ATOM      8  C   UNL     1       5.258   5.655  16.835  0.00  0.00    +0.000 C 
ATOM      9  N   UNL     1       6.404   4.924  16.346  0.00  0.00    +0.000 N 
ENDROOT
BRANCH   8  10
ATOM     10  C   UNL     1       4.113   4.728  17.249  0.00  0.00    +0.000 A 
ATOM     11  C   UNL     1       4.219   3.323  17.254  0.00  0.00    +0.000 A 
ATOM     12  C   UNL     1       3.158   2.513  17.669  0.00  0.00    +0.000 A 
ATOM     13  C   UNL     1       1.959   3.087  18.078  0.00  0.00    +0.000 A 
ATOM     14  C   UNL     1       1.824   4.473  18.067  0.00  0.00    +0.000 A 
ATOM     15  C   UNL     1       2.892   5.276  17.658  0.00  0.00    +0.000 A 
ATOM     16  F   UNL     1       2.722   6.606  17.660  0.00  0.00    +0.000 F 
ENDBRANCH   8  10
BRANCH   9  17
ATOM     17  C   UNL     1       6.636   4.605  14.977  0.00  0.00    +0.000 A 
ATOM     18  C   UNL     1       7.612   5.285  14.230  0.00  0.00    +0.000 A 
ATOM     19  C   UNL     1       7.761   5.076  12.854  0.00  0.00    +0.000 A 
ATOM     20  C   UNL     1       6.928   4.180  12.206  0.00  0.00    +0.000 A 
ATOM     21  F   UNL     1       7.042   4.006  10.883  0.00  0.00    +0.000 F 
ATOM     22  C   UNL     1       5.974   3.468  12.915  0.00  0.00    +0.000 A 
ATOM     23  C   UNL     1       5.842   3.663  14.296  0.00  0.00    +0.000 A 
ENDBRANCH   9  17
TORSDOF 2
ENDMDL
MODEL 6
REMARK VINA RESULT:      -9.0      1.995      5.332
REMARK  Name = 
REMARK  2 active torsions:
REMARK  status: ('A' for Active; 'I' for Inactive)
REMARK    1  A    between atoms: C_8  and  C_9
REMARK    2  A    between atoms: N_16  and  C_17
REMARK                            x       y       z     vdW  Elec       q    Type
REMARK                         _______ _______ _______ _____ _____    ______ ____
ROOT
ATOM      1  O   UNL     1       2.336   5.100  21.298  0.00  0.00    +0.000 OA
ATOM      2  C   UNL     1       2.805   5.008  20.173  0.00  0.00    +0.000 C 
ATOM      3  C   UNL     1       3.205   3.685  19.534  0.00  0.00    +0.000 C 
ATOM      4  C   UNL     1       2.018   2.741  19.478  0.00  0.00    +0.000 C 
ATOM      5  C   UNL     1       1.270   3.215  18.249  0.00  0.00    +0.000 C 
ATOM      6  C   UNL     1       2.387   3.625  17.303  0.00  0.00    +0.000 C 
ATOM      7  N   UNL     1       3.554   4.007  18.128  0.00  0.00    +0.000 NA
ATOM      8  C   UNL     1       3.784   5.471  18.111  0.00  0.00    +0.000 C 
ATOM      9  N   UNL     1       2.990   5.993  19.200  0.00  0.00    +0.000 N 
ENDROOT
BRANCH   8  10
ATOM     10  C   UNL     1       5.269   5.802  18.266  0.00  0.00    +0.000 A 
ATOM     11  C   UNL     1       6.062   5.320  19.326  0.00  0.00    +0.000 A 
ATOM     12  C   UNL     1       7.425   5.621  19.413  0.00  0.00    +0.000 A 
ATOM     13  C   UNL     1       8.026   6.423  18.450  0.00  0.00    +0.000 A 
ATOM     14  C   UNL     1       7.260   6.925  17.401  0.00  0.00    +0.000 A 
ATOM     15  C   UNL     1       5.901   6.613  17.316  0.00  0.00    +0.000 A 
ATOM     16  F   UNL     1       5.197   7.117  16.292  0.00  0.00    +0.000 F 
ENDBRANCH   8  10
BRANCH   9  17
ATOM     17  C   UNL     1       2.347   7.264  19.195  0.00  0.00    +0.000 A 
ATOM     18  C   UNL     1       1.741   7.773  20.356  0.00  0.00    +0.000 A 
ATOM     19  C   UNL     1       0.993   8.956  20.335  0.00  0.00    +0.000 A 
ATOM     20  C   UNL     1       0.839   9.645  19.144  0.00  0.00    +0.000 A 
ATOM     21  F   UNL     1       0.093  10.757  19.112  0.00  0.00    +0.000 F 
ATOM     22  C   UNL     1       1.448   9.190  17.985  0.00  0.00    +0.000 A 
ATOM     23  C   UNL     1       2.214   8.017  18.014  0.00  0.00    +0.000 A 
ENDBRANCH   9  17
TORSDOF 2
ENDMDL
MODEL 7
REMARK VINA RESULT:      -8.8      1.687      5.335
REMARK  Name = 
REMARK  2 active torsions:
REMARK  status: ('A' for Active; 'I' for Inactive)
REMARK    1  A    between atoms: C_8  and  C_9
REMARK    2  A    between atoms: N_16  and  C_17
REMARK                            x       y       z     vdW  Elec       q    Type
REMARK                         _______ _______ _______ _____ _____    ______ ____
ROOT
ATOM      1  O   UNL     1       2.370   4.803  21.492  0.00  0.00    +0.000 OA
ATOM      2  C   UNL     1       2.729   4.568  20.348  0.00  0.00    +0.000 C 
ATOM      3  C   UNL     1       2.915   3.160  19.797  0.00  0.00    +0.000 C 
ATOM      4  C   UNL     1       1.625   2.370  19.910  0.00  0.00    +0.000 C 
ATOM      5  C   UNL     1       0.837   2.837  18.704  0.00  0.00    +0.000 C 
ATOM      6  C   UNL     1       1.912   3.032  17.647  0.00  0.00    +0.000 C 
ATOM      7  N   UNL     1       3.180   3.329  18.347  0.00  0.00    +0.000 NA
ATOM      8  C   UNL     1       3.579   4.747  18.187  0.00  0.00    +0.000 C 
ATOM      9  N   UNL     1       2.947   5.445  19.282  0.00  0.00    +0.000 N 
ENDROOT
BRANCH   8  10
ATOM     10  C   UNL     1       5.101   4.902  18.202  0.00  0.00    +0.000 A 
ATOM     11  C   UNL     1       5.810   5.459  19.285  0.00  0.00    +0.000 A 
ATOM     12  C   UNL     1       7.205   5.553  19.272  0.00  0.00    +0.000 A 
ATOM     13  C   UNL     1       7.925   5.105  18.169  0.00  0.00    +0.000 A 
ATOM     14  C   UNL     1       7.246   4.565  17.080  0.00  0.00    +0.000 A 
ATOM     15  C   UNL     1       5.852   4.467  17.105  0.00  0.00    +0.000 A 
ATOM     16  F   UNL     1       5.235   3.943  16.036  0.00  0.00    +0.000 F 
ENDBRANCH   8  10
BRANCH   9  17
ATOM     17  C   UNL     1       2.459   6.782  19.216  0.00  0.00    +0.000 A 
ATOM     18  C   UNL     1       1.871   7.395  20.335  0.00  0.00    +0.000 A 
ATOM     19  C   UNL     1       1.270   8.656  20.250  0.00  0.00    +0.000 A 
ATOM     20  C   UNL     1       1.248   9.321  19.037  0.00  0.00    +0.000 A 
ATOM     21  F   UNL     1       0.641  10.511  18.942  0.00  0.00    +0.000 F 
ATOM     22  C   UNL     1       1.845   8.762  17.917  0.00  0.00    +0.000 A 
ATOM     23  C   UNL     1       2.465   7.509  18.011  0.00  0.00    +0.000 A 
ENDBRANCH   9  17
TORSDOF 2
ENDMDL
MODEL 8
REMARK VINA RESULT:      -8.8      1.694      5.333
REMARK  Name = 
REMARK  2 active torsions:
REMARK  status: ('A' for Active; 'I' for Inactive)
REMARK    1  A    between atoms: C_8  and  C_9
REMARK    2  A    between atoms: N_16  and  C_17
REMARK                            x       y       z     vdW  Elec       q    Type
REMARK                         _______ _______ _______ _____ _____    ______ ____
ROOT
ATOM      1  O   UNL     1       2.348   4.706  21.496  0.00  0.00    +0.000 OA
ATOM      2  C   UNL     1       2.725   4.449  20.363  0.00  0.00    +0.000 C 
ATOM      3  C   UNL     1       2.982   3.034  19.863  0.00  0.00    +0.000 C 
ATOM      4  C   UNL     1       1.729   2.187  19.998  0.00  0.00    +0.000 C 
ATOM      5  C   UNL     1       0.928   2.573  18.772  0.00  0.00    +0.000 C 
ATOM      6  C   UNL     1       1.999   2.782  17.714  0.00  0.00    +0.000 C 
ATOM      7  N   UNL     1       3.247   3.164  18.409  0.00  0.00    +0.000 NA
ATOM      8  C   UNL     1       3.579   4.593  18.201  0.00  0.00    +0.000 C 
ATOM      9  N   UNL     1       2.907   5.297  19.268  0.00  0.00    +0.000 N 
ENDROOT
BRANCH   8  10
ATOM     10  C   UNL     1       5.091   4.821  18.218  0.00  0.00    +0.000 A 
ATOM     11  C   UNL     1       5.772   5.408  19.302  0.00  0.00    +0.000 A 
ATOM     12  C   UNL     1       7.161   5.570  19.290  0.00  0.00    +0.000 A 
ATOM     13  C   UNL     1       7.903   5.161  18.187  0.00  0.00    +0.000 A 
ATOM     14  C   UNL     1       7.251   4.593  17.095  0.00  0.00    +0.000 A 
ATOM     15  C   UNL     1       5.863   4.427  17.119  0.00  0.00    +0.000 A 
ATOM     16  F   UNL     1       5.272   3.878  16.048  0.00  0.00    +0.000 F 
ENDBRANCH   8  10
BRANCH   9  17
ATOM     17  C   UNL     1       2.356   6.607  19.152  0.00  0.00    +0.000 A 
ATOM     18  C   UNL     1       2.417   7.313  17.939  0.00  0.00    +0.000 A 
ATOM     19  C   UNL     1       2.000   8.646  17.845  0.00  0.00    +0.000 A 
ATOM     20  C   UNL     1       1.519   9.292  18.971  0.00  0.00    +0.000 A 
ATOM     21  F   UNL     1       1.156  10.579  18.893  0.00  0.00    +0.000 F 
ATOM     22  C   UNL     1       1.416   8.619  20.178  0.00  0.00    +0.000 A 
ATOM     23  C   UNL     1       1.813   7.278  20.264  0.00  0.00    +0.000 A 
ENDBRANCH   9  17
TORSDOF 2
ENDMDL
MODEL 9
REMARK VINA RESULT:      -8.5      1.424      1.512
REMARK  Name = 
REMARK  2 active torsions:
REMARK  status: ('A' for Active; 'I' for Inactive)
REMARK    1  A    between atoms: C_8  and  C_9
REMARK    2  A    between atoms: N_16  and  C_17
REMARK                            x       y       z     vdW  Elec       q    Type
REMARK                         _______ _______ _______ _____ _____    ______ ____
ROOT
ATOM      1  O   UNL     1       2.894   4.101  16.977  0.00  0.00    +0.000 OA
ATOM      2  C   UNL     1       2.661   4.660  18.039  0.00  0.00    +0.000 C 
ATOM      3  C   UNL     1       1.446   4.349  18.903  0.00  0.00    +0.000 C 
ATOM      4  C   UNL     1       1.429   2.881  19.288  0.00  0.00    +0.000 C 
ATOM      5  C   UNL     1       2.390   2.829  20.458  0.00  0.00    +0.000 C 
ATOM      6  C   UNL     1       2.138   4.150  21.167  0.00  0.00    +0.000 C 
ATOM      7  N   UNL     1       1.642   5.112  20.160  0.00  0.00    +0.000 NA
ATOM      8  C   UNL     1       2.657   6.142  19.836  0.00  0.00    +0.000 C 
ATOM      9  N   UNL     1       3.430   5.583  18.750  0.00  0.00    +0.000 N 
ENDROOT
BRANCH   8  10
ATOM     10  C   UNL     1       2.000   7.470  19.455  0.00  0.00    +0.000 A 
ATOM     11  C   UNL     1       1.984   7.976  18.141  0.00  0.00    +0.000 A 
ATOM     12  C   UNL     1       1.344   9.180  17.830  0.00  0.00    +0.000 A 
ATOM     13  C   UNL     1       0.716   9.916  18.830  0.00  0.00    +0.000 A 
ATOM     14  C   UNL     1       0.732   9.444  20.140  0.00  0.00    +0.000 A 
ATOM     15  C   UNL     1       1.367   8.236  20.441  0.00  0.00    +0.000 A 
ATOM     16  F   UNL     1       1.362   7.817  21.715  0.00  0.00    +0.000 F 
ENDBRANCH   8  10
BRANCH   9  17
ATOM     17  C   UNL     1       4.823   5.811  18.548  0.00  0.00    +0.000 A 
ATOM     18  C   UNL     1       5.779   5.276  19.427  0.00  0.00    +0.000 A 
ATOM     19  C   UNL     1       7.136   5.598  19.319  0.00  0.00    +0.000 A 
ATOM     20  C   UNL     1       7.554   6.467  18.326  0.00  0.00    +0.000 A 
ATOM     21  F   UNL     1       8.847   6.808  18.243  0.00  0.00    +0.000 F 
ATOM     22  C   UNL     1       6.645   6.991  17.421  0.00  0.00    +0.000 A 
ATOM     23  C   UNL     1       5.289   6.649  17.518  0.00  0.00    +0.000 A 
ENDBRANCH   9  17
TORSDOF 2
ENDMDL
