MODEL 1
REMARK VINA RESULT:      -8.2      0.000      0.000
REMARK  Name = 
REMARK  1 active torsions:
REMARK  status: ('A' for Active; 'I' for Inactive)
REMARK    1  A    between atoms: C_4  and  C_5
REMARK                            x       y       z     vdW  Elec       q    Type
REMARK                         _______ _______ _______ _____ _____    ______ ____
ROOT
ATOM      1  O   UNL     1       7.831   6.624  16.349  0.00  0.00    +0.000 OA
ATOM      2  C   UNL     1       6.838   5.914  16.244  0.00  0.00    +0.000 C 
ATOM      3  N   UNL     1       5.891   5.861  17.226  0.00  0.00    +0.000 N 
ATOM      4  C   UNL     1       4.943   4.790  17.336  0.00  0.00    +0.000 C 
ATOM      5  N   UNL     1       4.436   4.453  16.017  0.00  0.00    +0.000 N 
ATOM      6  C   UNL     1       5.392   4.352  14.999  0.00  0.00    +0.000 A 
ATOM      7  C   UNL     1       5.104   3.641  13.830  0.00  0.00    +0.000 A 
ATOM      8  C   UNL     1       6.004   3.634  12.758  0.00  0.00    +0.000 A 
ATOM      9  C   UNL     1       7.189   4.365  12.830  0.00  0.00    +0.000 A 
ATOM     10  C   UNL     1       7.480   5.101  13.975  0.00  0.00    +0.000 A 
ATOM     11  C   UNL     1       6.580   5.094  15.045  0.00  0.00    +0.000 A 
ATOM     12  H   UNL     1       6.129   6.369  18.065  0.00  0.00    +0.000 HD
ATOM     13  H   UNL     1       3.777   3.682  16.039  0.00  0.00    +0.000 HD
ENDROOT
BRANCH   4  14
ATOM     14  C   UNL     1       3.784   5.219  18.222  0.00  0.00    +0.000 A 
ATOM     15  C   UNL     1       3.557   6.612  18.342  0.00  0.00    +0.000 A 
ATOM     16  C   UNL     1       2.558   7.115  19.164  0.00  0.00    +0.000 A 
ATOM     17  C   UNL     1       1.763   6.236  19.885  0.00  0.00    +0.000 A 
ATOM     18  C   UNL     1       1.941   4.848  19.785  0.00  0.00    +0.000 A 
ATOM     19  C   UNL     1       1.107   3.999  20.529  0.00  0.00    +0.000 A 
ATOM     20  C   UNL     1       1.241   2.616  20.455  0.00  0.00    +0.000 A 
ATOM     21  C   UNL     1       2.214   2.065  19.635  0.00  0.00    +0.000 A 
ATOM     22  C   UNL     1       3.059   2.898  18.891  0.00  0.00    +0.000 A 
ATOM     23  C   UNL     1       2.954   4.311  18.944  0.00  0.00    +0.000 A 
ENDBRANCH   4  14
TORSDOF 1
ENDMDL
MODEL 2
REMARK VINA RESULT:      -8.1      3.642      5.488
REMARK  Name = 
REMARK  1 active torsions:
REMARK  status: ('A' for Active; 'I' for Inactive)
REMARK    1  A    between atoms: C_4  and  C_5
REMARK                            x       y       z     vdW  Elec       q    Type
REMARK                         _______ _______ _______ _____ _____    ______ ____
ROOT
ATOM      1  O   UNL     1       5.669   5.068  19.398  0.00  0.00    +0.000 OA
ATOM      2  C   UNL     1       4.449   5.160  19.338  0.00  0.00    +0.000 C 
ATOM      3  N   UNL     1       3.815   6.360  19.483  0.00  0.00    +0.000 N 
ATOM      4  C   UNL     1       2.423   6.470  19.809  0.00  0.00    +0.000 C 
ATOM      5  N   UNL     1       1.665   5.499  19.038  0.00  0.00    +0.000 N 
ATOM      6  C   UNL     1       2.203   4.207  18.981  0.00  0.00    +0.000 A 
ATOM      7  C   UNL     1       1.389   3.119  18.651  0.00  0.00    +0.000 A 
ATOM      8  C   UNL     1       1.938   1.845  18.472  0.00  0.00    +0.000 A 
ATOM      9  C   UNL     1       3.314   1.648  18.591  0.00  0.00    +0.000 A 
ATOM     10  C   UNL     1       4.143   2.725  18.892  0.00  0.00    +0.000 A 
ATOM     11  C   UNL     1       3.584   3.993  19.079  0.00  0.00    +0.000 A 
ATOM     12  H   UNL     1       4.421   7.127  19.736  0.00  0.00    +0.000 HD
ATOM     13  H   UNL     1       0.674   5.521  19.252  0.00  0.00    +0.000 HD
ENDROOT
BRANCH   4  14
ATOM     14  C   UNL     1       1.926   7.868  19.475  0.00  0.00    +0.000 A 
ATOM     15  C   UNL     1       2.219   8.355  18.178  0.00  0.00    +0.000 A 
ATOM     16  C   UNL     1       1.857   9.636  17.785  0.00  0.00    +0.000 A 
ATOM     17  C   UNL     1       1.193  10.461  18.682  0.00  0.00    +0.000 A 
ATOM     18  C   UNL     1       0.868  10.015  19.972  0.00  0.00    +0.000 A 
ATOM     19  C   UNL     1       0.189  10.884  20.842  0.00  0.00    +0.000 A 
ATOM     20  C   UNL     1      -0.161  10.484  22.127  0.00  0.00    +0.000 A 
ATOM     21  C   UNL     1       0.164   9.208  22.560  0.00  0.00    +0.000 A 
ATOM     22  C   UNL     1       0.846   8.331  21.707  0.00  0.00    +0.000 A 
ATOM     23  C   UNL     1       1.224   8.705  20.393  0.00  0.00    +0.000 A 
ENDBRANCH   4  14
TORSDOF 1
ENDMDL
MODEL 3
REMARK VINA RESULT:      -8.1      3.085      6.526
REMARK  Name = 
REMARK  1 active torsions:
REMARK  status: ('A' for Active; 'I' for Inactive)
REMARK    1  A    between atoms: C_4  and  C_5
REMARK                            x       y       z     vdW  Elec       q    Type
REMARK                         _______ _______ _______ _____ _____    ______ ____
ROOT
ATOM      1  O   UNL     1       1.868  10.467  17.446  0.00  0.00    +0.000 OA
ATOM      2  C   UNL     1       1.880   9.496  18.193  0.00  0.00    +0.000 C 
ATOM      3  N   UNL     1       2.404   8.299  17.800  0.00  0.00    +0.000 N 
ATOM      4  C   UNL     1       2.100   7.062  18.460  0.00  0.00    +0.000 C 
ATOM      5  N   UNL     1       2.116   7.262  19.899  0.00  0.00    +0.000 N 
ATOM      6  C   UNL     1       1.460   8.409  20.366  0.00  0.00    +0.000 A 
ATOM      7  C   UNL     1       1.046   8.489  21.699  0.00  0.00    +0.000 A 
ATOM      8  C   UNL     1       0.500   9.674  22.207  0.00  0.00    +0.000 A 
ATOM      9  C   UNL     1       0.391  10.803  21.396  0.00  0.00    +0.000 A 
ATOM     10  C   UNL     1       0.824  10.750  20.074  0.00  0.00    +0.000 A 
ATOM     11  C   UNL     1       1.359   9.559  19.572  0.00  0.00    +0.000 A 
ATOM     12  H   UNL     1       2.682   8.260  16.830  0.00  0.00    +0.000 HD
ATOM     13  H   UNL     1       1.882   6.419  20.412  0.00  0.00    +0.000 HD
ENDROOT
BRANCH   4  14
ATOM     14  C   UNL     1       3.138   6.014  18.091  0.00  0.00    +0.000 A 
ATOM     15  C   UNL     1       4.399   6.491  17.658  0.00  0.00    +0.000 A 
ATOM     16  C   UNL     1       5.402   5.624  17.249  0.00  0.00    +0.000 A 
ATOM     17  C   UNL     1       5.167   4.256  17.265  0.00  0.00    +0.000 A 
ATOM     18  C   UNL     1       3.939   3.737  17.702  0.00  0.00    +0.000 A 
ATOM     19  C   UNL     1       3.751   2.346  17.706  0.00  0.00    +0.000 A 
ATOM     20  C   UNL     1       2.553   1.784  18.138  0.00  0.00    +0.000 A 
ATOM     21  C   UNL     1       1.527   2.610  18.572  0.00  0.00    +0.000 A 
ATOM     22  C   UNL     1       1.696   4.000  18.568  0.00  0.00    +0.000 A 
ATOM     23  C   UNL     1       2.899   4.608  18.131  0.00  0.00    +0.000 A 
ENDBRANCH   4  14
TORSDOF 1
ENDMDL
MODEL 4
REMARK VINA RESULT:      -8.0      1.399      2.763
REMARK  Name = 
REMARK  1 active torsions:
REMARK  status: ('A' for Active; 'I' for Inactive)
REMARK    1  A    between atoms: C_4  and  C_5
REMARK                            x       y       z     vdW  Elec       q    Type
REMARK                         _______ _______ _______ _____ _____    ______ ____
ROOT
ATOM      1  O   UNL     1       8.079   4.817  18.388  0.00  0.00    +0.000 OA
ATOM      2  C   UNL     1       6.959   4.506  18.000  0.00  0.00    +0.000 C 
ATOM      3  N   UNL     1       5.958   4.202  18.877  0.00  0.00    +0.000 N 
ATOM      4  C   UNL     1       4.784   3.472  18.495  0.00  0.00    +0.000 C 
ATOM      5  N   UNL     1       4.308   3.954  17.209  0.00  0.00    +0.000 N 
ATOM      6  C   UNL     1       5.286   4.143  16.225  0.00  0.00    +0.000 A 
ATOM      7  C   UNL     1       4.927   4.186  14.874  0.00  0.00    +0.000 A 
ATOM      8  C   UNL     1       5.875   4.494  13.892  0.00  0.00    +0.000 A 
ATOM      9  C   UNL     1       7.189   4.794  14.252  0.00  0.00    +0.000 A 
ATOM     10  C   UNL     1       7.558   4.783  15.594  0.00  0.00    +0.000 A 
ATOM     11  C   UNL     1       6.606   4.464  16.568  0.00  0.00    +0.000 A 
ATOM     12  H   UNL     1       6.245   4.162  19.844  0.00  0.00    +0.000 HD
ATOM     13  H   UNL     1       3.490   3.451  16.884  0.00  0.00    +0.000 HD
ENDROOT
BRANCH   4  14
ATOM     14  C   UNL     1       3.694   3.671  19.536  0.00  0.00    +0.000 A 
ATOM     15  C   UNL     1       3.327   2.534  20.298  0.00  0.00    +0.000 A 
ATOM     16  C   UNL     1       2.309   2.591  21.240  0.00  0.00    +0.000 A 
ATOM     17  C   UNL     1       1.635   3.786  21.443  0.00  0.00    +0.000 A 
ATOM     18  C   UNL     1       1.976   4.941  20.724  0.00  0.00    +0.000 A 
ATOM     19  C   UNL     1       1.269   6.130  20.969  0.00  0.00    +0.000 A 
ATOM     20  C   UNL     1       1.576   7.302  20.285  0.00  0.00    +0.000 A 
ATOM     21  C   UNL     1       2.597   7.300  19.346  0.00  0.00    +0.000 A 
ATOM     22  C   UNL     1       3.307   6.121  19.085  0.00  0.00    +0.000 A 
ATOM     23  C   UNL     1       3.019   4.908  19.757  0.00  0.00    +0.000 A 
ENDBRANCH   4  14
TORSDOF 1
ENDMDL
MODEL 5
REMARK VINA RESULT:      -7.9      3.556      6.218
REMARK  Name = 
REMARK  1 active torsions:
REMARK  status: ('A' for Active; 'I' for Inactive)
REMARK    1  A    between atoms: C_4  and  C_5
REMARK                            x       y       z     vdW  Elec       q    Type
REMARK                         _______ _______ _______ _____ _____    ______ ____
ROOT
ATOM      1  O   UNL     1       4.232   5.636  17.408  0.00  0.00    +0.000 OA
ATOM      2  C   UNL     1       3.517   5.825  18.384  0.00  0.00    +0.000 C 
ATOM      3  N   UNL     1       2.903   7.026  18.597  0.00  0.00    +0.000 N 
ATOM      4  C   UNL     1       2.394   7.423  19.879  0.00  0.00    +0.000 C 
ATOM      5  N   UNL     1       1.713   6.300  20.501  0.00  0.00    +0.000 N 
ATOM      6  C   UNL     1       2.377   5.068  20.435  0.00  0.00    +0.000 A 
ATOM      7  C   UNL     1       2.051   4.044  21.330  0.00  0.00    +0.000 A 
ATOM      8  C   UNL     1       2.619   2.772  21.198  0.00  0.00    +0.000 A 
ATOM      9  C   UNL     1       3.497   2.499  20.149  0.00  0.00    +0.000 A 
ATOM     10  C   UNL     1       3.811   3.498  19.232  0.00  0.00    +0.000 A 
ATOM     11  C   UNL     1       3.246   4.769  19.378  0.00  0.00    +0.000 A 
ATOM     12  H   UNL     1       3.165   7.753  17.948  0.00  0.00    +0.000 HD
ATOM     13  H   UNL     1       1.355   6.524  21.423  0.00  0.00    +0.000 HD
ENDROOT
BRANCH   4  14
ATOM     14  C   UNL     1       1.410   8.570  19.708  0.00  0.00    +0.000 A 
ATOM     15  C   UNL     1       1.201   9.037  18.388  0.00  0.00    +0.000 A 
ATOM     16  C   UNL     1       0.363  10.111  18.123  0.00  0.00    +0.000 A 
ATOM     17  C   UNL     1      -0.286  10.744  19.174  0.00  0.00    +0.000 A 
ATOM     18  C   UNL     1      -0.121  10.305  20.496  0.00  0.00    +0.000 A 
ATOM     19  C   UNL     1      -0.803  10.973  21.526  0.00  0.00    +0.000 A 
ATOM     20  C   UNL     1      -0.677  10.569  22.851  0.00  0.00    +0.000 A 
ATOM     21  C   UNL     1       0.136   9.490  23.163  0.00  0.00    +0.000 A 
ATOM     22  C   UNL     1       0.829   8.817  22.150  0.00  0.00    +0.000 A 
ATOM     23  C   UNL     1       0.728   9.202  20.790  0.00  0.00    +0.000 A 
ENDBRANCH   4  14
TORSDOF 1
ENDMDL
MODEL 6
REMARK VINA RESULT:      -7.9      2.301      6.652
REMARK  Name = 
REMARK  1 active torsions:
REMARK  status: ('A' for Active; 'I' for Inactive)
REMARK    1  A    between atoms: C_4  and  C_5
REMARK                            x       y       z     vdW  Elec       q    Type
REMARK                         _______ _______ _______ _____ _____    ______ ____
ROOT
ATOM      1  O   UNL     1       0.846   4.341  17.247  0.00  0.00    +0.000 OA
ATOM      2  C   UNL     1       1.917   4.084  17.784  0.00  0.00    +0.000 C 
ATOM      3  N   UNL     1       3.106   4.342  17.164  0.00  0.00    +0.000 N 
ATOM      4  C   UNL     1       4.339   3.723  17.557  0.00  0.00    +0.000 C 
ATOM      5  N   UNL     1       4.429   3.696  19.007  0.00  0.00    +0.000 N 
ATOM      6  C   UNL     1       3.272   3.294  19.686  0.00  0.00    +0.000 A 
ATOM      7  C   UNL     1       3.354   2.828  21.002  0.00  0.00    +0.000 A 
ATOM      8  C   UNL     1       2.195   2.539  21.731  0.00  0.00    +0.000 A 
ATOM      9  C   UNL     1       0.937   2.742  21.163  0.00  0.00    +0.000 A 
ATOM     10  C   UNL     1       0.836   3.231  19.864  0.00  0.00    +0.000 A 
ATOM     11  C   UNL     1       2.000   3.508  19.139  0.00  0.00    +0.000 A 
ATOM     12  H   UNL     1       3.021   4.663  16.211  0.00  0.00    +0.000 HD
ATOM     13  H   UNL     1       5.276   3.244  19.336  0.00  0.00    +0.000 HD
ENDROOT
BRANCH   4  14
ATOM     14  C   UNL     1       5.512   4.513  16.999  0.00  0.00    +0.000 A 
ATOM     15  C   UNL     1       6.175   5.387  17.895  0.00  0.00    +0.000 A 
ATOM     16  C   UNL     1       7.225   6.192  17.478  0.00  0.00    +0.000 A 
ATOM     17  C   UNL     1       7.638   6.143  16.155  0.00  0.00    +0.000 A 
ATOM     18  C   UNL     1       7.021   5.281  15.235  0.00  0.00    +0.000 A 
ATOM     19  C   UNL     1       7.478   5.261  13.908  0.00  0.00    +0.000 A 
ATOM     20  C   UNL     1       6.903   4.417  12.963  0.00  0.00    +0.000 A 
ATOM     21  C   UNL     1       5.861   3.581  13.335  0.00  0.00    +0.000 A 
ATOM     22  C   UNL     1       5.389   3.593  14.653  0.00  0.00    +0.000 A 
ATOM     23  C   UNL     1       5.947   4.442  15.642  0.00  0.00    +0.000 A 
ENDBRANCH   4  14
TORSDOF 1
ENDMDL
MODEL 7
REMARK VINA RESULT:      -7.9      3.931      7.317
REMARK  Name = 
REMARK  1 active torsions:
REMARK  status: ('A' for Active; 'I' for Inactive)
REMARK    1  A    between atoms: C_4  and  C_5
REMARK                            x       y       z     vdW  Elec       q    Type
REMARK                         _______ _______ _______ _____ _____    ______ ____
ROOT
ATOM      1  O   UNL     1       1.144   9.296  23.046  0.00  0.00    +0.000 OA
ATOM      2  C   UNL     1       1.208   9.084  21.841  0.00  0.00    +0.000 C 
ATOM      3  N   UNL     1       1.728   7.922  21.348  0.00  0.00    +0.000 N 
ATOM      4  C   UNL     1       2.180   7.785  19.993  0.00  0.00    +0.000 C 
ATOM      5  N   UNL     1       1.233   8.428  19.098  0.00  0.00    +0.000 N 
ATOM      6  C   UNL     1       0.779   9.693  19.491  0.00  0.00    +0.000 A 
ATOM      7  C   UNL     1       0.226  10.567  18.549  0.00  0.00    +0.000 A 
ATOM      8  C   UNL     1      -0.340  11.783  18.949  0.00  0.00    +0.000 A 
ATOM      9  C   UNL     1      -0.389  12.126  20.300  0.00  0.00    +0.000 A 
ATOM     10  C   UNL     1       0.132  11.256  21.254  0.00  0.00    +0.000 A 
ATOM     11  C   UNL     1       0.705  10.048  20.844  0.00  0.00    +0.000 A 
ATOM     12  H   UNL     1       2.135   7.315  22.044  0.00  0.00    +0.000 HD
ATOM     13  H   UNL     1       1.521   8.379  18.126  0.00  0.00    +0.000 HD
ENDROOT
BRANCH   4  14
ATOM     14  C   UNL     1       2.285   6.311  19.633  0.00  0.00    +0.000 A 
ATOM     15  C   UNL     1       1.527   5.409  20.418  0.00  0.00    +0.000 A 
ATOM     16  C   UNL     1       1.588   4.038  20.209  0.00  0.00    +0.000 A 
ATOM     17  C   UNL     1       2.409   3.538  19.208  0.00  0.00    +0.000 A 
ATOM     18  C   UNL     1       3.165   4.396  18.395  0.00  0.00    +0.000 A 
ATOM     19  C   UNL     1       3.976   3.843  17.392  0.00  0.00    +0.000 A 
ATOM     20  C   UNL     1       4.738   4.654  16.556  0.00  0.00    +0.000 A 
ATOM     21  C   UNL     1       4.697   6.031  16.715  0.00  0.00    +0.000 A 
ATOM     22  C   UNL     1       3.899   6.598  17.716  0.00  0.00    +0.000 A 
ATOM     23  C   UNL     1       3.114   5.804  18.588  0.00  0.00    +0.000 A 
ENDBRANCH   4  14
TORSDOF 1
ENDMDL
MODEL 8
REMARK VINA RESULT:      -7.9      3.497      7.048
REMARK  Name = 
REMARK  1 active torsions:
REMARK  status: ('A' for Active; 'I' for Inactive)
REMARK    1  A    between atoms: C_4  and  C_5
REMARK                            x       y       z     vdW  Elec       q    Type
REMARK                         _______ _______ _______ _____ _____    ______ ____
ROOT
ATOM      1  O   UNL     1       1.456   8.314  22.043  0.00  0.00    +0.000 OA
ATOM      2  C   UNL     1       1.517   8.345  20.820  0.00  0.00    +0.000 C 
ATOM      3  N   UNL     1       2.172   7.377  20.114  0.00  0.00    +0.000 N 
ATOM      4  C   UNL     1       2.605   7.561  18.758  0.00  0.00    +0.000 C 
ATOM      5  N   UNL     1       1.561   8.231  18.001  0.00  0.00    +0.000 N 
ATOM      6  C   UNL     1       0.956   9.328  18.629  0.00  0.00    +0.000 A 
ATOM      7  C   UNL     1       0.272  10.283  17.872  0.00  0.00    +0.000 A 
ATOM      8  C   UNL     1      -0.438  11.315  18.496  0.00  0.00    +0.000 A 
ATOM      9  C   UNL     1      -0.498  11.386  19.888  0.00  0.00    +0.000 A 
ATOM     10  C   UNL     1       0.154  10.428  20.658  0.00  0.00    +0.000 A 
ATOM     11  C   UNL     1       0.870   9.405  20.025  0.00  0.00    +0.000 A 
ATOM     12  H   UNL     1       2.671   6.708  20.682  0.00  0.00    +0.000 HD
ATOM     13  H   UNL     1       1.829   8.406  17.039  0.00  0.00    +0.000 HD
ENDROOT
BRANCH   4  14
ATOM     14  C   UNL     1       2.892   6.210  18.123  0.00  0.00    +0.000 A 
ATOM     15  C   UNL     1       1.865   5.237  18.203  0.00  0.00    +0.000 A 
ATOM     16  C   UNL     1       2.040   3.955  17.701  0.00  0.00    +0.000 A 
ATOM     17  C   UNL     1       3.246   3.616  17.107  0.00  0.00    +0.000 A 
ATOM     18  C   UNL     1       4.285   4.551  16.990  0.00  0.00    +0.000 A 
ATOM     19  C   UNL     1       5.486   4.163  16.374  0.00  0.00    +0.000 A 
ATOM     20  C   UNL     1       6.541   5.058  16.228  0.00  0.00    +0.000 A 
ATOM     21  C   UNL     1       6.408   6.355  16.698  0.00  0.00    +0.000 A 
ATOM     22  C   UNL     1       5.220   6.757  17.322  0.00  0.00    +0.000 A 
ATOM     23  C   UNL     1       4.126   5.872  17.492  0.00  0.00    +0.000 A 
ENDBRANCH   4  14
TORSDOF 1
ENDMDL
MODEL 9
REMARK VINA RESULT:      -7.7      2.868      5.239
REMARK  Name = 
REMARK  1 active torsions:
REMARK  status: ('A' for Active; 'I' for Inactive)
REMARK    1  A    between atoms: C_4  and  C_5
REMARK                            x       y       z     vdW  Elec       q    Type
REMARK                         _______ _______ _______ _____ _____    ______ ____
ROOT
ATOM      1  O   UNL     1       5.135   5.430  16.842  0.00  0.00    +0.000 OA
ATOM      2  C   UNL     1       4.129   5.510  17.536  0.00  0.00    +0.000 C 
ATOM      3  N   UNL     1       3.651   6.714  17.965  0.00  0.00    +0.000 N 
ATOM      4  C   UNL     1       2.742   6.843  19.068  0.00  0.00    +0.000 C 
ATOM      5  N   UNL     1       1.726   5.807  18.983  0.00  0.00    +0.000 N 
ATOM      6  C   UNL     1       2.186   4.518  18.687  0.00  0.00    +0.000 A 
ATOM      7  C   UNL     1       1.401   3.402  18.991  0.00  0.00    +0.000 A 
ATOM      8  C   UNL     1       1.796   2.120  18.592  0.00  0.00    +0.000 A 
ATOM      9  C   UNL     1       2.966   1.942  17.856  0.00  0.00    +0.000 A 
ATOM     10  C   UNL     1       3.747   3.045  17.520  0.00  0.00    +0.000 A 
ATOM     11  C   UNL     1       3.350   4.321  17.932  0.00  0.00    +0.000 A 
ATOM     12  H   UNL     1       4.243   7.502  17.747  0.00  0.00    +0.000 HD
ATOM     13  H   UNL     1       1.070   5.841  19.757  0.00  0.00    +0.000 HD
ENDROOT
BRANCH   4  14
ATOM     14  C   UNL     1       2.070   8.206  19.024  0.00  0.00    +0.000 A 
ATOM     15  C   UNL     1       2.249   8.965  17.842  0.00  0.00    +0.000 A 
ATOM     16  C   UNL     1       1.721  10.243  17.714  0.00  0.00    +0.000 A 
ATOM     17  C   UNL     1       1.003  10.791  18.767  0.00  0.00    +0.000 A 
ATOM     18  C   UNL     1       0.786  10.069  19.950  0.00  0.00    +0.000 A 
ATOM     19  C   UNL     1       0.047  10.663  20.985  0.00  0.00    +0.000 A 
ATOM     20  C   UNL     1      -0.200   9.983  22.173  0.00  0.00    +0.000 A 
ATOM     21  C   UNL     1       0.291   8.697  22.341  0.00  0.00    +0.000 A 
ATOM     22  C   UNL     1       1.037   8.093  21.322  0.00  0.00    +0.000 A 
ATOM     23  C   UNL     1       1.312   8.756  20.100  0.00  0.00    +0.000 A 
ENDBRANCH   4  14
TORSDOF 1
ENDMDL
