MODEL 1
REMARK VINA RESULT:      -7.7      0.000      0.000
REMARK  Name = 
REMARK  5 active torsions:
REMARK  status: ('A' for Active; 'I' for Inactive)
REMARK    1  A    between atoms: C_1  and  C_2
REMARK    2  A    between atoms: C_4  and  C_5
REMARK    3  A    between atoms: N_6  and  C_7
REMARK    4  A    between atoms: C_7  and  C_8
REMARK    5  A    between atoms: N_12  and  C_13
REMARK                            x       y       z     vdW  Elec       q    Type
REMARK                         _______ _______ _______ _____ _____    ______ ____
ROOT
ATOM      1  C   UNL     1       4.458   4.565  18.826  0.00  0.00    +0.000 C 
ATOM      2  C   UNL     1       3.808   3.441  19.626  0.00  0.00    +0.000 C 
ATOM      3  C   UNL     1       2.297   3.669  19.633  0.00  0.00    +0.000 C 
ATOM      4  C   UNL     1       1.872   5.052  20.213  0.00  0.00    +0.000 C 
ATOM      5  N   UNL     1       2.582   6.121  19.515  0.00  0.00    +0.000 N 
ATOM      6  C   UNL     1       4.108   5.922  19.547  0.00  0.00    +0.000 C 
ENDROOT
BRANCH   5   7
ATOM      7  C   UNL     1       2.092   7.439  19.380  0.00  0.00    +0.000 A 
ATOM      8  N   UNL     1       2.194   7.894  18.097  0.00  0.00    +0.000 NA
ATOM      9  C   UNL     1       1.679   9.075  17.761  0.00  0.00    +0.000 A 
ATOM     10  N   UNL     1       1.583  10.146  18.556  0.00  0.00    +0.000 NA
ATOM     11  C   UNL     1       1.343   9.714  19.794  0.00  0.00    +0.000 A 
ATOM     12  N   UNL     1       0.891  10.542  20.778  0.00  0.00    +0.000 N 
ATOM     13  C   UNL     1       0.077   9.805  21.591  0.00  0.00    +0.000 A 
ATOM     14  C   UNL     1       0.358   8.462  21.318  0.00  0.00    +0.000 A 
ATOM     15  C   UNL     1       1.345   8.383  20.238  0.00  0.00    +0.000 A 
ATOM     16  H   UNL     1       0.928  11.548  20.707  0.00  0.00    +0.000 HD
ENDBRANCH   5   7
BRANCH   1  17
ATOM     17  C   UNL     1       5.899   4.177  18.446  0.00  0.00    +0.000 C 
BRANCH  17  23
ATOM     18  C   UNL     1       6.306   3.967  13.648  0.00  0.00    +0.000 C 
ATOM     19  C   UNL     1       6.394   4.523  14.981  0.00  0.00    +0.000 A 
ATOM     20  N   UNL     1       7.049   5.670  15.320  0.00  0.00    +0.000 NA
ATOM     21  C   UNL     1       6.889   5.785  16.636  0.00  0.00    +0.000 A 
ATOM     22  C   UNL     1       7.403   6.904  17.456  0.00  0.00    +0.000 C 
ATOM     23  N   UNL     1       6.175   4.694  17.079  0.00  0.00    +0.000 N 
ATOM     24  N   UNL     1       5.802   3.928  16.044  0.00  0.00    +0.000 NA
ENDBRANCH  17  23
ENDBRANCH   1  17
TORSDOF 3
ENDMDL
MODEL 2
REMARK VINA RESULT:      -7.7      0.900      1.810
REMARK  Name = 
REMARK  5 active torsions:
REMARK  status: ('A' for Active; 'I' for Inactive)
REMARK    1  A    between atoms: C_1  and  C_2
REMARK    2  A    between atoms: C_4  and  C_5
REMARK    3  A    between atoms: N_6  and  C_7
REMARK    4  A    between atoms: C_7  and  C_8
REMARK    5  A    between atoms: N_12  and  C_13
REMARK                            x       y       z     vdW  Elec       q    Type
REMARK                         _______ _______ _______ _____ _____    ______ ____
ROOT
ATOM      1  C   UNL     1       4.320   4.456  18.550  0.00  0.00    +0.000 C 
ATOM      2  C   UNL     1       3.536   3.166  18.770  0.00  0.00    +0.000 C 
ATOM      3  C   UNL     1       2.048   3.478  18.612  0.00  0.00    +0.000 C 
ATOM      4  C   UNL     1       1.531   4.587  19.577  0.00  0.00    +0.000 C 
ATOM      5  N   UNL     1       2.357   5.786  19.440  0.00  0.00    +0.000 N 
ATOM      6  C   UNL     1       3.853   5.487  19.647  0.00  0.00    +0.000 C 
ENDROOT
BRANCH   5   7
ATOM      7  C   UNL     1       1.902   7.094  19.715  0.00  0.00    +0.000 A 
ATOM      8  N   UNL     1       1.591   7.260  21.033  0.00  0.00    +0.000 NA
ATOM      9  C   UNL     1       1.250   8.462  21.497  0.00  0.00    +0.000 A 
ATOM     10  N   UNL     1       0.608   9.415  20.814  0.00  0.00    +0.000 NA
ATOM     11  C   UNL     1       1.014   9.350  19.545  0.00  0.00    +0.000 A 
ATOM     12  N   UNL     1       0.791  10.361  18.658  0.00  0.00    +0.000 N 
ATOM     13  C   UNL     1       1.851  10.390  17.797  0.00  0.00    +0.000 A 
ATOM     14  C   UNL     1       2.501   9.158  17.930  0.00  0.00    +0.000 A 
ATOM     15  C   UNL     1       1.839   8.370  18.972  0.00  0.00    +0.000 A 
ATOM     16  H   UNL     1       0.126  11.101  18.827  0.00  0.00    +0.000 HD
ENDBRANCH   5   7
BRANCH   1  17
ATOM     17  C   UNL     1       5.804   4.134  18.295  0.00  0.00    +0.000 C 
BRANCH  17  23
ATOM     18  C   UNL     1       6.491   4.002  13.527  0.00  0.00    +0.000 C 
ATOM     19  C   UNL     1       6.513   4.531  14.874  0.00  0.00    +0.000 A 
ATOM     20  N   UNL     1       7.176   5.654  15.274  0.00  0.00    +0.000 NA
ATOM     21  C   UNL     1       6.941   5.748  16.580  0.00  0.00    +0.000 A 
ATOM     22  C   UNL     1       7.434   6.838  17.452  0.00  0.00    +0.000 C 
ATOM     23  N   UNL     1       6.175   4.669  16.958  0.00  0.00    +0.000 N 
ATOM     24  N   UNL     1       5.844   3.932  15.888  0.00  0.00    +0.000 NA
ENDBRANCH  17  23
ENDBRANCH   1  17
TORSDOF 3
ENDMDL
MODEL 3
REMARK VINA RESULT:      -7.6      1.190      2.613
REMARK  Name = 
REMARK  5 active torsions:
REMARK  status: ('A' for Active; 'I' for Inactive)
REMARK    1  A    between atoms: C_1  and  C_2
REMARK    2  A    between atoms: C_4  and  C_5
REMARK    3  A    between atoms: N_6  and  C_7
REMARK    4  A    between atoms: C_7  and  C_8
REMARK    5  A    between atoms: N_12  and  C_13
REMARK                            x       y       z     vdW  Elec       q    Type
REMARK                         _______ _______ _______ _____ _____    ______ ____
ROOT
ATOM      1  C   UNL     1       4.394   4.374  18.523  0.00  0.00    +0.000 C 
ATOM      2  C   UNL     1       3.527   3.123  18.426  0.00  0.00    +0.000 C 
ATOM      3  C   UNL     1       2.111   3.551  18.038  0.00  0.00    +0.000 C 
ATOM      4  C   UNL     1       1.469   4.570  19.027  0.00  0.00    +0.000 C 
ATOM      5  N   UNL     1       2.357   5.718  19.201  0.00  0.00    +0.000 N 
ATOM      6  C   UNL     1       3.772   5.296  19.640  0.00  0.00    +0.000 C 
ENDROOT
BRANCH   5   7
ATOM      7  C   UNL     1       1.916   7.012  19.555  0.00  0.00    +0.000 A 
ATOM      8  N   UNL     1       1.594   7.098  20.878  0.00  0.00    +0.000 NA
ATOM      9  C   UNL     1       1.264   8.272  21.414  0.00  0.00    +0.000 A 
ATOM     10  N   UNL     1       0.641   9.275  20.787  0.00  0.00    +0.000 NA
ATOM     11  C   UNL     1       1.058   9.286  19.521  0.00  0.00    +0.000 A 
ATOM     12  N   UNL     1       0.856  10.354  18.698  0.00  0.00    +0.000 N 
ATOM     13  C   UNL     1       1.924  10.424  17.850  0.00  0.00    +0.000 A 
ATOM     14  C   UNL     1       2.558   9.177  17.910  0.00  0.00    +0.000 A 
ATOM     15  C   UNL     1       1.876   8.334  18.894  0.00  0.00    +0.000 A 
ATOM     16  H   UNL     1       0.198  11.090  18.908  0.00  0.00    +0.000 HD
ENDBRANCH   5   7
BRANCH   1  17
ATOM     17  C   UNL     1       5.884   3.985  18.507  0.00  0.00    +0.000 C 
BRANCH  17  23
ATOM     18  C   UNL     1       7.969   8.270  17.786  0.00  0.00    +0.000 C 
ATOM     19  C   UNL     1       7.475   6.946  17.474  0.00  0.00    +0.000 A 
ATOM     20  N   UNL     1       7.358   6.419  16.221  0.00  0.00    +0.000 NA
ATOM     21  C   UNL     1       6.847   5.204  16.403  0.00  0.00    +0.000 A 
ATOM     22  C   UNL     1       6.571   4.232  15.322  0.00  0.00    +0.000 C 
ATOM     23  N   UNL     1       6.629   5.027  17.750  0.00  0.00    +0.000 N 
ATOM     24  N   UNL     1       7.078   6.085  18.441  0.00  0.00    +0.000 NA
ENDBRANCH  17  23
ENDBRANCH   1  17
TORSDOF 3
ENDMDL
MODEL 4
REMARK VINA RESULT:      -7.4      1.056      1.909
REMARK  Name = 
REMARK  5 active torsions:
REMARK  status: ('A' for Active; 'I' for Inactive)
REMARK    1  A    between atoms: C_1  and  C_2
REMARK    2  A    between atoms: C_4  and  C_5
REMARK    3  A    between atoms: N_6  and  C_7
REMARK    4  A    between atoms: C_7  and  C_8
REMARK    5  A    between atoms: N_12  and  C_13
REMARK                            x       y       z     vdW  Elec       q    Type
REMARK                         _______ _______ _______ _____ _____    ______ ____
ROOT
ATOM      1  C   UNL     1       3.327   4.305  18.497  0.00  0.00    +0.000 C 
ATOM      2  C   UNL     1       3.086   3.443  19.731  0.00  0.00    +0.000 C 
ATOM      3  C   UNL     1       1.821   3.946  20.427  0.00  0.00    +0.000 C 
ATOM      4  C   UNL     1       1.879   5.450  20.830  0.00  0.00    +0.000 C 
ATOM      5  N   UNL     1       2.220   6.262  19.663  0.00  0.00    +0.000 N 
ATOM      6  C   UNL     1       3.520   5.790  18.987  0.00  0.00    +0.000 C 
ENDROOT
BRANCH   5   7
ATOM      7  C   UNL     1       1.849   7.616  19.507  0.00  0.00    +0.000 A 
ATOM      8  N   UNL     1       2.054   8.058  18.232  0.00  0.00    +0.000 NA
ATOM      9  C   UNL     1       1.658   9.278  17.873  0.00  0.00    +0.000 A 
ATOM     10  N   UNL     1       1.611  10.354  18.664  0.00  0.00    +0.000 NA
ATOM     11  C   UNL     1       1.273   9.946  19.888  0.00  0.00    +0.000 A 
ATOM     12  N   UNL     1       0.843  10.811  20.849  0.00  0.00    +0.000 N 
ATOM     13  C   UNL     1      -0.070  10.146  21.618  0.00  0.00    +0.000 A 
ATOM     14  C   UNL     1       0.111   8.784  21.356  0.00  0.00    +0.000 A 
ATOM     15  C   UNL     1       1.141   8.620  20.328  0.00  0.00    +0.000 A 
ATOM     16  H   UNL     1       0.968  11.810  20.783  0.00  0.00    +0.000 HD
ENDBRANCH   5   7
BRANCH   1  17
ATOM     17  C   UNL     1       4.325   3.608  17.553  0.00  0.00    +0.000 C 
BRANCH  17  23
ATOM     18  C   UNL     1       8.199   5.843  19.349  0.00  0.00    +0.000 C 
ATOM     19  C   UNL     1       7.221   5.430  18.366  0.00  0.00    +0.000 A 
ATOM     20  N   UNL     1       7.084   5.956  17.115  0.00  0.00    +0.000 NA
ATOM     21  C   UNL     1       6.060   5.302  16.574  0.00  0.00    +0.000 A 
ATOM     22  C   UNL     1       5.555   5.510  15.198  0.00  0.00    +0.000 C 
ATOM     23  N   UNL     1       5.571   4.420  17.510  0.00  0.00    +0.000 N 
ATOM     24  N   UNL     1       6.328   4.443  18.616  0.00  0.00    +0.000 NA
ENDBRANCH  17  23
ENDBRANCH   1  17
TORSDOF 3
ENDMDL
MODEL 5
REMARK VINA RESULT:      -7.3      2.632      4.493
REMARK  Name = 
REMARK  5 active torsions:
REMARK  status: ('A' for Active; 'I' for Inactive)
REMARK    1  A    between atoms: C_1  and  C_2
REMARK    2  A    between atoms: C_4  and  C_5
REMARK    3  A    between atoms: N_6  and  C_7
REMARK    4  A    between atoms: C_7  and  C_8
REMARK    5  A    between atoms: N_12  and  C_13
REMARK                            x       y       z     vdW  Elec       q    Type
REMARK                         _______ _______ _______ _____ _____    ______ ____
ROOT
ATOM      1  C   UNL     1       2.230   7.266  18.570  0.00  0.00    +0.000 C 
ATOM      2  C   UNL     1       2.491   6.915  20.032  0.00  0.00    +0.000 C 
ATOM      3  C   UNL     1       1.318   7.432  20.865  0.00  0.00    +0.000 C 
ATOM      4  C   UNL     1       1.069   8.963  20.720  0.00  0.00    +0.000 C 
ATOM      5  N   UNL     1       0.928   9.310  19.307  0.00  0.00    +0.000 N 
ATOM      6  C   UNL     1       2.131   8.836  18.470  0.00  0.00    +0.000 C 
ENDROOT
BRANCH   5   7
ATOM      7  C   UNL     1       0.194  10.420  18.835  0.00  0.00    +0.000 A 
ATOM      8  N   UNL     1       0.878  11.590  18.994  0.00  0.00    +0.000 NA
ATOM      9  C   UNL     1       0.387  12.728  18.506  0.00  0.00    +0.000 A 
ATOM     10  N   UNL     1      -0.908  13.037  18.387  0.00  0.00    +0.000 NA
ATOM     11  C   UNL     1      -1.570  11.918  18.091  0.00  0.00    +0.000 A 
ATOM     12  N   UNL     1      -2.844  11.933  17.607  0.00  0.00    +0.000 N 
ATOM     13  C   UNL     1      -2.969  10.874  16.754  0.00  0.00    +0.000 A 
ATOM     14  C   UNL     1      -1.902  10.013  17.033  0.00  0.00    +0.000 A 
ATOM     15  C   UNL     1      -1.051  10.614  18.062  0.00  0.00    +0.000 A 
ATOM     16  H   UNL     1      -3.439  12.746  17.657  0.00  0.00    +0.000 HD
ENDBRANCH   5   7
BRANCH   1  17
ATOM     17  C   UNL     1       3.149   6.435  17.656  0.00  0.00    +0.000 C 
BRANCH  17  23
ATOM     18  C   UNL     1       0.762   2.391  18.740  0.00  0.00    +0.000 C 
ATOM     19  C   UNL     1       1.892   3.274  18.546  0.00  0.00    +0.000 A 
ATOM     20  N   UNL     1       3.174   3.017  18.936  0.00  0.00    +0.000 NA
ATOM     21  C   UNL     1       3.866   4.097  18.582  0.00  0.00    +0.000 A 
ATOM     22  C   UNL     1       5.324   4.267  18.773  0.00  0.00    +0.000 C 
ATOM     23  N   UNL     1       2.994   5.001  18.019  0.00  0.00    +0.000 N 
ATOM     24  N   UNL     1       1.765   4.473  17.931  0.00  0.00    +0.000 NA
ENDBRANCH  17  23
ENDBRANCH   1  17
TORSDOF 3
ENDMDL
MODEL 6
REMARK VINA RESULT:      -7.3      1.434      2.634
REMARK  Name = 
REMARK  5 active torsions:
REMARK  status: ('A' for Active; 'I' for Inactive)
REMARK    1  A    between atoms: C_1  and  C_2
REMARK    2  A    between atoms: C_4  and  C_5
REMARK    3  A    between atoms: N_6  and  C_7
REMARK    4  A    between atoms: C_7  and  C_8
REMARK    5  A    between atoms: N_12  and  C_13
REMARK                            x       y       z     vdW  Elec       q    Type
REMARK                         _______ _______ _______ _____ _____    ______ ____
ROOT
ATOM      1  C   UNL     1       3.268   4.116  18.514  0.00  0.00    +0.000 C 
ATOM      2  C   UNL     1       3.013   3.039  19.564  0.00  0.00    +0.000 C 
ATOM      3  C   UNL     1       1.737   3.402  20.323  0.00  0.00    +0.000 C 
ATOM      4  C   UNL     1       1.785   4.806  20.999  0.00  0.00    +0.000 C 
ATOM      5  N   UNL     1       2.138   5.820  20.008  0.00  0.00    +0.000 N 
ATOM      6  C   UNL     1       3.450   5.484  19.274  0.00  0.00    +0.000 C 
ENDROOT
BRANCH   5   7
ATOM      7  C   UNL     1       1.765   7.179  20.101  0.00  0.00    +0.000 A 
ATOM      8  N   UNL     1       1.499   7.549  21.387  0.00  0.00    +0.000 NA
ATOM      9  C   UNL     1       1.238   8.823  21.680  0.00  0.00    +0.000 A 
ATOM     10  N   UNL     1       0.633   9.705  20.879  0.00  0.00    +0.000 NA
ATOM     11  C   UNL     1       1.000   9.437  19.626  0.00  0.00    +0.000 A 
ATOM     12  N   UNL     1       0.810  10.324  18.608  0.00  0.00    +0.000 N 
ATOM     13  C   UNL     1       1.847  10.167  17.732  0.00  0.00    +0.000 A 
ATOM     14  C   UNL     1       2.430   8.930  18.027  0.00  0.00    +0.000 A 
ATOM     15  C   UNL     1       1.754   8.339  19.184  0.00  0.00    +0.000 A 
ATOM     16  H   UNL     1       0.192  11.117  18.681  0.00  0.00    +0.000 HD
ENDBRANCH   5   7
BRANCH   1  17
ATOM     17  C   UNL     1       4.282   3.607  17.472  0.00  0.00    +0.000 C 
BRANCH  17  23
ATOM     18  C   UNL     1       8.111   5.737  19.479  0.00  0.00    +0.000 C 
ATOM     19  C   UNL     1       7.113   5.435  18.475  0.00  0.00    +0.000 A 
ATOM     20  N   UNL     1       6.897   6.150  17.333  0.00  0.00    +0.000 NA
ATOM     21  C   UNL     1       5.884   5.535  16.727  0.00  0.00    +0.000 A 
ATOM     22  C   UNL     1       5.311   5.935  15.422  0.00  0.00    +0.000 C 
ATOM     23  N   UNL     1       5.481   4.485  17.521  0.00  0.00    +0.000 N 
ATOM     24  N   UNL     1       6.284   4.371  18.589  0.00  0.00    +0.000 NA
ENDBRANCH  17  23
ENDBRANCH   1  17
TORSDOF 3
ENDMDL
MODEL 7
REMARK VINA RESULT:      -7.2      1.956      3.871
REMARK  Name = 
REMARK  5 active torsions:
REMARK  status: ('A' for Active; 'I' for Inactive)
REMARK    1  A    between atoms: C_1  and  C_2
REMARK    2  A    between atoms: C_4  and  C_5
REMARK    3  A    between atoms: N_6  and  C_7
REMARK    4  A    between atoms: C_7  and  C_8
REMARK    5  A    between atoms: N_12  and  C_13
REMARK                            x       y       z     vdW  Elec       q    Type
REMARK                         _______ _______ _______ _____ _____    ______ ____
ROOT
ATOM      1  C   UNL     1       2.746   6.546  19.568  0.00  0.00    +0.000 C 
ATOM      2  C   UNL     1       2.689   6.782  18.063  0.00  0.00    +0.000 C 
ATOM      3  C   UNL     1       2.645   8.289  17.815  0.00  0.00    +0.000 C 
ATOM      4  C   UNL     1       1.451   9.008  18.513  0.00  0.00    +0.000 C 
ATOM      5  N   UNL     1       1.448   8.689  19.940  0.00  0.00    +0.000 N 
ATOM      6  C   UNL     1       1.442   7.170  20.195  0.00  0.00    +0.000 C 
ENDROOT
BRANCH   5   7
ATOM      7  C   UNL     1       0.899   9.527  20.936  0.00  0.00    +0.000 A 
ATOM      8  N   UNL     1       0.674   8.855  22.102  0.00  0.00    +0.000 NA
ATOM      9  C   UNL     1       0.262   9.510  23.186  0.00  0.00    +0.000 A 
ATOM     10  N   UNL     1      -0.512  10.600  23.199  0.00  0.00    +0.000 NA
ATOM     11  C   UNL     1      -0.198  11.336  22.132  0.00  0.00    +0.000 A 
ATOM     12  N   UNL     1      -0.576  12.640  22.012  0.00  0.00    +0.000 N 
ATOM     13  C   UNL     1       0.409  13.289  21.324  0.00  0.00    +0.000 A 
ATOM     14  C   UNL     1       1.176  12.297  20.701  0.00  0.00    +0.000 A 
ATOM     15  C   UNL     1       0.667  10.979  21.086  0.00  0.00    +0.000 A 
ATOM     16  H   UNL     1      -1.291  13.058  22.588  0.00  0.00    +0.000 HD
ENDBRANCH   5   7
BRANCH   1  17
ATOM     17  C   UNL     1       3.195   5.102  19.860  0.00  0.00    +0.000 C 
BRANCH  17  23
ATOM     18  C   UNL     1       7.809   5.955  18.758  0.00  0.00    +0.000 C 
ATOM     19  C   UNL     1       6.503   5.333  18.691  0.00  0.00    +0.000 A 
ATOM     20  N   UNL     1       6.081   4.481  17.713  0.00  0.00    +0.000 NA
ATOM     21  C   UNL     1       4.827   4.178  18.037  0.00  0.00    +0.000 A 
ATOM     22  C   UNL     1       3.958   3.249  17.279  0.00  0.00    +0.000 C 
ATOM     23  N   UNL     1       4.497   4.872  19.179  0.00  0.00    +0.000 N 
ATOM     24  N   UNL     1       5.559   5.550  19.637  0.00  0.00    +0.000 NA
ENDBRANCH  17  23
ENDBRANCH   1  17
TORSDOF 3
ENDMDL
MODEL 8
REMARK VINA RESULT:      -7.2      3.223      5.225
REMARK  Name = 
REMARK  5 active torsions:
REMARK  status: ('A' for Active; 'I' for Inactive)
REMARK    1  A    between atoms: C_1  and  C_2
REMARK    2  A    between atoms: C_4  and  C_5
REMARK    3  A    between atoms: N_6  and  C_7
REMARK    4  A    between atoms: C_7  and  C_8
REMARK    5  A    between atoms: N_12  and  C_13
REMARK                            x       y       z     vdW  Elec       q    Type
REMARK                         _______ _______ _______ _____ _____    ______ ____
ROOT
ATOM      1  C   UNL     1       2.833   7.173  19.342  0.00  0.00    +0.000 C 
ATOM      2  C   UNL     1       2.612   7.459  17.860  0.00  0.00    +0.000 C 
ATOM      3  C   UNL     1       2.301   8.947  17.701  0.00  0.00    +0.000 C 
ATOM      4  C   UNL     1       1.068   9.424  18.526  0.00  0.00    +0.000 C 
ATOM      5  N   UNL     1       1.236   9.049  19.929  0.00  0.00    +0.000 N 
ATOM      6  C   UNL     1       1.500   7.542  20.099  0.00  0.00    +0.000 C 
ENDROOT
BRANCH   5   7
ATOM      7  C   UNL     1       0.642   9.739  21.008  0.00  0.00    +0.000 A 
ATOM      8  N   UNL     1       0.513   8.948  22.112  0.00  0.00    +0.000 NA
ATOM      9  C   UNL     1       0.075   9.463  23.260  0.00  0.00    +0.000 A 
ATOM     10  N   UNL     1      -0.795  10.469  23.389  0.00  0.00    +0.000 NA
ATOM     11  C   UNL     1      -0.582  11.323  22.387  0.00  0.00    +0.000 A 
ATOM     12  N   UNL     1      -1.082  12.591  22.394  0.00  0.00    +0.000 N 
ATOM     13  C   UNL     1      -0.181  13.389  21.748  0.00  0.00    +0.000 A 
ATOM     14  C   UNL     1       0.655  12.533  21.022  0.00  0.00    +0.000 A 
ATOM     15  C   UNL     1       0.281  11.144  21.295  0.00  0.00    +0.000 A 
ATOM     16  H   UNL     1      -1.815  12.887  23.021  0.00  0.00    +0.000 HD
ENDBRANCH   5   7
BRANCH   1  17
ATOM     17  C   UNL     1       3.535   5.813  19.518  0.00  0.00    +0.000 C 
BRANCH  17  23
ATOM     18  C   UNL     1       1.249   2.476  22.137  0.00  0.00    +0.000 C 
ATOM     19  C   UNL     1       1.575   3.291  20.986  0.00  0.00    +0.000 A 
ATOM     20  N   UNL     1       1.112   3.092  19.718  0.00  0.00    +0.000 NA
ATOM     21  C   UNL     1       1.679   4.049  18.989  0.00  0.00    +0.000 A 
ATOM     22  C   UNL     1       1.448   4.259  17.542  0.00  0.00    +0.000 C 
ATOM     23  N   UNL     1       2.499   4.787  19.811  0.00  0.00    +0.000 N 
ATOM     24  N   UNL     1       2.395   4.364  21.079  0.00  0.00    +0.000 NA
ENDBRANCH  17  23
ENDBRANCH   1  17
TORSDOF 3
ENDMDL
MODEL 9
REMARK VINA RESULT:      -7.2      3.045      7.655
REMARK  Name = 
REMARK  5 active torsions:
REMARK  status: ('A' for Active; 'I' for Inactive)
REMARK    1  A    between atoms: C_1  and  C_2
REMARK    2  A    between atoms: C_4  and  C_5
REMARK    3  A    between atoms: N_6  and  C_7
REMARK    4  A    between atoms: C_7  and  C_8
REMARK    5  A    between atoms: N_12  and  C_13
REMARK                            x       y       z     vdW  Elec       q    Type
REMARK                         _______ _______ _______ _____ _____    ______ ____
ROOT
ATOM      1  C   UNL     1       1.011   8.918  19.580  0.00  0.00    +0.000 C 
ATOM      2  C   UNL     1       1.889   9.625  18.554  0.00  0.00    +0.000 C 
ATOM      3  C   UNL     1       2.332   8.597  17.513  0.00  0.00    +0.000 C 
ATOM      4  C   UNL     1       3.093   7.378  18.116  0.00  0.00    +0.000 C 
ATOM      5  N   UNL     1       2.291   6.770  19.176  0.00  0.00    +0.000 N 
ATOM      6  C   UNL     1       1.883   7.791  20.254  0.00  0.00    +0.000 C 
ENDROOT
BRANCH   5   7
ATOM      7  C   UNL     1       2.381   5.412  19.555  0.00  0.00    +0.000 A 
ATOM      8  N   UNL     1       2.088   5.230  20.876  0.00  0.00    +0.000 NA
ATOM      9  C   UNL     1       2.015   4.001  21.384  0.00  0.00    +0.000 A 
ATOM     10  N   UNL     1       2.724   2.941  20.984  0.00  0.00    +0.000 NA
ATOM     11  C   UNL     1       2.896   3.039  19.665  0.00  0.00    +0.000 A 
ATOM     12  N   UNL     1       3.304   1.984  18.904  0.00  0.00    +0.000 N 
ATOM     13  C   UNL     1       2.706   2.106  17.683  0.00  0.00    +0.000 A 
ATOM     14  C   UNL     1       2.260   3.429  17.591  0.00  0.00    +0.000 A 
ATOM     15  C   UNL     1       2.545   4.125  18.848  0.00  0.00    +0.000 A 
ATOM     16  H   UNL     1       3.716   1.152  19.299  0.00  0.00    +0.000 HD
ENDBRANCH   5   7
BRANCH   1  17
ATOM     17  C   UNL     1       0.219   9.953  20.400  0.00  0.00    +0.000 C 
BRANCH  17  23
ATOM     18  C   UNL     1      -2.693  10.739  16.641  0.00  0.00    +0.000 C 
ATOM     19  C   UNL     1      -1.833  11.049  17.764  0.00  0.00    +0.000 A 
ATOM     20  N   UNL     1      -1.351  12.287  18.075  0.00  0.00    +0.000 NA
ATOM     21  C   UNL     1      -0.597  12.103  19.155  0.00  0.00    +0.000 A 
ATOM     22  C   UNL     1       0.116  13.178  19.882  0.00  0.00    +0.000 C 
ATOM     23  N   UNL     1      -0.604  10.761  19.461  0.00  0.00    +0.000 N 
ATOM     24  N   UNL     1      -1.426  10.097  18.637  0.00  0.00    +0.000 NA
ENDBRANCH  17  23
ENDBRANCH   1  17
TORSDOF 3
ENDMDL
