MODEL 1
REMARK VINA RESULT:      -6.9      0.000      0.000
REMARK  Name = 
REMARK  8 active torsions:
REMARK  status: ('A' for Active; 'I' for Inactive)
REMARK    1  A    between atoms: C_1  and  O_2
REMARK    2  A    between atoms: O_2  and  C_3
REMARK    3  A    between atoms: C_4  and  C_5
REMARK    4  A    between atoms: N_9  and  C_10
REMARK    5  A    between atoms: C_10  and  C_11
REMARK    6  A    between atoms: C_14  and  C_15
REMARK    7  A    between atoms: C_17  and  C_18
REMARK    8  A    between atoms: N_20  and  C_21
REMARK                            x       y       z     vdW  Elec       q    Type
REMARK                         _______ _______ _______ _____ _____    ______ ____
ROOT
ATOM      1  C   UNL     1       2.745   4.497  17.957  0.00  0.00    +0.000 C 
ATOM      2  C   UNL     1       1.902   3.257  18.184  0.00  0.00    +0.000 C 
ATOM      3  C   UNL     1       2.656   2.206  17.392  0.00  0.00    +0.000 C 
ATOM      4  C   UNL     1       4.106   2.579  17.654  0.00  0.00    +0.000 C 
ATOM      5  N   UNL     1       4.145   4.023  17.997  0.00  0.00    +0.000 NA
ENDROOT
BRANCH   1   7
ATOM      6  C   UNL     1       1.811   5.866  19.964  0.00  0.00    +0.000 A 
ATOM      7  C   UNL     1       2.421   5.759  18.709  0.00  0.00    +0.000 A 
ATOM      8  C   UNL     1       2.708   7.132  18.362  0.00  0.00    +0.000 A 
ATOM      9  C   UNL     1       3.352   7.752  17.174  0.00  0.00    +0.000 C 
ATOM     10  N   UNL     1       2.296   7.986  19.303  0.00  0.00    +0.000 NA
ATOM     11  N   UNL     1       1.745   7.210  20.237  0.00  0.00    +0.000 N 
ATOM     12  C   UNL     1       1.195   7.822  21.425  0.00  0.00    +0.000 C 
BRANCH   6  14
ATOM     13  C   UNL     1       2.159   4.116  21.525  0.00  0.00    +0.000 C 
ATOM     14  O   UNL     1       1.296   5.037  20.882  0.00  0.00    +0.000 OA
ENDBRANCH   6  14
ENDBRANCH   1   7
BRANCH   5  15
ATOM     15  C   UNL     1       4.913   4.259  19.242  0.00  0.00    +0.000 C 
BRANCH  15  16
ATOM     16  C   UNL     1       6.137   5.099  18.950  0.00  0.00    +0.000 A 
ATOM     17  N   UNL     1       7.188   5.186  19.781  0.00  0.00    +0.000 NA
ATOM     18  O   UNL     1       7.941   6.232  19.238  0.00  0.00    +0.000 OA
ATOM     19  C   UNL     1       7.275   6.655  18.128  0.00  0.00    +0.000 A 
ATOM     20  C   UNL     1       7.773   7.869  17.460  0.00  0.00    +0.000 C 
ATOM     21  N   UNL     1       6.200   5.952  17.867  0.00  0.00    +0.000 NA
ENDBRANCH  15  16
ENDBRANCH   5  15
TORSDOF 4
ENDMDL
MODEL 2
REMARK VINA RESULT:      -6.9      3.208      4.587
REMARK  Name = 
REMARK  8 active torsions:
REMARK  status: ('A' for Active; 'I' for Inactive)
REMARK    1  A    between atoms: C_1  and  O_2
REMARK    2  A    between atoms: O_2  and  C_3
REMARK    3  A    between atoms: C_4  and  C_5
REMARK    4  A    between atoms: N_9  and  C_10
REMARK    5  A    between atoms: C_10  and  C_11
REMARK    6  A    between atoms: C_14  and  C_15
REMARK    7  A    between atoms: C_17  and  C_18
REMARK    8  A    between atoms: N_20  and  C_21
REMARK                            x       y       z     vdW  Elec       q    Type
REMARK                         _______ _______ _______ _____ _____    ______ ____
ROOT
ATOM      1  C   UNL     1       5.660   4.558  18.520  0.00  0.00    +0.000 C 
ATOM      2  C   UNL     1       6.239   5.671  19.373  0.00  0.00    +0.000 C 
ATOM      3  C   UNL     1       7.713   5.609  19.024  0.00  0.00    +0.000 C 
ATOM      4  C   UNL     1       7.683   5.304  17.535  0.00  0.00    +0.000 C 
ATOM      5  N   UNL     1       6.392   4.635  17.238  0.00  0.00    +0.000 NA
ENDROOT
BRANCH   1   7
ATOM      6  C   UNL     1       3.449   3.190  18.644  0.00  0.00    +0.000 A 
ATOM      7  C   UNL     1       4.168   4.376  18.455  0.00  0.00    +0.000 A 
ATOM      8  C   UNL     1       3.132   5.363  18.249  0.00  0.00    +0.000 A 
ATOM      9  C   UNL     1       3.179   6.827  17.996  0.00  0.00    +0.000 C 
ATOM     10  N   UNL     1       1.910   4.825  18.290  0.00  0.00    +0.000 NA
ATOM     11  N   UNL     1       2.125   3.527  18.504  0.00  0.00    +0.000 N 
ATOM     12  C   UNL     1       0.994   2.635  18.615  0.00  0.00    +0.000 C 
BRANCH   6  14
ATOM     13  C   UNL     1       4.461   1.572  20.050  0.00  0.00    +0.000 C 
ATOM     14  O   UNL     1       3.723   1.901  18.887  0.00  0.00    +0.000 OA
ENDBRANCH   6  14
ENDBRANCH   1   7
BRANCH   5  15
ATOM     15  C   UNL     1       5.704   5.278  16.094  0.00  0.00    +0.000 C 
BRANCH  15  16
ATOM     16  C   UNL     1       6.216   4.709  14.789  0.00  0.00    +0.000 A 
ATOM     17  N   UNL     1       7.182   5.289  14.060  0.00  0.00    +0.000 NA
ATOM     18  O   UNL     1       7.153   4.573  12.859  0.00  0.00    +0.000 OA
ATOM     19  C   UNL     1       6.184   3.626  12.995  0.00  0.00    +0.000 A 
ATOM     20  C   UNL     1       5.831   2.840  11.801  0.00  0.00    +0.000 C 
ATOM     21  N   UNL     1       5.625   3.619  14.181  0.00  0.00    +0.000 NA
ENDBRANCH  15  16
ENDBRANCH   5  15
TORSDOF 4
ENDMDL
MODEL 3
REMARK VINA RESULT:      -6.6      2.129      2.978
REMARK  Name = 
REMARK  8 active torsions:
REMARK  status: ('A' for Active; 'I' for Inactive)
REMARK    1  A    between atoms: C_1  and  O_2
REMARK    2  A    between atoms: O_2  and  C_3
REMARK    3  A    between atoms: C_4  and  C_5
REMARK    4  A    between atoms: N_9  and  C_10
REMARK    5  A    between atoms: C_10  and  C_11
REMARK    6  A    between atoms: C_14  and  C_15
REMARK    7  A    between atoms: C_17  and  C_18
REMARK    8  A    between atoms: N_20  and  C_21
REMARK                            x       y       z     vdW  Elec       q    Type
REMARK                         _______ _______ _______ _____ _____    ______ ____
ROOT
ATOM      1  C   UNL     1       4.767   5.103  16.481  0.00  0.00    +0.000 C 
ATOM      2  C   UNL     1       4.938   3.750  15.815  0.00  0.00    +0.000 C 
ATOM      3  C   UNL     1       5.967   4.049  14.743  0.00  0.00    +0.000 C 
ATOM      4  C   UNL     1       6.899   5.024  15.445  0.00  0.00    +0.000 C 
ATOM      5  N   UNL     1       6.126   5.684  16.527  0.00  0.00    +0.000 NA
ENDROOT
BRANCH   1   7
ATOM      6  C   UNL     1       3.684   4.218  18.676  0.00  0.00    +0.000 A 
ATOM      7  C   UNL     1       3.925   5.215  17.723  0.00  0.00    +0.000 A 
ATOM      8  C   UNL     1       3.229   6.362  18.258  0.00  0.00    +0.000 A 
ATOM      9  C   UNL     1       3.069   7.756  17.768  0.00  0.00    +0.000 C 
ATOM     10  N   UNL     1       2.611   6.084  19.410  0.00  0.00    +0.000 NA
ATOM     11  N   UNL     1       2.878   4.795  19.627  0.00  0.00    +0.000 N 
ATOM     12  C   UNL     1       2.360   4.161  20.817  0.00  0.00    +0.000 C 
BRANCH   6  14
ATOM     13  C   UNL     1       3.186   1.936  18.272  0.00  0.00    +0.000 C 
ATOM     14  O   UNL     1       4.007   2.931  18.858  0.00  0.00    +0.000 OA
ENDBRANCH   6  14
ENDBRANCH   1   7
BRANCH   5  15
ATOM     15  C   UNL     1       6.852   5.628  17.818  0.00  0.00    +0.000 C 
BRANCH  15  16
ATOM     16  C   UNL     1       7.652   6.895  18.023  0.00  0.00    +0.000 A 
ATOM     17  N   UNL     1       8.494   7.077  19.053  0.00  0.00    +0.000 NA
ATOM     18  O   UNL     1       8.807   8.438  18.976  0.00  0.00    +0.000 OA
ATOM     19  C   UNL     1       8.135   8.930  17.898  0.00  0.00    +0.000 A 
ATOM     20  C   UNL     1       8.159  10.388  17.692  0.00  0.00    +0.000 C 
ATOM     21  N   UNL     1       7.466   8.016  17.239  0.00  0.00    +0.000 NA
ENDBRANCH  15  16
ENDBRANCH   5  15
TORSDOF 4
ENDMDL
MODEL 4
REMARK VINA RESULT:      -6.6      2.391      3.359
REMARK  Name = 
REMARK  8 active torsions:
REMARK  status: ('A' for Active; 'I' for Inactive)
REMARK    1  A    between atoms: C_1  and  O_2
REMARK    2  A    between atoms: O_2  and  C_3
REMARK    3  A    between atoms: C_4  and  C_5
REMARK    4  A    between atoms: N_9  and  C_10
REMARK    5  A    between atoms: C_10  and  C_11
REMARK    6  A    between atoms: C_14  and  C_15
REMARK    7  A    between atoms: C_17  and  C_18
REMARK    8  A    between atoms: N_20  and  C_21
REMARK                            x       y       z     vdW  Elec       q    Type
REMARK                         _______ _______ _______ _____ _____    ______ ____
ROOT
ATOM      1  C   UNL     1       5.044   4.947  16.277  0.00  0.00    +0.000 C 
ATOM      2  C   UNL     1       5.306   3.563  15.713  0.00  0.00    +0.000 C 
ATOM      3  C   UNL     1       6.253   3.858  14.567  0.00  0.00    +0.000 C 
ATOM      4  C   UNL     1       7.123   4.965  15.139  0.00  0.00    +0.000 C 
ATOM      5  N   UNL     1       6.345   5.645  16.204  0.00  0.00    +0.000 NA
ENDROOT
BRANCH   1   7
ATOM      6  C   UNL     1       4.036   4.111  18.527  0.00  0.00    +0.000 A 
ATOM      7  C   UNL     1       4.253   5.090  17.549  0.00  0.00    +0.000 A 
ATOM      8  C   UNL     1       3.594   6.255  18.094  0.00  0.00    +0.000 A 
ATOM      9  C   UNL     1       3.434   7.643  17.588  0.00  0.00    +0.000 C 
ATOM     10  N   UNL     1       3.019   6.003  19.273  0.00  0.00    +0.000 NA
ATOM     11  N   UNL     1       3.277   4.714  19.499  0.00  0.00    +0.000 N 
ATOM     12  C   UNL     1       2.798   4.106  20.719  0.00  0.00    +0.000 C 
BRANCH   6  14
ATOM     13  C   UNL     1       3.480   1.831  18.197  0.00  0.00    +0.000 C 
ATOM     14  O   UNL     1       4.348   2.822  18.717  0.00  0.00    +0.000 OA
ENDBRANCH   6  14
ENDBRANCH   1   7
BRANCH   5  15
ATOM     15  C   UNL     1       7.131   5.761  17.455  0.00  0.00    +0.000 C 
BRANCH  15  16
ATOM     16  C   UNL     1       7.411   7.215  17.764  0.00  0.00    +0.000 A 
ATOM     17  N   UNL     1       6.912   8.231  17.042  0.00  0.00    +0.000 NA
ATOM     18  O   UNL     1       7.613   9.342  17.524  0.00  0.00    +0.000 OA
ATOM     19  C   UNL     1       8.448   8.882  18.497  0.00  0.00    +0.000 A 
ATOM     20  C   UNL     1       9.428   9.830  19.054  0.00  0.00    +0.000 C 
ATOM     21  N   UNL     1       8.317   7.599  18.732  0.00  0.00    +0.000 NA
ENDBRANCH  15  16
ENDBRANCH   5  15
TORSDOF 4
ENDMDL
MODEL 5
REMARK VINA RESULT:      -6.6      1.229      2.298
REMARK  Name = 
REMARK  8 active torsions:
REMARK  status: ('A' for Active; 'I' for Inactive)
REMARK    1  A    between atoms: C_1  and  O_2
REMARK    2  A    between atoms: O_2  and  C_3
REMARK    3  A    between atoms: C_4  and  C_5
REMARK    4  A    between atoms: N_9  and  C_10
REMARK    5  A    between atoms: C_10  and  C_11
REMARK    6  A    between atoms: C_14  and  C_15
REMARK    7  A    between atoms: C_17  and  C_18
REMARK    8  A    between atoms: N_20  and  C_21
REMARK                            x       y       z     vdW  Elec       q    Type
REMARK                         _______ _______ _______ _____ _____    ______ ____
ROOT
ATOM      1  C   UNL     1       2.737   4.836  18.000  0.00  0.00    +0.000 C 
ATOM      2  C   UNL     1       2.188   3.437  17.795  0.00  0.00    +0.000 C 
ATOM      3  C   UNL     1       3.026   2.929  16.639  0.00  0.00    +0.000 C 
ATOM      4  C   UNL     1       4.397   3.508  16.950  0.00  0.00    +0.000 C 
ATOM      5  N   UNL     1       4.197   4.710  17.797  0.00  0.00    +0.000 NA
ENDROOT
BRANCH   1   7
ATOM      6  C   UNL     1       2.272   7.043  19.299  0.00  0.00    +0.000 A 
ATOM      7  C   UNL     1       2.271   5.648  19.178  0.00  0.00    +0.000 A 
ATOM      8  C   UNL     1       1.665   5.208  20.414  0.00  0.00    +0.000 A 
ATOM      9  C   UNL     1       1.349   3.858  20.949  0.00  0.00    +0.000 C 
ATOM     10  N   UNL     1       1.349   6.232  21.212  0.00  0.00    +0.000 NA
ATOM     11  N   UNL     1       1.741   7.312  20.536  0.00  0.00    +0.000 N 
ATOM     12  C   UNL     1       1.534   8.619  21.118  0.00  0.00    +0.000 C 
BRANCH   6  14
ATOM     13  C   UNL     1       1.730   8.669  17.662  0.00  0.00    +0.000 C 
ATOM     14  O   UNL     1       2.658   8.095  18.564  0.00  0.00    +0.000 OA
ENDBRANCH   6  14
ENDBRANCH   1   7
BRANCH   5  15
ATOM     15  C   UNL     1       5.055   4.667  19.004  0.00  0.00    +0.000 C 
BRANCH  15  16
ATOM     16  C   UNL     1       6.325   5.455  18.770  0.00  0.00    +0.000 A 
ATOM     17  N   UNL     1       7.429   5.315  19.522  0.00  0.00    +0.000 NA
ATOM     18  O   UNL     1       8.233   6.384  19.114  0.00  0.00    +0.000 OA
ATOM     19  C   UNL     1       7.538   7.046  18.148  0.00  0.00    +0.000 A 
ATOM     20  C   UNL     1       8.095   8.321  17.665  0.00  0.00    +0.000 C 
ATOM     21  N   UNL     1       6.393   6.481  17.850  0.00  0.00    +0.000 NA
ENDBRANCH  15  16
ENDBRANCH   5  15
TORSDOF 4
ENDMDL
MODEL 6
REMARK VINA RESULT:      -6.2      3.067      4.132
REMARK  Name = 
REMARK  8 active torsions:
REMARK  status: ('A' for Active; 'I' for Inactive)
REMARK    1  A    between atoms: C_1  and  O_2
REMARK    2  A    between atoms: O_2  and  C_3
REMARK    3  A    between atoms: C_4  and  C_5
REMARK    4  A    between atoms: N_9  and  C_10
REMARK    5  A    between atoms: C_10  and  C_11
REMARK    6  A    between atoms: C_14  and  C_15
REMARK    7  A    between atoms: C_17  and  C_18
REMARK    8  A    between atoms: N_20  and  C_21
REMARK                            x       y       z     vdW  Elec       q    Type
REMARK                         _______ _______ _______ _____ _____    ______ ____
ROOT
ATOM      1  C   UNL     1       5.464   4.416  18.787  0.00  0.00    +0.000 C 
ATOM      2  C   UNL     1       6.308   5.560  19.315  0.00  0.00    +0.000 C 
ATOM      3  C   UNL     1       7.662   5.272  18.696  0.00  0.00    +0.000 C 
ATOM      4  C   UNL     1       7.288   4.766  17.313  0.00  0.00    +0.000 C 
ATOM      5  N   UNL     1       5.908   4.222  17.390  0.00  0.00    +0.000 NA
ENDROOT
BRANCH   1   7
ATOM      6  C   UNL     1       3.189   3.308  19.398  0.00  0.00    +0.000 A 
ATOM      7  C   UNL     1       3.983   4.408  19.049  0.00  0.00    +0.000 A 
ATOM      8  C   UNL     1       3.048   5.510  19.066  0.00  0.00    +0.000 A 
ATOM      9  C   UNL     1       3.208   6.963  18.797  0.00  0.00    +0.000 C 
ATOM     10  N   UNL     1       1.810   5.116  19.375  0.00  0.00    +0.000 NA
ATOM     11  N   UNL     1       1.915   3.798  19.547  0.00  0.00    +0.000 N 
ATOM     12  C   UNL     1       0.738   3.040  19.908  0.00  0.00    +0.000 C 
BRANCH   6  14
ATOM     13  C   UNL     1       3.752   1.196  18.484  0.00  0.00    +0.000 C 
ATOM     14  O   UNL     1       3.357   1.992  19.586  0.00  0.00    +0.000 OA
ENDBRANCH   6  14
ENDBRANCH   1   7
BRANCH   5  15
ATOM     15  C   UNL     1       5.051   4.775  16.316  0.00  0.00    +0.000 C 
BRANCH  15  16
ATOM     16  C   UNL     1       5.745   4.650  14.978  0.00  0.00    +0.000 A 
ATOM     17  N   UNL     1       5.768   3.515  14.261  0.00  0.00    +0.000 NA
ATOM     18  O   UNL     1       6.700   3.788  13.256  0.00  0.00    +0.000 OA
ATOM     19  C   UNL     1       7.130   5.064  13.461  0.00  0.00    +0.000 A 
ATOM     20  C   UNL     1       8.250   5.543  12.633  0.00  0.00    +0.000 C 
ATOM     21  N   UNL     1       6.528   5.662  14.460  0.00  0.00    +0.000 NA
ENDBRANCH  15  16
ENDBRANCH   5  15
TORSDOF 4
ENDMDL
MODEL 7
REMARK VINA RESULT:      -6.1      3.025      4.552
REMARK  Name = 
REMARK  8 active torsions:
REMARK  status: ('A' for Active; 'I' for Inactive)
REMARK    1  A    between atoms: C_1  and  O_2
REMARK    2  A    between atoms: O_2  and  C_3
REMARK    3  A    between atoms: C_4  and  C_5
REMARK    4  A    between atoms: N_9  and  C_10
REMARK    5  A    between atoms: C_10  and  C_11
REMARK    6  A    between atoms: C_14  and  C_15
REMARK    7  A    between atoms: C_17  and  C_18
REMARK    8  A    between atoms: N_20  and  C_21
REMARK                            x       y       z     vdW  Elec       q    Type
REMARK                         _______ _______ _______ _____ _____    ______ ____
ROOT
ATOM      1  C   UNL     1       5.695   4.195  18.993  0.00  0.00    +0.000 C 
ATOM      2  C   UNL     1       6.201   5.518  19.534  0.00  0.00    +0.000 C 
ATOM      3  C   UNL     1       7.603   5.584  18.961  0.00  0.00    +0.000 C 
ATOM      4  C   UNL     1       7.416   4.995  17.572  0.00  0.00    +0.000 C 
ATOM      5  N   UNL     1       6.219   4.117  17.612  0.00  0.00    +0.000 NA
ENDROOT
BRANCH   1   7
ATOM      6  C   UNL     1       3.206   4.642  19.610  0.00  0.00    +0.000 A 
ATOM      7  C   UNL     1       4.257   3.809  19.208  0.00  0.00    +0.000 A 
ATOM      8  C   UNL     1       3.607   2.535  18.997  0.00  0.00    +0.000 A 
ATOM      9  C   UNL     1       4.119   1.210  18.560  0.00  0.00    +0.000 C 
ATOM     10  N   UNL     1       2.299   2.586  19.265  0.00  0.00    +0.000 NA
ATOM     11  N   UNL     1       2.089   3.846  19.649  0.00  0.00    +0.000 N 
ATOM     12  C   UNL     1       0.751   4.256  20.009  0.00  0.00    +0.000 C 
BRANCH   6  14
ATOM     13  C   UNL     1       2.788   6.879  18.947  0.00  0.00    +0.000 C 
ATOM     14  O   UNL     1       3.047   5.926  19.962  0.00  0.00    +0.000 OA
ENDBRANCH   6  14
ENDBRANCH   1   7
BRANCH   5  15
ATOM     15  C   UNL     1       5.285   4.430  16.506  0.00  0.00    +0.000 C 
BRANCH  15  16
ATOM     16  C   UNL     1       6.035   4.503  15.194  0.00  0.00    +0.000 A 
ATOM     17  N   UNL     1       6.604   5.627  14.731  0.00  0.00    +0.000 NA
ATOM     18  O   UNL     1       6.952   5.294  13.418  0.00  0.00    +0.000 OA
ATOM     19  C   UNL     1       6.572   4.000  13.231  0.00  0.00    +0.000 A 
ATOM     20  C   UNL     1       6.673   3.453  11.868  0.00  0.00    +0.000 C 
ATOM     21  N   UNL     1       6.067   3.445  14.307  0.00  0.00    +0.000 NA
ENDBRANCH  15  16
ENDBRANCH   5  15
TORSDOF 4
ENDMDL
MODEL 8
REMARK VINA RESULT:      -6.0      2.163      3.395
REMARK  Name = 
REMARK  8 active torsions:
REMARK  status: ('A' for Active; 'I' for Inactive)
REMARK    1  A    between atoms: C_1  and  O_2
REMARK    2  A    between atoms: O_2  and  C_3
REMARK    3  A    between atoms: C_4  and  C_5
REMARK    4  A    between atoms: N_9  and  C_10
REMARK    5  A    between atoms: C_10  and  C_11
REMARK    6  A    between atoms: C_14  and  C_15
REMARK    7  A    between atoms: C_17  and  C_18
REMARK    8  A    between atoms: N_20  and  C_21
REMARK                            x       y       z     vdW  Elec       q    Type
REMARK                         _______ _______ _______ _____ _____    ______ ____
ROOT
ATOM      1  C   UNL     1       4.711   4.894  16.209  0.00  0.00    +0.000 C 
ATOM      2  C   UNL     1       4.947   3.651  15.373  0.00  0.00    +0.000 C 
ATOM      3  C   UNL     1       5.943   4.142  14.341  0.00  0.00    +0.000 C 
ATOM      4  C   UNL     1       6.829   5.069  15.158  0.00  0.00    +0.000 C 
ATOM      5  N   UNL     1       6.036   5.540  16.321  0.00  0.00    +0.000 NA
ENDROOT
BRANCH   1   7
ATOM      6  C   UNL     1       3.420   5.853  18.256  0.00  0.00    +0.000 A 
ATOM      7  C   UNL     1       3.881   4.797  17.460  0.00  0.00    +0.000 A 
ATOM      8  C   UNL     1       3.316   3.630  18.099  0.00  0.00    +0.000 A 
ATOM      9  C   UNL     1       3.394   2.180  17.783  0.00  0.00    +0.000 C 
ATOM     10  N   UNL     1       2.602   3.945  19.183  0.00  0.00    +0.000 NA
ATOM     11  N   UNL     1       2.697   5.272  19.268  0.00  0.00    +0.000 N 
ATOM     12  C   UNL     1       2.018   5.958  20.344  0.00  0.00    +0.000 C 
BRANCH   6  14
ATOM     13  C   UNL     1       2.580   7.955  17.552  0.00  0.00    +0.000 C 
ATOM     14  O   UNL     1       3.525   7.189  18.277  0.00  0.00    +0.000 OA
ENDBRANCH   6  14
ENDBRANCH   1   7
BRANCH   5  15
ATOM     15  C   UNL     1       6.781   5.359  17.589  0.00  0.00    +0.000 C 
BRANCH  15  16
ATOM     16  C   UNL     1       7.586   6.600  17.904  0.00  0.00    +0.000 A 
ATOM     17  N   UNL     1       8.343   6.729  19.006  0.00  0.00    +0.000 NA
ATOM     18  O   UNL     1       8.687   8.084  19.003  0.00  0.00    +0.000 OA
ATOM     19  C   UNL     1       8.116   8.628  17.892  0.00  0.00    +0.000 A 
ATOM     20  C   UNL     1       8.185  10.091  17.741  0.00  0.00    +0.000 C 
ATOM     21  N   UNL     1       7.487   7.751  17.148  0.00  0.00    +0.000 NA
ENDBRANCH  15  16
ENDBRANCH   5  15
TORSDOF 4
ENDMDL
MODEL 9
REMARK VINA RESULT:      -6.0      3.078      4.864
REMARK  Name = 
REMARK  8 active torsions:
REMARK  status: ('A' for Active; 'I' for Inactive)
REMARK    1  A    between atoms: C_1  and  O_2
REMARK    2  A    between atoms: O_2  and  C_3
REMARK    3  A    between atoms: C_4  and  C_5
REMARK    4  A    between atoms: N_9  and  C_10
REMARK    5  A    between atoms: C_10  and  C_11
REMARK    6  A    between atoms: C_14  and  C_15
REMARK    7  A    between atoms: C_17  and  C_18
REMARK    8  A    between atoms: N_20  and  C_21
REMARK                            x       y       z     vdW  Elec       q    Type
REMARK                         _______ _______ _______ _____ _____    ______ ____
ROOT
ATOM      1  C   UNL     1       5.720   4.315  18.504  0.00  0.00    +0.000 C 
ATOM      2  C   UNL     1       6.014   5.372  19.551  0.00  0.00    +0.000 C 
ATOM      3  C   UNL     1       7.507   5.580  19.387  0.00  0.00    +0.000 C 
ATOM      4  C   UNL     1       7.687   5.483  17.880  0.00  0.00    +0.000 C 
ATOM      5  N   UNL     1       6.561   4.677  17.343  0.00  0.00    +0.000 NA
ENDROOT
BRANCH   1   7
ATOM      6  C   UNL     1       3.229   4.774  17.904  0.00  0.00    +0.000 A 
ATOM      7  C   UNL     1       4.293   3.924  18.228  0.00  0.00    +0.000 A 
ATOM      8  C   UNL     1       3.698   2.608  18.167  0.00  0.00    +0.000 A 
ATOM      9  C   UNL     1       4.251   1.247  18.393  0.00  0.00    +0.000 C 
ATOM     10  N   UNL     1       2.399   2.657  17.858  0.00  0.00    +0.000 NA
ATOM     11  N   UNL     1       2.138   3.959  17.727  0.00  0.00    +0.000 N 
ATOM     12  C   UNL     1       0.800   4.375  17.378  0.00  0.00    +0.000 C 
BRANCH   6  14
ATOM     13  C   UNL     1       2.741   6.864  18.909  0.00  0.00    +0.000 C 
ATOM     14  O   UNL     1       3.029   6.091  17.758  0.00  0.00    +0.000 OA
ENDBRANCH   6  14
ENDBRANCH   1   7
BRANCH   5  15
ATOM     15  C   UNL     1       5.903   5.362  16.207  0.00  0.00    +0.000 C 
BRANCH  15  16
ATOM     16  C   UNL     1       6.405   4.799  14.896  0.00  0.00    +0.000 A 
ATOM     17  N   UNL     1       7.402   5.354  14.188  0.00  0.00    +0.000 NA
ATOM     18  O   UNL     1       7.355   4.665  12.972  0.00  0.00    +0.000 OA
ATOM     19  C   UNL     1       6.347   3.756  13.079  0.00  0.00    +0.000 A 
ATOM     20  C   UNL     1       5.974   3.010  11.865  0.00  0.00    +0.000 C 
ATOM     21  N   UNL     1       5.776   3.748  14.259  0.00  0.00    +0.000 NA
ENDBRANCH  15  16
ENDBRANCH   5  15
TORSDOF 4
ENDMDL
