MODEL 1
REMARK VINA RESULT:      -8.0      0.000      0.000
REMARK  Name = 
REMARK  12 active torsions:
REMARK  status: ('A' for Active; 'I' for Inactive)
REMARK    1  A    between atoms: C_1  and  C_2
REMARK    2  A    between atoms: C_2  and  C_3
REMARK    3  A    between atoms: C_2  and  C_16
REMARK    4  A    between atoms: C_3  and  C_4
REMARK    5  A    between atoms: C_4  and  C_5
REMARK    6  A    between atoms: N_7  and  C_8
REMARK    7  A    between atoms: C_8  and  C_9
REMARK    8  A    between atoms: C_9  and  C_10
REMARK    9  A    between atoms: C_21  and  O_22
REMARK   10  A    between atoms: C_26  and  O_27
REMARK   11  A    between atoms: C_30  and  C_31
REMARK   12  A    between atoms: C_35  and  C_36
REMARK                            x       y       z     vdW  Elec       q    Type
REMARK                         _______ _______ _______ _____ _____    ______ ____
ROOT
ATOM      1  C   UNL     1       0.802  10.546  18.789  0.00  0.00    +0.000 C 
ATOM      2  C   UNL     1      -0.596  10.450  19.462  0.00  0.00    +0.000 C 
ATOM      3  C   UNL     1      -1.061  11.884  19.743  0.00  0.00    +0.000 C 
ATOM      4  C   UNL     1      -0.063  12.770  19.000  0.00  0.00    +0.000 C 
ATOM      5  C   UNL     1       0.100  14.234  19.445  0.00  0.00    +0.000 C 
ATOM      6  C   UNL     1      -1.178  15.090  19.359  0.00  0.00    +0.000 C 
ATOM      7  C   UNL     1      -0.903  16.506  19.880  0.00  0.00    +0.000 C 
ATOM      8  C   UNL     1       0.275  17.208  19.182  0.00  0.00    +0.000 C 
ATOM      9  C   UNL     1      -0.145  17.626  17.760  0.00  0.00    +0.000 C 
ATOM     10  C   UNL     1       0.985  18.306  16.995  0.00  0.00    +0.000 C 
ATOM     11  C   UNL     1       2.227  17.426  16.945  0.00  0.00    +0.000 C 
ATOM     12  C   UNL     1       2.677  17.068  18.354  0.00  0.00    +0.000 C 
ATOM     13  C   UNL     1       1.583  16.348  19.194  0.00  0.00    +0.000 C 
ATOM     14  C   UNL     1       2.140  16.276  20.643  0.00  0.00    +0.000 C 
ATOM     15  C   UNL     1       1.257  14.915  18.633  0.00  0.00    +0.000 C 
ATOM     16  C   UNL     1       2.525  14.050  18.433  0.00  0.00    +0.000 C 
ATOM     17  C   UNL     1       2.238  12.588  18.122  0.00  0.00    +0.000 C 
ATOM     18  C   UNL     1       1.274  11.983  19.148  0.00  0.00    +0.000 C 
ATOM     19  C   UNL     1       1.860  12.101  20.581  0.00  0.00    +0.000 C 
ENDROOT
BRANCH   1  21
ATOM     20  C   UNL     1       2.191   8.605  17.805  0.00  0.00    +0.000 C 
ATOM     21  C   UNL     1       1.714   9.308  19.075  0.00  0.00    +0.000 C 
BRANCH  21  22
ATOM     22  C   UNL     1       0.904   8.324  19.958  0.00  0.00    +0.000 C 
BRANCH  22  23
ATOM     23  C   UNL     1       1.577   7.573  21.114  0.00  0.00    +0.000 C 
BRANCH  23  24
ATOM     24  C   UNL     1       1.882   6.165  20.609  0.00  0.00    +0.000 C 
ATOM     25  O   UNL     1       1.058   5.249  20.602  0.00  0.00    +0.000 OA
ATOM     26  N   UNL     1       3.154   5.988  20.126  0.00  0.00    +0.000 N 
ATOM     27  H   UNL     1       3.863   6.697  20.328  0.00  0.00    +0.000 HD
BRANCH  26  28
ATOM     28  C   UNL     1       3.571   4.678  19.652  0.00  0.00    +0.000 C 
BRANCH  28  29
ATOM     29  C   UNL     1       4.129   4.731  18.241  0.00  0.00    +0.000 C 
BRANCH  29  30
ATOM     30  C   UNL     1       5.413   5.516  18.156  0.00  0.00    +0.000 A 
ATOM     31  C   UNL     1       6.524   5.175  18.942  0.00  0.00    +0.000 A 
ATOM     32  C   UNL     1       7.690   5.939  18.882  0.00  0.00    +0.000 A 
ATOM     33  C   UNL     1       7.761   7.048  18.037  0.00  0.00    +0.000 A 
ATOM     34  C   UNL     1       6.667   7.386  17.243  0.00  0.00    +0.000 A 
ATOM     35  C   UNL     1       5.499   6.623  17.302  0.00  0.00    +0.000 A 
ENDBRANCH  29  30
ENDBRANCH  28  29
ENDBRANCH  26  28
ENDBRANCH  23  24
ENDBRANCH  22  23
ENDBRANCH  21  22
ENDBRANCH   1  21
BRANCH   6  36
ATOM     36  O   UNL     1      -2.227  14.536  20.147  0.00  0.00    +0.000 OA
ATOM     37  H   UNL     1      -1.902  14.437  21.059  0.00  0.00    +0.000 HD
ENDBRANCH   6  36
BRANCH  10  38
ATOM     38  O   UNL     1       0.555  18.601  15.672  0.00  0.00    +0.000 OA
ATOM     39  H   UNL     1       1.228  19.167  15.255  0.00  0.00    +0.000 HD
ENDBRANCH  10  38
TORSDOF 9
ENDMDL
MODEL 2
REMARK VINA RESULT:      -7.6      3.271      4.575
REMARK  Name = 
REMARK  12 active torsions:
REMARK  status: ('A' for Active; 'I' for Inactive)
REMARK    1  A    between atoms: C_1  and  C_2
REMARK    2  A    between atoms: C_2  and  C_3
REMARK    3  A    between atoms: C_2  and  C_16
REMARK    4  A    between atoms: C_3  and  C_4
REMARK    5  A    between atoms: C_4  and  C_5
REMARK    6  A    between atoms: N_7  and  C_8
REMARK    7  A    between atoms: C_8  and  C_9
REMARK    8  A    between atoms: C_9  and  C_10
REMARK    9  A    between atoms: C_21  and  O_22
REMARK   10  A    between atoms: C_26  and  O_27
REMARK   11  A    between atoms: C_30  and  C_31
REMARK   12  A    between atoms: C_35  and  C_36
REMARK                            x       y       z     vdW  Elec       q    Type
REMARK                         _______ _______ _______ _____ _____    ______ ____
ROOT
ATOM      1  C   UNL     1       0.009  11.527  18.734  0.00  0.00    +0.000 C 
ATOM      2  C   UNL     1      -1.082  10.797  17.901  0.00  0.00    +0.000 C 
ATOM      3  C   UNL     1      -2.436  11.135  18.537  0.00  0.00    +0.000 C 
ATOM      4  C   UNL     1      -2.130  12.244  19.540  0.00  0.00    +0.000 C 
ATOM      5  C   UNL     1      -3.113  12.484  20.700  0.00  0.00    +0.000 C 
ATOM      6  C   UNL     1      -4.546  12.855  20.276  0.00  0.00    +0.000 C 
ATOM      7  C   UNL     1      -5.441  13.012  21.512  0.00  0.00    +0.000 C 
ATOM      8  C   UNL     1      -4.899  14.012  22.548  0.00  0.00    +0.000 C 
ATOM      9  C   UNL     1      -5.082  15.448  22.020  0.00  0.00    +0.000 C 
ATOM     10  C   UNL     1      -4.540  16.497  22.986  0.00  0.00    +0.000 C 
ATOM     11  C   UNL     1      -3.078  16.236  23.323  0.00  0.00    +0.000 C 
ATOM     12  C   UNL     1      -2.912  14.840  23.905  0.00  0.00    +0.000 C 
ATOM     13  C   UNL     1      -3.422  13.708  22.966  0.00  0.00    +0.000 C 
ATOM     14  C   UNL     1      -3.383  12.405  23.812  0.00  0.00    +0.000 C 
ATOM     15  C   UNL     1      -2.542  13.577  21.670  0.00  0.00    +0.000 C 
ATOM     16  C   UNL     1      -1.030  13.459  21.984  0.00  0.00    +0.000 C 
ATOM     17  C   UNL     1      -0.171  13.092  20.782  0.00  0.00    +0.000 C 
ATOM     18  C   UNL     1      -0.718  11.850  20.070  0.00  0.00    +0.000 C 
ATOM     19  C   UNL     1      -0.781  10.646  21.047  0.00  0.00    +0.000 C 
ENDROOT
BRANCH   1  21
ATOM     20  C   UNL     1       2.449  11.502  17.892  0.00  0.00    +0.000 C 
ATOM     21  C   UNL     1       1.388  10.790  18.730  0.00  0.00    +0.000 C 
BRANCH  21  22
ATOM     22  C   UNL     1       1.152   9.357  18.189  0.00  0.00    +0.000 C 
BRANCH  22  23
ATOM     23  C   UNL     1       2.332   8.476  17.761  0.00  0.00    +0.000 C 
BRANCH  23  24
ATOM     24  C   UNL     1       2.545   7.450  18.873  0.00  0.00    +0.000 C 
ATOM     25  O   UNL     1       1.992   7.511  19.973  0.00  0.00    +0.000 OA
ATOM     26  N   UNL     1       3.389   6.418  18.552  0.00  0.00    +0.000 N 
ATOM     27  H   UNL     1       3.979   6.502  17.720  0.00  0.00    +0.000 HD
BRANCH  26  28
ATOM     28  C   UNL     1       3.697   5.401  19.544  0.00  0.00    +0.000 C 
BRANCH  28  29
ATOM     29  C   UNL     1       4.090   4.081  18.907  0.00  0.00    +0.000 C 
BRANCH  29  30
ATOM     30  C   UNL     1       5.090   4.250  17.794  0.00  0.00    +0.000 A 
ATOM     31  C   UNL     1       4.730   4.027  16.456  0.00  0.00    +0.000 A 
ATOM     32  C   UNL     1       5.680   4.147  15.441  0.00  0.00    +0.000 A 
ATOM     33  C   UNL     1       6.997   4.491  15.749  0.00  0.00    +0.000 A 
ATOM     34  C   UNL     1       7.361   4.727  17.073  0.00  0.00    +0.000 A 
ATOM     35  C   UNL     1       6.412   4.608  18.089  0.00  0.00    +0.000 A 
ENDBRANCH  29  30
ENDBRANCH  28  29
ENDBRANCH  26  28
ENDBRANCH  23  24
ENDBRANCH  22  23
ENDBRANCH  21  22
ENDBRANCH   1  21
BRANCH   6  36
ATOM     36  O   UNL     1      -5.122  11.844  19.454  0.00  0.00    +0.000 OA
ATOM     37  H   UNL     1      -6.063  12.057  19.325  0.00  0.00    +0.000 HD
ENDBRANCH   6  36
BRANCH  10  38
ATOM     38  O   UNL     1      -4.675  17.790  22.410  0.00  0.00    +0.000 OA
ATOM     39  H   UNL     1      -5.498  17.805  21.891  0.00  0.00    +0.000 HD
ENDBRANCH  10  38
TORSDOF 9
ENDMDL
MODEL 3
REMARK VINA RESULT:      -7.6      3.478      5.508
REMARK  Name = 
REMARK  12 active torsions:
REMARK  status: ('A' for Active; 'I' for Inactive)
REMARK    1  A    between atoms: C_1  and  C_2
REMARK    2  A    between atoms: C_2  and  C_3
REMARK    3  A    between atoms: C_2  and  C_16
REMARK    4  A    between atoms: C_3  and  C_4
REMARK    5  A    between atoms: C_4  and  C_5
REMARK    6  A    between atoms: N_7  and  C_8
REMARK    7  A    between atoms: C_8  and  C_9
REMARK    8  A    between atoms: C_9  and  C_10
REMARK    9  A    between atoms: C_21  and  O_22
REMARK   10  A    between atoms: C_26  and  O_27
REMARK   11  A    between atoms: C_30  and  C_31
REMARK   12  A    between atoms: C_35  and  C_36
REMARK                            x       y       z     vdW  Elec       q    Type
REMARK                         _______ _______ _______ _____ _____    ______ ____
ROOT
ATOM      1  C   UNL     1      -0.531  10.811  19.733  0.00  0.00    +0.000 C 
ATOM      2  C   UNL     1       0.511  11.125  20.843  0.00  0.00    +0.000 C 
ATOM      3  C   UNL     1      -0.178  12.039  21.863  0.00  0.00    +0.000 C 
ATOM      4  C   UNL     1      -1.653  12.020  21.470  0.00  0.00    +0.000 C 
ATOM      5  C   UNL     1      -2.555  13.179  21.928  0.00  0.00    +0.000 C 
ATOM      6  C   UNL     1      -2.657  13.366  23.453  0.00  0.00    +0.000 C 
ATOM      7  C   UNL     1      -3.534  14.581  23.781  0.00  0.00    +0.000 C 
ATOM      8  C   UNL     1      -4.932  14.530  23.140  0.00  0.00    +0.000 C 
ATOM      9  C   UNL     1      -5.797  13.490  23.877  0.00  0.00    +0.000 C 
ATOM     10  C   UNL     1      -7.193  13.364  23.277  0.00  0.00    +0.000 C 
ATOM     11  C   UNL     1      -7.130  13.044  21.789  0.00  0.00    +0.000 C 
ATOM     12  C   UNL     1      -6.329  14.110  21.055  0.00  0.00    +0.000 C 
ATOM     13  C   UNL     1      -4.880  14.283  21.595  0.00  0.00    +0.000 C 
ATOM     14  C   UNL     1      -4.312  15.546  20.890  0.00  0.00    +0.000 C 
ATOM     15  C   UNL     1      -3.989  13.018  21.311  0.00  0.00    +0.000 C 
ATOM     16  C   UNL     1      -4.026  12.585  19.825  0.00  0.00    +0.000 C 
ATOM     17  C   UNL     1      -3.000  11.521  19.461  0.00  0.00    +0.000 C 
ATOM     18  C   UNL     1      -1.595  11.930  19.915  0.00  0.00    +0.000 C 
ATOM     19  C   UNL     1      -1.187  13.282  19.272  0.00  0.00    +0.000 C 
ENDROOT
BRANCH   1  21
ATOM     20  C   UNL     1      -0.742   9.650  17.437  0.00  0.00    +0.000 C 
ATOM     21  C   UNL     1       0.116  10.540  18.334  0.00  0.00    +0.000 C 
BRANCH  21  22
ATOM     22  C   UNL     1       1.498   9.881  18.577  0.00  0.00    +0.000 C 
BRANCH  22  23
ATOM     23  C   UNL     1       1.948   8.674  17.746  0.00  0.00    +0.000 C 
BRANCH  23  24
ATOM     24  C   UNL     1       2.249   7.546  18.730  0.00  0.00    +0.000 C 
ATOM     25  O   UNL     1       2.168   7.668  19.954  0.00  0.00    +0.000 OA
ATOM     26  N   UNL     1       2.598   6.352  18.151  0.00  0.00    +0.000 N 
ATOM     27  H   UNL     1       2.849   6.339  17.159  0.00  0.00    +0.000 HD
BRANCH  26  28
ATOM     28  C   UNL     1       2.943   5.216  18.990  0.00  0.00    +0.000 C 
BRANCH  28  29
ATOM     29  C   UNL     1       3.385   4.015  18.173  0.00  0.00    +0.000 C 
BRANCH  29  30
ATOM     30  C   UNL     1       4.735   4.214  17.534  0.00  0.00    +0.000 A 
ATOM     31  C   UNL     1       5.871   4.485  18.312  0.00  0.00    +0.000 A 
ATOM     32  C   UNL     1       7.106   4.708  17.701  0.00  0.00    +0.000 A 
ATOM     33  C   UNL     1       7.220   4.664  16.311  0.00  0.00    +0.000 A 
ATOM     34  C   UNL     1       6.100   4.383  15.531  0.00  0.00    +0.000 A 
ATOM     35  C   UNL     1       4.864   4.158  16.141  0.00  0.00    +0.000 A 
ENDBRANCH  29  30
ENDBRANCH  28  29
ENDBRANCH  26  28
ENDBRANCH  23  24
ENDBRANCH  22  23
ENDBRANCH  21  22
ENDBRANCH   1  21
BRANCH   6  36
ATOM     36  O   UNL     1      -1.376  13.590  24.035  0.00  0.00    +0.000 OA
ATOM     37  H   UNL     1      -0.769  12.906  23.704  0.00  0.00    +0.000 HD
ENDBRANCH   6  36
BRANCH  10  38
ATOM     38  O   UNL     1      -7.913  12.342  23.955  0.00  0.00    +0.000 OA
ATOM     39  H   UNL     1      -7.293  11.619  24.157  0.00  0.00    +0.000 HD
ENDBRANCH  10  38
TORSDOF 9
ENDMDL
MODEL 4
REMARK VINA RESULT:      -7.5      2.542      4.948
REMARK  Name = 
REMARK  12 active torsions:
REMARK  status: ('A' for Active; 'I' for Inactive)
REMARK    1  A    between atoms: C_1  and  C_2
REMARK    2  A    between atoms: C_2  and  C_3
REMARK    3  A    between atoms: C_2  and  C_16
REMARK    4  A    between atoms: C_3  and  C_4
REMARK    5  A    between atoms: C_4  and  C_5
REMARK    6  A    between atoms: N_7  and  C_8
REMARK    7  A    between atoms: C_8  and  C_9
REMARK    8  A    between atoms: C_9  and  C_10
REMARK    9  A    between atoms: C_21  and  O_22
REMARK   10  A    between atoms: C_26  and  O_27
REMARK   11  A    between atoms: C_30  and  C_31
REMARK   12  A    between atoms: C_35  and  C_36
REMARK                            x       y       z     vdW  Elec       q    Type
REMARK                         _______ _______ _______ _____ _____    ______ ____
ROOT
ATOM      1  C   UNL     1       2.048   9.267  18.989  0.00  0.00    +0.000 C 
ATOM      2  C   UNL     1       2.655  10.176  17.884  0.00  0.00    +0.000 C 
ATOM      3  C   UNL     1       2.020  11.563  18.041  0.00  0.00    +0.000 C 
ATOM      4  C   UNL     1       1.273  11.501  19.372  0.00  0.00    +0.000 C 
ATOM      5  C   UNL     1       0.127  12.498  19.623  0.00  0.00    +0.000 C 
ATOM      6  C   UNL     1       0.531  13.983  19.577  0.00  0.00    +0.000 C 
ATOM      7  C   UNL     1      -0.701  14.873  19.785  0.00  0.00    +0.000 C 
ATOM      8  C   UNL     1      -1.487  14.557  21.069  0.00  0.00    +0.000 C 
ATOM      9  C   UNL     1      -0.700  15.066  22.292  0.00  0.00    +0.000 C 
ATOM     10  C   UNL     1      -1.408  14.762  23.608  0.00  0.00    +0.000 C 
ATOM     11  C   UNL     1      -1.703  13.274  23.747  0.00  0.00    +0.000 C 
ATOM     12  C   UNL     1      -2.536  12.790  22.570  0.00  0.00    +0.000 C 
ATOM     13  C   UNL     1      -1.869  13.044  21.187  0.00  0.00    +0.000 C 
ATOM     14  C   UNL     1      -2.950  12.701  20.125  0.00  0.00    +0.000 C 
ATOM     15  C   UNL     1      -0.574  12.174  20.989  0.00  0.00    +0.000 C 
ATOM     16  C   UNL     1      -0.816  10.671  21.270  0.00  0.00    +0.000 C 
ATOM     17  C   UNL     1       0.339   9.768  20.861  0.00  0.00    +0.000 C 
ATOM     18  C   UNL     1       0.761  10.030  19.412  0.00  0.00    +0.000 C 
ATOM     19  C   UNL     1      -0.436   9.807  18.448  0.00  0.00    +0.000 C 
ENDROOT
BRANCH   1  21
ATOM     20  C   UNL     1       2.231   6.810  19.760  0.00  0.00    +0.000 C 
ATOM     21  C   UNL     1       1.988   7.757  18.586  0.00  0.00    +0.000 C 
BRANCH  21  22
ATOM     22  C   UNL     1       3.053   7.525  17.483  0.00  0.00    +0.000 C 
BRANCH  22  23
ATOM     23  C   UNL     1       4.528   7.319  17.848  0.00  0.00    +0.000 C 
BRANCH  23  24
ATOM     24  C   UNL     1       4.740   5.814  18.001  0.00  0.00    +0.000 C 
ATOM     25  O   UNL     1       5.410   5.308  18.903  0.00  0.00    +0.000 OA
ATOM     26  N   UNL     1       4.101   5.043  17.065  0.00  0.00    +0.000 N 
ATOM     27  H   UNL     1       3.726   5.493  16.225  0.00  0.00    +0.000 HD
BRANCH  26  28
ATOM     28  C   UNL     1       4.260   3.598  17.087  0.00  0.00    +0.000 C 
BRANCH  28  29
ATOM     29  C   UNL     1       2.942   2.880  17.316  0.00  0.00    +0.000 C 
BRANCH  29  30
ATOM     30  C   UNL     1       2.474   2.971  18.746  0.00  0.00    +0.000 A 
ATOM     31  C   UNL     1       3.334   2.662  19.810  0.00  0.00    +0.000 A 
ATOM     32  C   UNL     1       2.871   2.711  21.126  0.00  0.00    +0.000 A 
ATOM     33  C   UNL     1       1.548   3.068  21.393  0.00  0.00    +0.000 A 
ATOM     34  C   UNL     1       0.691   3.388  20.342  0.00  0.00    +0.000 A 
ATOM     35  C   UNL     1       1.152   3.341  19.026  0.00  0.00    +0.000 A 
ENDBRANCH  29  30
ENDBRANCH  28  29
ENDBRANCH  26  28
ENDBRANCH  23  24
ENDBRANCH  22  23
ENDBRANCH  21  22
ENDBRANCH   1  21
BRANCH   6  36
ATOM     36  O   UNL     1       1.104  14.327  18.320  0.00  0.00    +0.000 OA
ATOM     37  H   UNL     1       2.064  14.426  18.440  0.00  0.00    +0.000 HD
ENDBRANCH   6  36
BRANCH  10  38
ATOM     38  O   UNL     1      -0.598  15.192  24.695  0.00  0.00    +0.000 OA
ATOM     39  H   UNL     1      -0.914  14.749  25.502  0.00  0.00    +0.000 HD
ENDBRANCH  10  38
TORSDOF 9
ENDMDL
MODEL 5
REMARK VINA RESULT:      -7.5      2.676      5.121
REMARK  Name = 
REMARK  12 active torsions:
REMARK  status: ('A' for Active; 'I' for Inactive)
REMARK    1  A    between atoms: C_1  and  C_2
REMARK    2  A    between atoms: C_2  and  C_3
REMARK    3  A    between atoms: C_2  and  C_16
REMARK    4  A    between atoms: C_3  and  C_4
REMARK    5  A    between atoms: C_4  and  C_5
REMARK    6  A    between atoms: N_7  and  C_8
REMARK    7  A    between atoms: C_8  and  C_9
REMARK    8  A    between atoms: C_9  and  C_10
REMARK    9  A    between atoms: C_21  and  O_22
REMARK   10  A    between atoms: C_26  and  O_27
REMARK   11  A    between atoms: C_30  and  C_31
REMARK   12  A    between atoms: C_35  and  C_36
REMARK                            x       y       z     vdW  Elec       q    Type
REMARK                         _______ _______ _______ _____ _____    ______ ____
ROOT
ATOM      1  C   UNL     1       2.048   9.323  18.860  0.00  0.00    +0.000 C 
ATOM      2  C   UNL     1       2.676  10.298  17.825  0.00  0.00    +0.000 C 
ATOM      3  C   UNL     1       2.014  11.666  18.033  0.00  0.00    +0.000 C 
ATOM      4  C   UNL     1       1.226  11.523  19.333  0.00  0.00    +0.000 C 
ATOM      5  C   UNL     1       0.057  12.489  19.598  0.00  0.00    +0.000 C 
ATOM      6  C   UNL     1       0.438  13.980  19.644  0.00  0.00    +0.000 C 
ATOM      7  C   UNL     1      -0.814  14.841  19.857  0.00  0.00    +0.000 C 
ATOM      8  C   UNL     1      -1.636  14.446  21.096  0.00  0.00    +0.000 C 
ATOM      9  C   UNL     1      -0.896  14.901  22.370  0.00  0.00    +0.000 C 
ATOM     10  C   UNL     1      -1.641  14.518  23.643  0.00  0.00    +0.000 C 
ATOM     11  C   UNL     1      -1.917  13.021  23.695  0.00  0.00    +0.000 C 
ATOM     12  C   UNL     1      -2.704  12.587  22.467  0.00  0.00    +0.000 C 
ATOM     13  C   UNL     1      -1.997  12.923  21.122  0.00  0.00    +0.000 C 
ATOM     14  C   UNL     1      -3.038  12.622  20.008  0.00  0.00    +0.000 C 
ATOM     15  C   UNL     1      -0.682  12.084  20.921  0.00  0.00    +0.000 C 
ATOM     16  C   UNL     1      -0.909  10.565  21.115  0.00  0.00    +0.000 C 
ATOM     17  C   UNL     1       0.272   9.700  20.699  0.00  0.00    +0.000 C 
ATOM     18  C   UNL     1       0.736  10.045  19.279  0.00  0.00    +0.000 C 
ATOM     19  C   UNL     1      -0.425   9.856  18.266  0.00  0.00    +0.000 C 
ENDROOT
BRANCH   1  21
ATOM     20  C   UNL     1       2.252   6.832  19.506  0.00  0.00    +0.000 C 
ATOM     21  C   UNL     1       2.025   7.836  18.377  0.00  0.00    +0.000 C 
BRANCH  21  22
ATOM     22  C   UNL     1       3.123   7.679  17.293  0.00  0.00    +0.000 C 
BRANCH  22  23
ATOM     23  C   UNL     1       4.518   7.159  17.660  0.00  0.00    +0.000 C 
BRANCH  23  24
ATOM     24  C   UNL     1       4.641   5.760  17.060  0.00  0.00    +0.000 C 
ATOM     25  O   UNL     1       4.826   5.547  15.860  0.00  0.00    +0.000 OA
ATOM     26  N   UNL     1       4.560   4.734  17.966  0.00  0.00    +0.000 N 
ATOM     27  H   UNL     1       4.211   4.932  18.907  0.00  0.00    +0.000 HD
BRANCH  26  28
ATOM     28  C   UNL     1       4.626   3.356  17.505  0.00  0.00    +0.000 C 
BRANCH  28  29
ATOM     29  C   UNL     1       3.271   2.674  17.544  0.00  0.00    +0.000 C 
BRANCH  29  30
ATOM     30  C   UNL     1       2.597   2.802  18.886  0.00  0.00    +0.000 A 
ATOM     31  C   UNL     1       1.289   3.300  18.994  0.00  0.00    +0.000 A 
ATOM     32  C   UNL     1       0.695   3.451  20.248  0.00  0.00    +0.000 A 
ATOM     33  C   UNL     1       1.398   3.108  21.404  0.00  0.00    +0.000 A 
ATOM     34  C   UNL     1       2.692   2.601  21.305  0.00  0.00    +0.000 A 
ATOM     35  C   UNL     1       3.287   2.448  20.052  0.00  0.00    +0.000 A 
ENDBRANCH  29  30
ENDBRANCH  28  29
ENDBRANCH  26  28
ENDBRANCH  23  24
ENDBRANCH  22  23
ENDBRANCH  21  22
ENDBRANCH   1  21
BRANCH   6  36
ATOM     36  O   UNL     1       1.046  14.398  18.425  0.00  0.00    +0.000 OA
ATOM     37  H   UNL     1       1.155  13.616  17.857  0.00  0.00    +0.000 HD
ENDBRANCH   6  36
BRANCH  10  38
ATOM     38  O   UNL     1      -0.873  14.901  24.778  0.00  0.00    +0.000 OA
ATOM     39  H   UNL     1      -0.064  14.361  24.792  0.00  0.00    +0.000 HD
ENDBRANCH  10  38
TORSDOF 9
ENDMDL
MODEL 6
REMARK VINA RESULT:      -7.4      3.290      5.038
REMARK  Name = 
REMARK  12 active torsions:
REMARK  status: ('A' for Active; 'I' for Inactive)
REMARK    1  A    between atoms: C_1  and  C_2
REMARK    2  A    between atoms: C_2  and  C_3
REMARK    3  A    between atoms: C_2  and  C_16
REMARK    4  A    between atoms: C_3  and  C_4
REMARK    5  A    between atoms: C_4  and  C_5
REMARK    6  A    between atoms: N_7  and  C_8
REMARK    7  A    between atoms: C_8  and  C_9
REMARK    8  A    between atoms: C_9  and  C_10
REMARK    9  A    between atoms: C_21  and  O_22
REMARK   10  A    between atoms: C_26  and  O_27
REMARK   11  A    between atoms: C_30  and  C_31
REMARK   12  A    between atoms: C_35  and  C_36
REMARK                            x       y       z     vdW  Elec       q    Type
REMARK                         _______ _______ _______ _____ _____    ______ ____
ROOT
ATOM      1  C   UNL     1      -0.133  11.257  18.494  0.00  0.00    +0.000 C 
ATOM      2  C   UNL     1      -1.077  10.276  17.745  0.00  0.00    +0.000 C 
ATOM      3  C   UNL     1      -2.510  10.611  18.175  0.00  0.00    +0.000 C 
ATOM      4  C   UNL     1      -2.390  11.925  18.943  0.00  0.00    +0.000 C 
ATOM      5  C   UNL     1      -3.502  12.305  19.936  0.00  0.00    +0.000 C 
ATOM      6  C   UNL     1      -4.907  12.448  19.322  0.00  0.00    +0.000 C 
ATOM      7  C   UNL     1      -5.933  12.772  20.415  0.00  0.00    +0.000 C 
ATOM      8  C   UNL     1      -5.575  14.008  21.258  0.00  0.00    +0.000 C 
ATOM      9  C   UNL     1      -5.804  15.284  20.424  0.00  0.00    +0.000 C 
ATOM     10  C   UNL     1      -5.441  16.552  21.189  0.00  0.00    +0.000 C 
ATOM     11  C   UNL     1      -4.007  16.501  21.698  0.00  0.00    +0.000 C 
ATOM     12  C   UNL     1      -3.803  15.274  22.575  0.00  0.00    +0.000 C 
ATOM     13  C   UNL     1      -4.130  13.933  21.856  0.00  0.00    +0.000 C 
ATOM     14  C   UNL     1      -4.086  12.839  22.960  0.00  0.00    +0.000 C 
ATOM     15  C   UNL     1      -3.114  13.620  20.698  0.00  0.00    +0.000 C 
ATOM     16  C   UNL     1      -1.638  13.708  21.159  0.00  0.00    +0.000 C 
ATOM     17  C   UNL     1      -0.636  13.184  20.141  0.00  0.00    +0.000 C 
ATOM     18  C   UNL     1      -1.016  11.778  19.664  0.00  0.00    +0.000 C 
ATOM     19  C   UNL     1      -1.093  10.798  20.865  0.00  0.00    +0.000 C 
ENDROOT
BRANCH   1  21
ATOM     20  C   UNL     1       2.401  11.402  18.022  0.00  0.00    +0.000 C 
ATOM     21  C   UNL     1       1.289  10.665  18.766  0.00  0.00    +0.000 C 
BRANCH  21  22
ATOM     22  C   UNL     1       1.262   9.172  18.346  0.00  0.00    +0.000 C 
BRANCH  22  23
ATOM     23  C   UNL     1       2.374   8.585  17.470  0.00  0.00    +0.000 C 
BRANCH  23  24
ATOM     24  C   UNL     1       2.948   7.388  18.226  0.00  0.00    +0.000 C 
ATOM     25  O   UNL     1       2.590   7.062  19.359  0.00  0.00    +0.000 OA
ATOM     26  N   UNL     1       3.890   6.667  17.537  0.00  0.00    +0.000 N 
ATOM     27  H   UNL     1       4.305   7.074  16.695  0.00  0.00    +0.000 HD
BRANCH  26  28
ATOM     28  C   UNL     1       4.534   5.528  18.171  0.00  0.00    +0.000 C 
BRANCH  28  29
ATOM     29  C   UNL     1       3.862   4.216  17.808  0.00  0.00    +0.000 C 
BRANCH  29  30
ATOM     30  C   UNL     1       2.974   3.696  18.908  0.00  0.00    +0.000 A 
ATOM     31  C   UNL     1       3.505   3.321  20.151  0.00  0.00    +0.000 A 
ATOM     32  C   UNL     1       2.674   2.801  21.144  0.00  0.00    +0.000 A 
ATOM     33  C   UNL     1       1.307   2.651  20.908  0.00  0.00    +0.000 A 
ATOM     34  C   UNL     1       0.768   3.033  19.681  0.00  0.00    +0.000 A 
ATOM     35  C   UNL     1       1.598   3.554  18.687  0.00  0.00    +0.000 A 
ENDBRANCH  29  30
ENDBRANCH  28  29
ENDBRANCH  26  28
ENDBRANCH  23  24
ENDBRANCH  22  23
ENDBRANCH  21  22
ENDBRANCH   1  21
BRANCH   6  36
ATOM     36  O   UNL     1      -5.320  11.243  18.686  0.00  0.00    +0.000 OA
ATOM     37  H   UNL     1      -4.527  10.784  18.359  0.00  0.00    +0.000 HD
ENDBRANCH   6  36
BRANCH  10  38
ATOM     38  O   UNL     1      -5.608  17.682  20.342  0.00  0.00    +0.000 OA
ATOM     39  H   UNL     1      -6.337  17.494  19.725  0.00  0.00    +0.000 HD
ENDBRANCH  10  38
TORSDOF 9
ENDMDL
MODEL 7
REMARK VINA RESULT:      -7.4      3.702      5.251
REMARK  Name = 
REMARK  12 active torsions:
REMARK  status: ('A' for Active; 'I' for Inactive)
REMARK    1  A    between atoms: C_1  and  C_2
REMARK    2  A    between atoms: C_2  and  C_3
REMARK    3  A    between atoms: C_2  and  C_16
REMARK    4  A    between atoms: C_3  and  C_4
REMARK    5  A    between atoms: C_4  and  C_5
REMARK    6  A    between atoms: N_7  and  C_8
REMARK    7  A    between atoms: C_8  and  C_9
REMARK    8  A    between atoms: C_9  and  C_10
REMARK    9  A    between atoms: C_21  and  O_22
REMARK   10  A    between atoms: C_26  and  O_27
REMARK   11  A    between atoms: C_30  and  C_31
REMARK   12  A    between atoms: C_35  and  C_36
REMARK                            x       y       z     vdW  Elec       q    Type
REMARK                         _______ _______ _______ _____ _____    ______ ____
ROOT
ATOM      1  C   UNL     1      -0.170  11.867  18.920  0.00  0.00    +0.000 C 
ATOM      2  C   UNL     1      -1.238  11.137  18.057  0.00  0.00    +0.000 C 
ATOM      3  C   UNL     1      -2.601  11.398  18.710  0.00  0.00    +0.000 C 
ATOM      4  C   UNL     1      -2.330  12.471  19.762  0.00  0.00    +0.000 C 
ATOM      5  C   UNL     1      -3.318  12.623  20.933  0.00  0.00    +0.000 C 
ATOM      6  C   UNL     1      -4.764  12.962  20.528  0.00  0.00    +0.000 C 
ATOM      7  C   UNL     1      -5.660  13.032  21.772  0.00  0.00    +0.000 C 
ATOM      8  C   UNL     1      -5.151  14.002  22.852  0.00  0.00    +0.000 C 
ATOM      9  C   UNL     1      -5.385  15.454  22.390  0.00  0.00    +0.000 C 
ATOM     10  C   UNL     1      -4.878  16.475  23.401  0.00  0.00    +0.000 C 
ATOM     11  C   UNL     1      -3.406  16.251  23.724  0.00  0.00    +0.000 C 
ATOM     12  C   UNL     1      -3.189  14.837  24.242  0.00  0.00    +0.000 C 
ATOM     13  C   UNL     1      -3.662  13.732  23.253  0.00  0.00    +0.000 C 
ATOM     14  C   UNL     1      -3.575  12.394  24.039  0.00  0.00    +0.000 C 
ATOM     15  C   UNL     1      -2.782  13.691  21.950  0.00  0.00    +0.000 C 
ATOM     16  C   UNL     1      -1.266  13.612  22.257  0.00  0.00    +0.000 C 
ATOM     17  C   UNL     1      -0.399  13.330  21.038  0.00  0.00    +0.000 C 
ATOM     18  C   UNL     1      -0.904  12.104  20.271  0.00  0.00    +0.000 C 
ATOM     19  C   UNL     1      -0.922  10.854  21.192  0.00  0.00    +0.000 C 
ENDROOT
BRANCH   1  21
ATOM     20  C   UNL     1       2.281  11.993  18.121  0.00  0.00    +0.000 C 
ATOM     21  C   UNL     1       1.234  11.180  18.881  0.00  0.00    +0.000 C 
BRANCH  21  22
ATOM     22  C   UNL     1       1.056   9.788  18.222  0.00  0.00    +0.000 C 
BRANCH  22  23
ATOM     23  C   UNL     1       2.150   8.720  18.338  0.00  0.00    +0.000 C 
BRANCH  23  24
ATOM     24  C   UNL     1       1.870   7.936  19.619  0.00  0.00    +0.000 C 
ATOM     25  O   UNL     1       1.284   8.410  20.594  0.00  0.00    +0.000 OA
ATOM     26  N   UNL     1       2.297   6.633  19.603  0.00  0.00    +0.000 N 
ATOM     27  H   UNL     1       2.947   6.334  18.871  0.00  0.00    +0.000 HD
BRANCH  26  28
ATOM     28  C   UNL     1       2.118   5.800  20.781  0.00  0.00    +0.000 C 
BRANCH  28  29
ATOM     29  C   UNL     1       1.332   4.537  20.475  0.00  0.00    +0.000 C 
BRANCH  29  30
ATOM     30  C   UNL     1       2.098   3.575  19.605  0.00  0.00    +0.000 A 
ATOM     31  C   UNL     1       1.759   3.391  18.256  0.00  0.00    +0.000 A 
ATOM     32  C   UNL     1       2.452   2.465  17.475  0.00  0.00    +0.000 A 
ATOM     33  C   UNL     1       3.489   1.714  18.031  0.00  0.00    +0.000 A 
ATOM     34  C   UNL     1       3.841   1.899  19.366  0.00  0.00    +0.000 A 
ATOM     35  C   UNL     1       3.150   2.826  20.148  0.00  0.00    +0.000 A 
ENDBRANCH  29  30
ENDBRANCH  28  29
ENDBRANCH  26  28
ENDBRANCH  23  24
ENDBRANCH  22  23
ENDBRANCH  21  22
ENDBRANCH   1  21
BRANCH   6  36
ATOM     36  O   UNL     1      -5.307  11.970  19.662  0.00  0.00    +0.000 OA
ATOM     37  H   UNL     1      -4.620  11.719  19.021  0.00  0.00    +0.000 HD
ENDBRANCH   6  36
BRANCH  10  38
ATOM     38  O   UNL     1      -5.059  17.788  22.885  0.00  0.00    +0.000 OA
ATOM     39  H   UNL     1      -5.867  18.159  23.280  0.00  0.00    +0.000 HD
ENDBRANCH  10  38
TORSDOF 9
ENDMDL
MODEL 8
REMARK VINA RESULT:      -7.4      2.834      5.162
REMARK  Name = 
REMARK  12 active torsions:
REMARK  status: ('A' for Active; 'I' for Inactive)
REMARK    1  A    between atoms: C_1  and  C_2
REMARK    2  A    between atoms: C_2  and  C_3
REMARK    3  A    between atoms: C_2  and  C_16
REMARK    4  A    between atoms: C_3  and  C_4
REMARK    5  A    between atoms: C_4  and  C_5
REMARK    6  A    between atoms: N_7  and  C_8
REMARK    7  A    between atoms: C_8  and  C_9
REMARK    8  A    between atoms: C_9  and  C_10
REMARK    9  A    between atoms: C_21  and  O_22
REMARK   10  A    between atoms: C_26  and  O_27
REMARK   11  A    between atoms: C_30  and  C_31
REMARK   12  A    between atoms: C_35  and  C_36
REMARK                            x       y       z     vdW  Elec       q    Type
REMARK                         _______ _______ _______ _____ _____    ______ ____
ROOT
ATOM      1  C   UNL     1       0.832  10.695  20.101  0.00  0.00    +0.000 C 
ATOM      2  C   UNL     1       1.204  11.569  18.870  0.00  0.00    +0.000 C 
ATOM      3  C   UNL     1       0.402  12.871  18.982  0.00  0.00    +0.000 C 
ATOM      4  C   UNL     1      -0.203  12.837  20.383  0.00  0.00    +0.000 C 
ATOM      5  C   UNL     1      -1.447  13.697  20.672  0.00  0.00    +0.000 C 
ATOM      6  C   UNL     1      -1.257  15.211  20.468  0.00  0.00    +0.000 C 
ATOM      7  C   UNL     1      -2.574  15.951  20.731  0.00  0.00    +0.000 C 
ATOM      8  C   UNL     1      -3.188  15.656  22.110  0.00  0.00    +0.000 C 
ATOM      9  C   UNL     1      -2.369  16.372  23.201  0.00  0.00    +0.000 C 
ATOM     10  C   UNL     1      -2.904  16.103  24.603  0.00  0.00    +0.000 C 
ATOM     11  C   UNL     1      -2.979  14.609  24.889  0.00  0.00    +0.000 C 
ATOM     12  C   UNL     1      -3.843  13.915  23.847  0.00  0.00    +0.000 C 
ATOM     13  C   UNL     1      -3.346  14.124  22.387  0.00  0.00    +0.000 C 
ATOM     14  C   UNL     1      -4.464  13.548  21.473  0.00  0.00    +0.000 C 
ATOM     15  C   UNL     1      -1.968  13.413  22.125  0.00  0.00    +0.000 C 
ATOM     16  C   UNL     1      -1.975  11.924  22.547  0.00  0.00    +0.000 C 
ATOM     17  C   UNL     1      -0.750  11.142  22.095  0.00  0.00    +0.000 C 
ATOM     18  C   UNL     1      -0.503  11.322  20.593  0.00  0.00    +0.000 C 
ATOM     19  C   UNL     1      -1.742  10.859  19.779  0.00  0.00    +0.000 C 
ENDROOT
BRANCH   1  21
ATOM     20  C   UNL     1       1.102   8.330  21.100  0.00  0.00    +0.000 C 
ATOM     21  C   UNL     1       0.942   9.159  19.827  0.00  0.00    +0.000 C 
BRANCH  21  22
ATOM     22  C   UNL     1       2.156   8.938  18.888  0.00  0.00    +0.000 C 
BRANCH  22  23
ATOM     23  C   UNL     1       2.140   7.823  17.835  0.00  0.00    +0.000 C 
BRANCH  23  24
ATOM     24  C   UNL     1       3.064   6.719  18.344  0.00  0.00    +0.000 C 
ATOM     25  O   UNL     1       3.314   6.534  19.537  0.00  0.00    +0.000 OA
ATOM     26  N   UNL     1       3.588   5.909  17.369  0.00  0.00    +0.000 N 
ATOM     27  H   UNL     1       3.524   6.207  16.392  0.00  0.00    +0.000 HD
BRANCH  26  28
ATOM     28  C   UNL     1       4.511   4.846  17.731  0.00  0.00    +0.000 C 
BRANCH  28  29
ATOM     29  C   UNL     1       3.860   3.476  17.664  0.00  0.00    +0.000 C 
BRANCH  29  30
ATOM     30  C   UNL     1       2.946   3.211  18.832  0.00  0.00    +0.000 A 
ATOM     31  C   UNL     1       1.552   3.218  18.676  0.00  0.00    +0.000 A 
ATOM     32  C   UNL     1       0.719   3.013  19.777  0.00  0.00    +0.000 A 
ATOM     33  C   UNL     1       1.268   2.798  21.042  0.00  0.00    +0.000 A 
ATOM     34  C   UNL     1       2.652   2.776  21.204  0.00  0.00    +0.000 A 
ATOM     35  C   UNL     1       3.486   2.980  20.104  0.00  0.00    +0.000 A 
ENDBRANCH  29  30
ENDBRANCH  28  29
ENDBRANCH  26  28
ENDBRANCH  23  24
ENDBRANCH  22  23
ENDBRANCH  21  22
ENDBRANCH   1  21
BRANCH   6  36
ATOM     36  O   UNL     1      -0.854  15.508  19.134  0.00  0.00    +0.000 OA
ATOM     37  H   UNL     1      -0.072  14.969  18.926  0.00  0.00    +0.000 HD
ENDBRANCH   6  36
BRANCH  10  38
ATOM     38  O   UNL     1      -2.064  16.732  25.563  0.00  0.00    +0.000 OA
ATOM     39  H   UNL     1      -2.183  16.276  26.414  0.00  0.00    +0.000 HD
ENDBRANCH  10  38
TORSDOF 9
ENDMDL
MODEL 9
REMARK VINA RESULT:      -7.3      3.107      4.304
REMARK  Name = 
REMARK  12 active torsions:
REMARK  status: ('A' for Active; 'I' for Inactive)
REMARK    1  A    between atoms: C_1  and  C_2
REMARK    2  A    between atoms: C_2  and  C_3
REMARK    3  A    between atoms: C_2  and  C_16
REMARK    4  A    between atoms: C_3  and  C_4
REMARK    5  A    between atoms: C_4  and  C_5
REMARK    6  A    between atoms: N_7  and  C_8
REMARK    7  A    between atoms: C_8  and  C_9
REMARK    8  A    between atoms: C_9  and  C_10
REMARK    9  A    between atoms: C_21  and  O_22
REMARK   10  A    between atoms: C_26  and  O_27
REMARK   11  A    between atoms: C_30  and  C_31
REMARK   12  A    between atoms: C_35  and  C_36
REMARK                            x       y       z     vdW  Elec       q    Type
REMARK                         _______ _______ _______ _____ _____    ______ ____
ROOT
ATOM      1  C   UNL     1      -0.054  11.277  18.484  0.00  0.00    +0.000 C 
ATOM      2  C   UNL     1      -1.067  10.321  17.795  0.00  0.00    +0.000 C 
ATOM      3  C   UNL     1      -2.460  10.678  18.329  0.00  0.00    +0.000 C 
ATOM      4  C   UNL     1      -2.259  11.981  19.099  0.00  0.00    +0.000 C 
ATOM      5  C   UNL     1      -3.291  12.371  20.172  0.00  0.00    +0.000 C 
ATOM      6  C   UNL     1      -4.733  12.547  19.661  0.00  0.00    +0.000 C 
ATOM      7  C   UNL     1      -5.672  12.878  20.828  0.00  0.00    +0.000 C 
ATOM      8  C   UNL     1      -5.231  14.098  21.654  0.00  0.00    +0.000 C 
ATOM      9  C   UNL     1      -5.494  15.386  20.851  0.00  0.00    +0.000 C 
ATOM     10  C   UNL     1      -5.054  16.640  21.599  0.00  0.00    +0.000 C 
ATOM     11  C   UNL     1      -3.589  16.557  22.004  0.00  0.00    +0.000 C 
ATOM     12  C   UNL     1      -3.345  15.318  22.853  0.00  0.00    +0.000 C 
ATOM     13  C   UNL     1      -3.749  13.990  22.147  0.00  0.00    +0.000 C 
ATOM     14  C   UNL     1      -3.647  12.884  23.235  0.00  0.00    +0.000 C 
ATOM     15  C   UNL     1      -2.824  13.671  20.916  0.00  0.00    +0.000 C 
ATOM     16  C   UNL     1      -1.318  13.727  21.272  0.00  0.00    +0.000 C 
ATOM     17  C   UNL     1      -0.401  13.195  20.180  0.00  0.00    +0.000 C 
ATOM     18  C   UNL     1      -0.841  11.802  19.718  0.00  0.00    +0.000 C 
ATOM     19  C   UNL     1      -0.851  10.811  20.913  0.00  0.00    +0.000 C 
ENDROOT
BRANCH   1  21
ATOM     20  C   UNL     1       2.470  11.485  17.984  0.00  0.00    +0.000 C 
ATOM     21  C   UNL     1       1.372  10.656  18.647  0.00  0.00    +0.000 C 
BRANCH  21  22
ATOM     22  C   UNL     1       1.335   9.231  18.036  0.00  0.00    +0.000 C 
BRANCH  22  23
ATOM     23  C   UNL     1       2.632   8.457  17.773  0.00  0.00    +0.000 C 
BRANCH  23  24
ATOM     24  C   UNL     1       2.535   7.151  18.559  0.00  0.00    +0.000 C 
ATOM     25  O   UNL     1       2.443   7.099  19.787  0.00  0.00    +0.000 OA
ATOM     26  N   UNL     1       2.529   6.014  17.792  0.00  0.00    +0.000 N 
ATOM     27  H   UNL     1       2.805   6.080  16.808  0.00  0.00    +0.000 HD
BRANCH  26  28
ATOM     28  C   UNL     1       2.478   4.710  18.432  0.00  0.00    +0.000 C 
BRANCH  28  29
ATOM     29  C   UNL     1       3.588   3.793  17.952  0.00  0.00    +0.000 C 
BRANCH  29  30
ATOM     30  C   UNL     1       4.940   4.457  17.979  0.00  0.00    +0.000 A 
ATOM     31  C   UNL     1       5.512   4.884  19.186  0.00  0.00    +0.000 A 
ATOM     32  C   UNL     1       6.747   5.535  19.189  0.00  0.00    +0.000 A 
ATOM     33  C   UNL     1       7.422   5.766  17.989  0.00  0.00    +0.000 A 
ATOM     34  C   UNL     1       6.867   5.334  16.787  0.00  0.00    +0.000 A 
ATOM     35  C   UNL     1       5.633   4.681  16.782  0.00  0.00    +0.000 A 
ENDBRANCH  29  30
ENDBRANCH  28  29
ENDBRANCH  26  28
ENDBRANCH  23  24
ENDBRANCH  22  23
ENDBRANCH  21  22
ENDBRANCH   1  21
BRANCH   6  36
ATOM     36  O   UNL     1      -5.214  11.356  19.046  0.00  0.00    +0.000 OA
ATOM     37  H   UNL     1      -4.610  10.629  19.277  0.00  0.00    +0.000 HD
ENDBRANCH   6  36
BRANCH  10  38
ATOM     38  O   UNL     1      -5.259  17.782  20.777  0.00  0.00    +0.000 OA
ATOM     39  H   UNL     1      -4.408  18.016  20.367  0.00  0.00    +0.000 HD
ENDBRANCH  10  38
TORSDOF 9
ENDMDL
