MODEL 1
REMARK VINA RESULT:      -7.5      0.000      0.000
REMARK  Name = 
REMARK  1 active torsions:
REMARK  status: ('A' for Active; 'I' for Inactive)
REMARK    1  A    between atoms: C_2  and  C_3
REMARK                            x       y       z     vdW  Elec       q    Type
REMARK                         _______ _______ _______ _____ _____    ______ ____
ROOT
ATOM      1  C   UNL     1       5.627   4.529  18.473  0.00  0.00    +0.000 A 
ATOM      2  C   UNL     1       6.335   5.382  19.240  0.00  0.00    +0.000 A 
ATOM      3  N   UNL     1       7.086   6.403  18.722  0.00  0.00    +0.000 N 
ATOM      4  C   UNL     1       7.267   6.618  17.379  0.00  0.00    +0.000 A 
ATOM      5  O   UNL     1       7.878   7.596  16.963  0.00  0.00    +0.000 OA
ATOM      6  C   UNL     1       6.710   5.585  16.474  0.00  0.00    +0.000 A 
ATOM      7  C   UNL     1       7.050   5.632  15.116  0.00  0.00    +0.000 A 
ATOM      8  C   UNL     1       6.594   4.640  14.257  0.00  0.00    +0.000 A 
ATOM      9  C   UNL     1       5.786   3.621  14.753  0.00  0.00    +0.000 A 
ATOM     10  C   UNL     1       5.433   3.584  16.110  0.00  0.00    +0.000 A 
ATOM     11  C   UNL     1       5.900   4.558  17.006  0.00  0.00    +0.000 A 
ATOM     12  H   UNL     1       7.501   7.096  19.332  0.00  0.00    +0.000 HD
ENDROOT
BRANCH   1  14
ATOM     13  O   UNL     1       5.241   2.621  19.810  0.00  0.00    +0.000 OA
ATOM     14  C   UNL     1       4.735   3.534  19.159  0.00  0.00    +0.000 C 
ATOM     15  N   UNL     1       3.351   3.649  19.019  0.00  0.00    +0.000 N 
ATOM     16  C   UNL     1       2.485   2.769  19.813  0.00  0.00    +0.000 C 
ATOM     17  C   UNL     1       1.342   2.207  18.962  0.00  0.00    +0.000 C 
ATOM     18  O   UNL     1       0.591   3.266  18.345  0.00  0.00    +0.000 OA
ATOM     19  C   UNL     1       1.437   4.031  17.480  0.00  0.00    +0.000 C 
ATOM     20  C   UNL     1       2.600   4.654  18.246  0.00  0.00    +0.000 C 
ENDBRANCH   1  14
TORSDOF 1
ENDMDL
MODEL 2
REMARK VINA RESULT:      -7.0      2.322      5.887
REMARK  Name = 
REMARK  1 active torsions:
REMARK  status: ('A' for Active; 'I' for Inactive)
REMARK    1  A    between atoms: C_2  and  C_3
REMARK                            x       y       z     vdW  Elec       q    Type
REMARK                         _______ _______ _______ _____ _____    ______ ____
ROOT
ATOM      1  C   UNL     1       3.257   3.818  18.378  0.00  0.00    +0.000 A 
ATOM      2  C   UNL     1       3.531   2.727  19.120  0.00  0.00    +0.000 A 
ATOM      3  N   UNL     1       3.097   2.574  20.410  0.00  0.00    +0.000 N 
ATOM      4  C   UNL     1       2.415   3.537  21.110  0.00  0.00    +0.000 A 
ATOM      5  O   UNL     1       1.974   3.321  22.233  0.00  0.00    +0.000 OA
ATOM      6  C   UNL     1       2.277   4.853  20.441  0.00  0.00    +0.000 A 
ATOM      7  C   UNL     1       1.791   5.935  21.186  0.00  0.00    +0.000 A 
ATOM      8  C   UNL     1       1.711   7.192  20.603  0.00  0.00    +0.000 A 
ATOM      9  C   UNL     1       2.098   7.360  19.276  0.00  0.00    +0.000 A 
ATOM     10  C   UNL     1       2.571   6.272  18.527  0.00  0.00    +0.000 A 
ATOM     11  C   UNL     1       2.686   4.995  19.096  0.00  0.00    +0.000 A 
ATOM     12  H   UNL     1       3.216   1.691  20.891  0.00  0.00    +0.000 HD
ENDROOT
BRANCH   1  14
ATOM     13  O   UNL     1       2.931   3.298  16.097  0.00  0.00    +0.000 OA
ATOM     14  C   UNL     1       3.671   3.814  16.934  0.00  0.00    +0.000 C 
ATOM     15  N   UNL     1       4.900   4.370  16.576  0.00  0.00    +0.000 N 
ATOM     16  C   UNL     1       5.229   4.500  15.151  0.00  0.00    +0.000 C 
ATOM     17  C   UNL     1       6.674   4.072  14.878  0.00  0.00    +0.000 C 
ATOM     18  O   UNL     1       7.594   4.811  15.699  0.00  0.00    +0.000 OA
ATOM     19  C   UNL     1       7.326   4.565  17.084  0.00  0.00    +0.000 C 
ATOM     20  C   UNL     1       5.908   4.983  17.459  0.00  0.00    +0.000 C 
ENDBRANCH   1  14
TORSDOF 1
ENDMDL
MODEL 3
REMARK VINA RESULT:      -6.9      1.917      2.850
REMARK  Name = 
REMARK  1 active torsions:
REMARK  status: ('A' for Active; 'I' for Inactive)
REMARK    1  A    between atoms: C_2  and  C_3
REMARK                            x       y       z     vdW  Elec       q    Type
REMARK                         _______ _______ _______ _____ _____    ______ ____
ROOT
ATOM      1  C   UNL     1       4.998   3.835  18.153  0.00  0.00    +0.000 A 
ATOM      2  C   UNL     1       4.333   3.713  16.987  0.00  0.00    +0.000 A 
ATOM      3  N   UNL     1       4.747   4.311  15.826  0.00  0.00    +0.000 N 
ATOM      4  C   UNL     1       5.823   5.157  15.739  0.00  0.00    +0.000 A 
ATOM      5  O   UNL     1       6.206   5.600  14.662  0.00  0.00    +0.000 OA
ATOM      6  C   UNL     1       6.467   5.524  17.024  0.00  0.00    +0.000 A 
ATOM      7  C   UNL     1       7.422   6.549  17.024  0.00  0.00    +0.000 A 
ATOM      8  C   UNL     1       7.995   6.956  18.223  0.00  0.00    +0.000 A 
ATOM      9  C   UNL     1       7.627   6.327  19.408  0.00  0.00    +0.000 A 
ATOM     10  C   UNL     1       6.681   5.290  19.404  0.00  0.00    +0.000 A 
ATOM     11  C   UNL     1       6.068   4.874  18.212  0.00  0.00    +0.000 A 
ATOM     12  H   UNL     1       4.293   4.095  14.947  0.00  0.00    +0.000 HD
ENDROOT
BRANCH   1  14
ATOM     13  O   UNL     1       5.120   1.991  19.623  0.00  0.00    +0.000 OA
ATOM     14  C   UNL     1       4.524   3.025  19.326  0.00  0.00    +0.000 C 
ATOM     15  N   UNL     1       3.399   3.449  20.035  0.00  0.00    +0.000 N 
ATOM     16  C   UNL     1       3.033   2.740  21.268  0.00  0.00    +0.000 C 
ATOM     17  C   UNL     1       1.524   2.487  21.331  0.00  0.00    +0.000 C 
ATOM     18  O   UNL     1       0.790   3.715  21.194  0.00  0.00    +0.000 OA
ATOM     19  C   UNL     1       1.073   4.320  19.928  0.00  0.00    +0.000 C 
ATOM     20  C   UNL     1       2.559   4.632  19.779  0.00  0.00    +0.000 C 
ENDBRANCH   1  14
TORSDOF 1
ENDMDL
MODEL 4
REMARK VINA RESULT:      -6.8      1.931      5.999
REMARK  Name = 
REMARK  1 active torsions:
REMARK  status: ('A' for Active; 'I' for Inactive)
REMARK    1  A    between atoms: C_2  and  C_3
REMARK                            x       y       z     vdW  Elec       q    Type
REMARK                         _______ _______ _______ _____ _____    ______ ____
ROOT
ATOM      1  C   UNL     1       4.075   3.498  18.565  0.00  0.00    +0.000 A 
ATOM      2  C   UNL     1       3.805   2.215  18.252  0.00  0.00    +0.000 A 
ATOM      3  N   UNL     1       2.545   1.681  18.314  0.00  0.00    +0.000 N 
ATOM      4  C   UNL     1       1.445   2.359  18.777  0.00  0.00    +0.000 A 
ATOM      5  O   UNL     1       0.324   1.867  18.733  0.00  0.00    +0.000 OA
ATOM      6  C   UNL     1       1.704   3.699  19.356  0.00  0.00    +0.000 A 
ATOM      7  C   UNL     1       0.665   4.343  20.041  0.00  0.00    +0.000 A 
ATOM      8  C   UNL     1       0.898   5.571  20.648  0.00  0.00    +0.000 A 
ATOM      9  C   UNL     1       2.157   6.156  20.554  0.00  0.00    +0.000 A 
ATOM     10  C   UNL     1       3.192   5.516  19.855  0.00  0.00    +0.000 A 
ATOM     11  C   UNL     1       2.994   4.265  19.252  0.00  0.00    +0.000 A 
ATOM     12  H   UNL     1       2.362   0.753  17.953  0.00  0.00    +0.000 HD
ENDROOT
BRANCH   1  14
ATOM     13  O   UNL     1       6.195   4.238  19.295  0.00  0.00    +0.000 OA
ATOM     14  C   UNL     1       5.469   4.006  18.330  0.00  0.00    +0.000 C 
ATOM     15  N   UNL     1       5.899   4.231  17.022  0.00  0.00    +0.000 N 
ATOM     16  C   UNL     1       7.307   4.580  16.792  0.00  0.00    +0.000 C 
ATOM     17  C   UNL     1       7.433   5.723  15.779  0.00  0.00    +0.000 C 
ATOM     18  O   UNL     1       6.765   5.398  14.550  0.00  0.00    +0.000 OA
ATOM     19  C   UNL     1       5.369   5.184  14.788  0.00  0.00    +0.000 C 
ATOM     20  C   UNL     1       5.141   4.043  15.773  0.00  0.00    +0.000 C 
ENDBRANCH   1  14
TORSDOF 1
ENDMDL
MODEL 5
REMARK VINA RESULT:      -6.7      2.381      5.585
REMARK  Name = 
REMARK  1 active torsions:
REMARK  status: ('A' for Active; 'I' for Inactive)
REMARK    1  A    between atoms: C_2  and  C_3
REMARK                            x       y       z     vdW  Elec       q    Type
REMARK                         _______ _______ _______ _____ _____    ______ ____
ROOT
ATOM      1  C   UNL     1       5.891   5.234  17.362  0.00  0.00    +0.000 A 
ATOM      2  C   UNL     1       6.232   4.204  18.163  0.00  0.00    +0.000 A 
ATOM      3  N   UNL     1       5.389   3.684  19.108  0.00  0.00    +0.000 N 
ATOM      4  C   UNL     1       4.151   4.197  19.400  0.00  0.00    +0.000 A 
ATOM      5  O   UNL     1       3.398   3.645  20.194  0.00  0.00    +0.000 OA
ATOM      6  C   UNL     1       3.799   5.469  18.723  0.00  0.00    +0.000 A 
ATOM      7  C   UNL     1       2.651   6.154  19.143  0.00  0.00    +0.000 A 
ATOM      8  C   UNL     1       2.333   7.379  18.571  0.00  0.00    +0.000 A 
ATOM      9  C   UNL     1       3.148   7.903  17.572  0.00  0.00    +0.000 A 
ATOM     10  C   UNL     1       4.288   7.208  17.142  0.00  0.00    +0.000 A 
ATOM     11  C   UNL     1       4.649   5.981  17.718  0.00  0.00    +0.000 A 
ATOM     12  H   UNL     1       5.634   2.834  19.602  0.00  0.00    +0.000 HD
ENDROOT
BRANCH   1  14
ATOM     13  O   UNL     1       7.545   6.632  16.423  0.00  0.00    +0.000 OA
ATOM     14  C   UNL     1       6.847   5.631  16.274  0.00  0.00    +0.000 C 
ATOM     15  N   UNL     1       6.901   4.872  15.104  0.00  0.00    +0.000 N 
ATOM     16  C   UNL     1       7.941   5.174  14.113  0.00  0.00    +0.000 C 
ATOM     17  C   UNL     1       7.367   5.166  12.692  0.00  0.00    +0.000 C 
ATOM     18  O   UNL     1       6.716   3.918  12.406  0.00  0.00    +0.000 OA
ATOM     19  C   UNL     1       5.627   3.710  13.313  0.00  0.00    +0.000 C 
ATOM     20  C   UNL     1       6.106   3.680  14.761  0.00  0.00    +0.000 C 
ENDBRANCH   1  14
TORSDOF 1
ENDMDL
MODEL 6
REMARK VINA RESULT:      -6.7      2.135      5.435
REMARK  Name = 
REMARK  1 active torsions:
REMARK  status: ('A' for Active; 'I' for Inactive)
REMARK    1  A    between atoms: C_2  and  C_3
REMARK                            x       y       z     vdW  Elec       q    Type
REMARK                         _______ _______ _______ _____ _____    ______ ____
ROOT
ATOM      1  C   UNL     1       4.320   5.061  19.124  0.00  0.00    +0.000 A 
ATOM      2  C   UNL     1       4.006   6.347  19.379  0.00  0.00    +0.000 A 
ATOM      3  N   UNL     1       2.844   6.722  19.999  0.00  0.00    +0.000 N 
ATOM      4  C   UNL     1       1.845   5.850  20.350  0.00  0.00    +0.000 A 
ATOM      5  O   UNL     1       0.861   6.221  20.980  0.00  0.00    +0.000 OA
ATOM      6  C   UNL     1       2.015   4.449  19.895  0.00  0.00    +0.000 A 
ATOM      7  C   UNL     1       0.935   3.567  20.029  0.00  0.00    +0.000 A 
ATOM      8  C   UNL     1       1.045   2.266  19.553  0.00  0.00    +0.000 A 
ATOM      9  C   UNL     1       2.235   1.849  18.965  0.00  0.00    +0.000 A 
ATOM     10  C   UNL     1       3.321   2.729  18.846  0.00  0.00    +0.000 A 
ATOM     11  C   UNL     1       3.231   4.055  19.295  0.00  0.00    +0.000 A 
ATOM     12  H   UNL     1       2.701   7.683  20.284  0.00  0.00    +0.000 HD
ENDROOT
BRANCH   1  14
ATOM     13  O   UNL     1       6.626   4.597  19.330  0.00  0.00    +0.000 OA
ATOM     14  C   UNL     1       5.681   4.763  18.561  0.00  0.00    +0.000 C 
ATOM     15  N   UNL     1       5.849   4.711  17.177  0.00  0.00    +0.000 N 
ATOM     16  C   UNL     1       7.142   4.270  16.639  0.00  0.00    +0.000 C 
ATOM     17  C   UNL     1       7.588   5.163  15.476  0.00  0.00    +0.000 C 
ATOM     18  O   UNL     1       6.582   5.216  14.451  0.00  0.00    +0.000 OA
ATOM     19  C   UNL     1       5.369   5.766  14.978  0.00  0.00    +0.000 C 
ATOM     20  C   UNL     1       4.832   4.927  16.132  0.00  0.00    +0.000 C 
ENDBRANCH   1  14
TORSDOF 1
ENDMDL
MODEL 7
REMARK VINA RESULT:      -6.7      2.177      5.714
REMARK  Name = 
REMARK  1 active torsions:
REMARK  status: ('A' for Active; 'I' for Inactive)
REMARK    1  A    between atoms: C_2  and  C_3
REMARK                            x       y       z     vdW  Elec       q    Type
REMARK                         _______ _______ _______ _____ _____    ______ ____
ROOT
ATOM      1  C   UNL     1       4.689   4.063  19.364  0.00  0.00    +0.000 A 
ATOM      2  C   UNL     1       4.651   2.829  19.905  0.00  0.00    +0.000 A 
ATOM      3  N   UNL     1       3.525   2.302  20.480  0.00  0.00    +0.000 N 
ATOM      4  C   UNL     1       2.351   2.992  20.644  0.00  0.00    +0.000 A 
ATOM      5  O   UNL     1       1.345   2.449  21.087  0.00  0.00    +0.000 OA
ATOM      6  C   UNL     1       2.386   4.429  20.284  0.00  0.00    +0.000 A 
ATOM      7  C   UNL     1       1.293   5.233  20.633  0.00  0.00    +0.000 A 
ATOM      8  C   UNL     1       1.326   6.596  20.364  0.00  0.00    +0.000 A 
ATOM      9  C   UNL     1       2.439   7.144  19.733  0.00  0.00    +0.000 A 
ATOM     10  C   UNL     1       3.526   6.335  19.370  0.00  0.00    +0.000 A 
ATOM     11  C   UNL     1       3.531   4.960  19.651  0.00  0.00    +0.000 A 
ATOM     12  H   UNL     1       3.500   1.330  20.763  0.00  0.00    +0.000 HD
ENDROOT
BRANCH   1  14
ATOM     13  O   UNL     1       6.847   5.017  19.274  0.00  0.00    +0.000 OA
ATOM     14  C   UNL     1       5.939   4.481  18.642  0.00  0.00    +0.000 C 
ATOM     15  N   UNL     1       6.029   4.278  17.265  0.00  0.00    +0.000 N 
ATOM     16  C   UNL     1       7.308   4.548  16.594  0.00  0.00    +0.000 C 
ATOM     17  C   UNL     1       7.092   5.306  15.281  0.00  0.00    +0.000 C 
ATOM     18  O   UNL     1       6.186   4.598  14.419  0.00  0.00    +0.000 OA
ATOM     19  C   UNL     1       4.909   4.459  15.053  0.00  0.00    +0.000 C 
ATOM     20  C   UNL     1       5.019   3.692  16.366  0.00  0.00    +0.000 C 
ENDBRANCH   1  14
TORSDOF 1
ENDMDL
MODEL 8
REMARK VINA RESULT:      -6.5      2.328      5.511
REMARK  Name = 
REMARK  1 active torsions:
REMARK  status: ('A' for Active; 'I' for Inactive)
REMARK    1  A    between atoms: C_2  and  C_3
REMARK                            x       y       z     vdW  Elec       q    Type
REMARK                         _______ _______ _______ _____ _____    ______ ____
ROOT
ATOM      1  C   UNL     1       4.427   5.589  19.014  0.00  0.00    +0.000 A 
ATOM      2  C   UNL     1       3.763   6.731  18.748  0.00  0.00    +0.000 A 
ATOM      3  N   UNL     1       2.580   7.064  19.351  0.00  0.00    +0.000 N 
ATOM      4  C   UNL     1       1.903   6.245  20.220  0.00  0.00    +0.000 A 
ATOM      5  O   UNL     1       0.892   6.622  20.800  0.00  0.00    +0.000 OA
ATOM      6  C   UNL     1       2.452   4.878  20.385  0.00  0.00    +0.000 A 
ATOM      7  C   UNL     1       1.689   3.930  21.080  0.00  0.00    +0.000 A 
ATOM      8  C   UNL     1       2.150   2.625  21.195  0.00  0.00    +0.000 A 
ATOM      9  C   UNL     1       3.375   2.277  20.633  0.00  0.00    +0.000 A 
ATOM     10  C   UNL     1       4.145   3.231  19.951  0.00  0.00    +0.000 A 
ATOM     11  C   UNL     1       3.694   4.551  19.797  0.00  0.00    +0.000 A 
ATOM     12  H   UNL     1       2.176   7.983  19.219  0.00  0.00    +0.000 HD
ENDROOT
BRANCH   1  14
ATOM     13  O   UNL     1       6.775   5.833  18.968  0.00  0.00    +0.000 OA
ATOM     14  C   UNL     1       5.781   5.395  18.392  0.00  0.00    +0.000 C 
ATOM     15  N   UNL     1       5.878   4.749  17.160  0.00  0.00    +0.000 N 
ATOM     16  C   UNL     1       7.210   4.429  16.633  0.00  0.00    +0.000 C 
ATOM     17  C   UNL     1       7.306   4.758  15.140  0.00  0.00    +0.000 C 
ATOM     18  O   UNL     1       6.274   4.090  14.397  0.00  0.00    +0.000 OA
ATOM     19  C   UNL     1       4.984   4.517  14.851  0.00  0.00    +0.000 C 
ATOM     20  C   UNL     1       4.785   4.209  16.332  0.00  0.00    +0.000 C 
ENDBRANCH   1  14
TORSDOF 1
ENDMDL
MODEL 9
REMARK VINA RESULT:      -6.4      1.548      2.112
REMARK  Name = 
REMARK  1 active torsions:
REMARK  status: ('A' for Active; 'I' for Inactive)
REMARK    1  A    between atoms: C_2  and  C_3
REMARK                            x       y       z     vdW  Elec       q    Type
REMARK                         _______ _______ _______ _____ _____    ______ ____
ROOT
ATOM      1  C   UNL     1       4.394   4.997  18.204  0.00  0.00    +0.000 A 
ATOM      2  C   UNL     1       5.048   5.327  19.335  0.00  0.00    +0.000 A 
ATOM      3  N   UNL     1       6.333   5.803  19.342  0.00  0.00    +0.000 N 
ATOM      4  C   UNL     1       7.116   5.915  18.221  0.00  0.00    +0.000 A 
ATOM      5  O   UNL     1       8.229   6.425  18.266  0.00  0.00    +0.000 OA
ATOM      6  C   UNL     1       6.548   5.354  16.972  0.00  0.00    +0.000 A 
ATOM      7  C   UNL     1       7.381   5.238  15.851  0.00  0.00    +0.000 A 
ATOM      8  C   UNL     1       6.893   4.658  14.688  0.00  0.00    +0.000 A 
ATOM      9  C   UNL     1       5.574   4.215  14.642  0.00  0.00    +0.000 A 
ATOM     10  C   UNL     1       4.737   4.345  15.760  0.00  0.00    +0.000 A 
ATOM     11  C   UNL     1       5.209   4.905  16.957  0.00  0.00    +0.000 A 
ATOM     12  H   UNL     1       6.745   6.156  20.197  0.00  0.00    +0.000 HD
ENDROOT
BRANCH   1  14
ATOM     13  O   UNL     1       2.116   5.203  17.618  0.00  0.00    +0.000 OA
ATOM     14  C   UNL     1       2.945   4.615  18.310  0.00  0.00    +0.000 C 
ATOM     15  N   UNL     1       2.567   3.622  19.214  0.00  0.00    +0.000 N 
ATOM     16  C   UNL     1       1.177   3.149  19.204  0.00  0.00    +0.000 C 
ATOM     17  C   UNL     1       0.632   3.005  20.628  0.00  0.00    +0.000 C 
ATOM     18  O   UNL     1       1.473   2.147  21.417  0.00  0.00    +0.000 OA
ATOM     19  C   UNL     1       2.791   2.699  21.512  0.00  0.00    +0.000 C 
ATOM     20  C   UNL     1       3.428   2.860  20.136  0.00  0.00    +0.000 C 
ENDBRANCH   1  14
TORSDOF 1
ENDMDL
