MODEL 1
REMARK VINA RESULT:      -7.5      0.000      0.000
REMARK  Name = 
REMARK  3 active torsions:
REMARK  status: ('A' for Active; 'I' for Inactive)
REMARK    1  A    between atoms: C_1  and  C_2
REMARK    2  A    between atoms: C_2  and  C_4
REMARK    3  A    between atoms: C_5  and  C_6
REMARK                            x       y       z     vdW  Elec       q    Type
REMARK                         _______ _______ _______ _____ _____    ______ ____
ROOT
ATOM      1  C   UNL     1       3.095   5.378  17.748  0.00  0.00    +0.000 A 
ATOM      2  C   UNL     1       3.211   6.751  17.996  0.00  0.00    +0.000 A 
ATOM      3  N   UNL     1       4.431   7.140  17.486  0.00  0.00    +0.000 N 
ATOM      4  C   UNL     1       5.093   6.089  16.905  0.00  0.00    +0.000 A 
ATOM      5  C   UNL     1       6.332   6.059  16.247  0.00  0.00    +0.000 A 
ATOM      6  C   UNL     1       6.767   4.836  15.730  0.00  0.00    +0.000 A 
ATOM      7  C   UNL     1       5.992   3.688  15.868  0.00  0.00    +0.000 A 
ATOM      8  C   UNL     1       4.758   3.741  16.525  0.00  0.00    +0.000 A 
ATOM      9  C   UNL     1       4.292   4.960  17.065  0.00  0.00    +0.000 A 
ATOM     10  H   UNL     1       4.793   8.080  17.529  0.00  0.00    +0.000 HD
ENDROOT
BRANCH   2  11
ATOM     11  C   UNL     1       2.307   7.709  18.654  0.00  0.00    +0.000 A 
ATOM     12  C   UNL     1       1.746   8.776  17.939  0.00  0.00    +0.000 A 
ATOM     13  C   UNL     1       0.975   9.750  18.579  0.00  0.00    +0.000 A 
ATOM     14  C   UNL     1       0.718   9.648  19.942  0.00  0.00    +0.000 A 
ATOM     15  C   UNL     1       1.220   8.566  20.660  0.00  0.00    +0.000 A 
ATOM     16  C   UNL     1       2.012   7.604  20.023  0.00  0.00    +0.000 A 
ENDBRANCH   2  11
BRANCH   1  18
ATOM     17  C   UNL     1       1.786   4.057  19.508  0.00  0.00    +0.000 C 
ATOM     18  C   UNL     1       1.932   4.551  18.092  0.00  0.00    +0.000 C 
ATOM     19  O   UNL     1       1.076   4.249  17.260  0.00  0.00    +0.000 OA
ENDBRANCH   1  18
TORSDOF 2
ENDMDL
MODEL 2
REMARK VINA RESULT:      -7.4      0.084      1.137
REMARK  Name = 
REMARK  3 active torsions:
REMARK  status: ('A' for Active; 'I' for Inactive)
REMARK    1  A    between atoms: C_1  and  C_2
REMARK    2  A    between atoms: C_2  and  C_4
REMARK    3  A    between atoms: C_5  and  C_6
REMARK                            x       y       z     vdW  Elec       q    Type
REMARK                         _______ _______ _______ _____ _____    ______ ____
ROOT
ATOM      1  C   UNL     1       3.098   5.415  17.743  0.00  0.00    +0.000 A 
ATOM      2  C   UNL     1       3.248   6.786  17.982  0.00  0.00    +0.000 A 
ATOM      3  N   UNL     1       4.472   7.144  17.460  0.00  0.00    +0.000 N 
ATOM      4  C   UNL     1       5.106   6.074  16.881  0.00  0.00    +0.000 A 
ATOM      5  C   UNL     1       6.338   6.011  16.213  0.00  0.00    +0.000 A 
ATOM      6  C   UNL     1       6.740   4.775  15.700  0.00  0.00    +0.000 A 
ATOM      7  C   UNL     1       5.940   3.646  15.852  0.00  0.00    +0.000 A 
ATOM      8  C   UNL     1       4.713   3.732  16.518  0.00  0.00    +0.000 A 
ATOM      9  C   UNL     1       4.279   4.965  17.054  0.00  0.00    +0.000 A 
ATOM     10  H   UNL     1       4.857   8.076  17.493  0.00  0.00    +0.000 HD
ENDROOT
BRANCH   2  11
ATOM     11  C   UNL     1       2.372   7.769  18.640  0.00  0.00    +0.000 A 
ATOM     12  C   UNL     1       2.074   7.667  20.006  0.00  0.00    +0.000 A 
ATOM     13  C   UNL     1       1.160   8.530  20.615  0.00  0.00    +0.000 A 
ATOM     14  C   UNL     1       0.558   9.541  19.872  0.00  0.00    +0.000 A 
ATOM     15  C   UNL     1       0.882   9.695  18.527  0.00  0.00    +0.000 A 
ATOM     16  C   UNL     1       1.779   8.815  17.913  0.00  0.00    +0.000 A 
ENDBRANCH   2  11
BRANCH   1  18
ATOM     17  C   UNL     1       1.762   4.156  19.528  0.00  0.00    +0.000 C 
ATOM     18  C   UNL     1       1.919   4.617  18.102  0.00  0.00    +0.000 C 
ATOM     19  O   UNL     1       1.059   4.314  17.274  0.00  0.00    +0.000 OA
ENDBRANCH   1  18
TORSDOF 2
ENDMDL
MODEL 3
REMARK VINA RESULT:      -7.2      3.303      6.574
REMARK  Name = 
REMARK  3 active torsions:
REMARK  status: ('A' for Active; 'I' for Inactive)
REMARK    1  A    between atoms: C_1  and  C_2
REMARK    2  A    between atoms: C_2  and  C_4
REMARK    3  A    between atoms: C_5  and  C_6
REMARK                            x       y       z     vdW  Elec       q    Type
REMARK                         _______ _______ _______ _____ _____    ______ ____
ROOT
ATOM      1  C   UNL     1       5.838   4.778  17.106  0.00  0.00    +0.000 A 
ATOM      2  C   UNL     1       5.367   4.445  15.830  0.00  0.00    +0.000 A 
ATOM      3  N   UNL     1       4.018   4.194  15.963  0.00  0.00    +0.000 N 
ATOM      4  C   UNL     1       3.598   4.369  17.257  0.00  0.00    +0.000 A 
ATOM      5  C   UNL     1       2.314   4.250  17.810  0.00  0.00    +0.000 A 
ATOM      6  C   UNL     1       2.166   4.504  19.176  0.00  0.00    +0.000 A 
ATOM      7  C   UNL     1       3.262   4.859  19.958  0.00  0.00    +0.000 A 
ATOM      8  C   UNL     1       4.532   4.975  19.385  0.00  0.00    +0.000 A 
ATOM      9  C   UNL     1       4.718   4.720  18.008  0.00  0.00    +0.000 A 
ATOM     10  H   UNL     1       3.411   3.919  15.206  0.00  0.00    +0.000 HD
ENDROOT
BRANCH   2  11
ATOM     11  C   UNL     1       6.048   4.340  14.529  0.00  0.00    +0.000 A 
ATOM     12  C   UNL     1       7.172   5.125  14.239  0.00  0.00    +0.000 A 
ATOM     13  C   UNL     1       7.759   5.111  12.971  0.00  0.00    +0.000 A 
ATOM     14  C   UNL     1       7.252   4.276  11.980  0.00  0.00    +0.000 A 
ATOM     15  C   UNL     1       6.169   3.447  12.264  0.00  0.00    +0.000 A 
ATOM     16  C   UNL     1       5.569   3.480  13.527  0.00  0.00    +0.000 A 
ENDBRANCH   2  11
BRANCH   1  18
ATOM     17  C   UNL     1       7.525   6.602  17.724  0.00  0.00    +0.000 C 
ATOM     18  C   UNL     1       7.220   5.157  17.425  0.00  0.00    +0.000 C 
ATOM     19  O   UNL     1       8.133   4.331  17.457  0.00  0.00    +0.000 OA
ENDBRANCH   1  18
TORSDOF 2
ENDMDL
MODEL 4
REMARK VINA RESULT:      -7.2      3.454      6.582
REMARK  Name = 
REMARK  3 active torsions:
REMARK  status: ('A' for Active; 'I' for Inactive)
REMARK    1  A    between atoms: C_1  and  C_2
REMARK    2  A    between atoms: C_2  and  C_4
REMARK    3  A    between atoms: C_5  and  C_6
REMARK                            x       y       z     vdW  Elec       q    Type
REMARK                         _______ _______ _______ _____ _____    ______ ____
ROOT
ATOM      1  C   UNL     1       5.831   4.664  17.074  0.00  0.00    +0.000 A 
ATOM      2  C   UNL     1       5.331   4.395  15.794  0.00  0.00    +0.000 A 
ATOM      3  N   UNL     1       3.990   4.114  15.947  0.00  0.00    +0.000 N 
ATOM      4  C   UNL     1       3.602   4.209  17.260  0.00  0.00    +0.000 A 
ATOM      5  C   UNL     1       2.335   4.039  17.838  0.00  0.00    +0.000 A 
ATOM      6  C   UNL     1       2.220   4.213  19.220  0.00  0.00    +0.000 A 
ATOM      7  C   UNL     1       3.330   4.544  19.991  0.00  0.00    +0.000 A 
ATOM      8  C   UNL     1       4.583   4.712  19.394  0.00  0.00    +0.000 A 
ATOM      9  C   UNL     1       4.736   4.538  18.000  0.00  0.00    +0.000 A 
ATOM     10  H   UNL     1       3.368   3.872  15.192  0.00  0.00    +0.000 HD
ENDROOT
BRANCH   2  11
ATOM     11  C   UNL     1       5.978   4.374  14.472  0.00  0.00    +0.000 A 
ATOM     12  C   UNL     1       5.493   3.551  13.446  0.00  0.00    +0.000 A 
ATOM     13  C   UNL     1       6.163   3.445  12.225  0.00  0.00    +0.000 A 
ATOM     14  C   UNL     1       7.312   4.195  11.994  0.00  0.00    +0.000 A 
ATOM     15  C   UNL     1       7.780   5.060  12.980  0.00  0.00    +0.000 A 
ATOM     16  C   UNL     1       7.121   5.148  14.211  0.00  0.00    +0.000 A 
ENDBRANCH   2  11
BRANCH   1  18
ATOM     17  C   UNL     1       7.516   6.494  17.681  0.00  0.00    +0.000 C 
ATOM     18  C   UNL     1       7.214   5.048  17.378  0.00  0.00    +0.000 C 
ATOM     19  O   UNL     1       8.132   4.227  17.394  0.00  0.00    +0.000 OA
ENDBRANCH   1  18
TORSDOF 2
ENDMDL
MODEL 5
REMARK VINA RESULT:      -7.1      2.351      5.108
REMARK  Name = 
REMARK  3 active torsions:
REMARK  status: ('A' for Active; 'I' for Inactive)
REMARK    1  A    between atoms: C_1  and  C_2
REMARK    2  A    between atoms: C_2  and  C_4
REMARK    3  A    between atoms: C_5  and  C_6
REMARK                            x       y       z     vdW  Elec       q    Type
REMARK                         _______ _______ _______ _____ _____    ______ ____
ROOT
ATOM      1  C   UNL     1       3.341   5.345  18.741  0.00  0.00    +0.000 A 
ATOM      2  C   UNL     1       4.664   4.991  18.451  0.00  0.00    +0.000 A 
ATOM      3  N   UNL     1       4.684   3.620  18.314  0.00  0.00    +0.000 N 
ATOM      4  C   UNL     1       3.434   3.079  18.483  0.00  0.00    +0.000 A 
ATOM      5  C   UNL     1       3.012   1.744  18.394  0.00  0.00    +0.000 A 
ATOM      6  C   UNL     1       1.657   1.472  18.600  0.00  0.00    +0.000 A 
ATOM      7  C   UNL     1       0.761   2.498  18.886  0.00  0.00    +0.000 A 
ATOM      8  C   UNL     1       1.202   3.822  18.966  0.00  0.00    +0.000 A 
ATOM      9  C   UNL     1       2.566   4.131  18.769  0.00  0.00    +0.000 A 
ATOM     10  H   UNL     1       5.510   3.078  18.112  0.00  0.00    +0.000 HD
ENDROOT
BRANCH   2  11
ATOM     11  C   UNL     1       5.884   5.800  18.296  0.00  0.00    +0.000 A 
ATOM     12  C   UNL     1       6.974   5.632  19.160  0.00  0.00    +0.000 A 
ATOM     13  C   UNL     1       8.092   6.467  19.088  0.00  0.00    +0.000 A 
ATOM     14  C   UNL     1       8.154   7.463  18.118  0.00  0.00    +0.000 A 
ATOM     15  C   UNL     1       7.106   7.611  17.214  0.00  0.00    +0.000 A 
ATOM     16  C   UNL     1       5.977   6.789  17.303  0.00  0.00    +0.000 A 
ENDBRANCH   2  11
BRANCH   1  18
ATOM     17  C   UNL     1       2.771   7.629  17.735  0.00  0.00    +0.000 C 
ATOM     18  C   UNL     1       2.853   6.716  18.931  0.00  0.00    +0.000 C 
ATOM     19  O   UNL     1       2.509   7.140  20.035  0.00  0.00    +0.000 OA
ENDBRANCH   1  18
TORSDOF 2
ENDMDL
MODEL 6
REMARK VINA RESULT:      -7.1      3.065      4.390
REMARK  Name = 
REMARK  3 active torsions:
REMARK  status: ('A' for Active; 'I' for Inactive)
REMARK    1  A    between atoms: C_1  and  C_2
REMARK    2  A    between atoms: C_2  and  C_4
REMARK    3  A    between atoms: C_5  and  C_6
REMARK                            x       y       z     vdW  Elec       q    Type
REMARK                         _______ _______ _______ _____ _____    ______ ____
ROOT
ATOM      1  C   UNL     1       5.925   4.901  17.752  0.00  0.00    +0.000 A 
ATOM      2  C   UNL     1       4.658   4.342  17.952  0.00  0.00    +0.000 A 
ATOM      3  N   UNL     1       4.224   3.900  16.720  0.00  0.00    +0.000 N 
ATOM      4  C   UNL     1       5.160   4.131  15.744  0.00  0.00    +0.000 A 
ATOM      5  C   UNL     1       5.134   3.810  14.379  0.00  0.00    +0.000 A 
ATOM      6  C   UNL     1       6.246   4.152  13.606  0.00  0.00    +0.000 A 
ATOM      7  C   UNL     1       7.341   4.793  14.179  0.00  0.00    +0.000 A 
ATOM      8  C   UNL     1       7.348   5.101  15.543  0.00  0.00    +0.000 A 
ATOM      9  C   UNL     1       6.237   4.774  16.352  0.00  0.00    +0.000 A 
ATOM     10  H   UNL     1       3.333   3.459  16.554  0.00  0.00    +0.000 HD
ENDROOT
BRANCH   2  11
ATOM     11  C   UNL     1       3.832   4.190  19.162  0.00  0.00    +0.000 A 
ATOM     12  C   UNL     1       3.765   2.963  19.837  0.00  0.00    +0.000 A 
ATOM     13  C   UNL     1       2.903   2.780  20.921  0.00  0.00    +0.000 A 
ATOM     14  C   UNL     1       2.121   3.837  21.374  0.00  0.00    +0.000 A 
ATOM     15  C   UNL     1       2.213   5.079  20.751  0.00  0.00    +0.000 A 
ATOM     16  C   UNL     1       3.059   5.255  19.651  0.00  0.00    +0.000 A 
ENDBRANCH   2  11
BRANCH   1  18
ATOM     17  C   UNL     1       7.684   6.621  18.463  0.00  0.00    +0.000 C 
ATOM     18  C   UNL     1       6.778   5.466  18.805  0.00  0.00    +0.000 C 
ATOM     19  O   UNL     1       6.774   5.026  19.955  0.00  0.00    +0.000 OA
ENDBRANCH   1  18
TORSDOF 2
ENDMDL
MODEL 7
REMARK VINA RESULT:      -7.0      2.161      4.079
REMARK  Name = 
REMARK  3 active torsions:
REMARK  status: ('A' for Active; 'I' for Inactive)
REMARK    1  A    between atoms: C_1  and  C_2
REMARK    2  A    between atoms: C_2  and  C_4
REMARK    3  A    between atoms: C_5  and  C_6
REMARK                            x       y       z     vdW  Elec       q    Type
REMARK                         _______ _______ _______ _____ _____    ______ ____
ROOT
ATOM      1  C   UNL     1       3.809   5.364  17.805  0.00  0.00    +0.000 A 
ATOM      2  C   UNL     1       3.607   4.056  18.259  0.00  0.00    +0.000 A 
ATOM      3  N   UNL     1       4.341   3.234  17.432  0.00  0.00    +0.000 N 
ATOM      4  C   UNL     1       5.020   3.953  16.481  0.00  0.00    +0.000 A 
ATOM      5  C   UNL     1       5.898   3.515  15.478  0.00  0.00    +0.000 A 
ATOM      6  C   UNL     1       6.470   4.480  14.645  0.00  0.00    +0.000 A 
ATOM      7  C   UNL     1       6.174   5.830  14.809  0.00  0.00    +0.000 A 
ATOM      8  C   UNL     1       5.298   6.245  15.817  0.00  0.00    +0.000 A 
ATOM      9  C   UNL     1       4.698   5.295  16.674  0.00  0.00    +0.000 A 
ATOM     10  H   UNL     1       4.380   2.229  17.513  0.00  0.00    +0.000 HD
ENDROOT
BRANCH   2  11
ATOM     11  C   UNL     1       2.805   3.516  19.370  0.00  0.00    +0.000 A 
ATOM     12  C   UNL     1       1.406   3.596  19.353  0.00  0.00    +0.000 A 
ATOM     13  C   UNL     1       0.643   3.184  20.449  0.00  0.00    +0.000 A 
ATOM     14  C   UNL     1       1.270   2.644  21.568  0.00  0.00    +0.000 A 
ATOM     15  C   UNL     1       2.655   2.505  21.583  0.00  0.00    +0.000 A 
ATOM     16  C   UNL     1       3.419   2.940  20.494  0.00  0.00    +0.000 A 
ENDBRANCH   2  11
BRANCH   1  18
ATOM     17  C   UNL     1       2.852   7.722  17.528  0.00  0.00    +0.000 C 
ATOM     18  C   UNL     1       3.242   6.571  18.418  0.00  0.00    +0.000 C 
ATOM     19  O   UNL     1       3.077   6.670  19.635  0.00  0.00    +0.000 OA
ENDBRANCH   1  18
TORSDOF 2
ENDMDL
MODEL 8
REMARK VINA RESULT:      -7.0      2.907      4.638
REMARK  Name = 
REMARK  3 active torsions:
REMARK  status: ('A' for Active; 'I' for Inactive)
REMARK    1  A    between atoms: C_1  and  C_2
REMARK    2  A    between atoms: C_2  and  C_4
REMARK    3  A    between atoms: C_5  and  C_6
REMARK                            x       y       z     vdW  Elec       q    Type
REMARK                         _______ _______ _______ _____ _____    ______ ____
ROOT
ATOM      1  C   UNL     1       6.382   5.433  16.165  0.00  0.00    +0.000 A 
ATOM      2  C   UNL     1       5.204   4.778  16.543  0.00  0.00    +0.000 A 
ATOM      3  N   UNL     1       4.791   4.049  15.448  0.00  0.00    +0.000 N 
ATOM      4  C   UNL     1       5.657   4.190  14.393  0.00  0.00    +0.000 A 
ATOM      5  C   UNL     1       5.628   3.601  13.120  0.00  0.00    +0.000 A 
ATOM      6  C   UNL     1       6.661   3.914  12.233  0.00  0.00    +0.000 A 
ATOM      7  C   UNL     1       7.682   4.783  12.605  0.00  0.00    +0.000 A 
ATOM      8  C   UNL     1       7.693   5.356  13.881  0.00  0.00    +0.000 A 
ATOM      9  C   UNL     1       6.661   5.066  14.801  0.00  0.00    +0.000 A 
ATOM     10  H   UNL     1       3.960   3.479  15.422  0.00  0.00    +0.000 HD
ENDROOT
BRANCH   2  11
ATOM     11  C   UNL     1       4.446   4.772  17.805  0.00  0.00    +0.000 A 
ATOM     12  C   UNL     1       4.423   3.636  18.626  0.00  0.00    +0.000 A 
ATOM     13  C   UNL     1       3.621   3.585  19.768  0.00  0.00    +0.000 A 
ATOM     14  C   UNL     1       2.858   4.690  20.133  0.00  0.00    +0.000 A 
ATOM     15  C   UNL     1       2.909   5.848  19.361  0.00  0.00    +0.000 A 
ATOM     16  C   UNL     1       3.695   5.889  18.204  0.00  0.00    +0.000 A 
ENDBRANCH   2  11
BRANCH   1  18
ATOM     17  C   UNL     1       7.684   5.741  18.347  0.00  0.00    +0.000 C 
ATOM     18  C   UNL     1       7.188   6.296  17.037  0.00  0.00    +0.000 C 
ATOM     19  O   UNL     1       7.471   7.455  16.730  0.00  0.00    +0.000 OA
ENDBRANCH   1  18
TORSDOF 2
ENDMDL
MODEL 9
REMARK VINA RESULT:      -7.0      2.854      4.505
REMARK  Name = 
REMARK  3 active torsions:
REMARK  status: ('A' for Active; 'I' for Inactive)
REMARK    1  A    between atoms: C_1  and  C_2
REMARK    2  A    between atoms: C_2  and  C_4
REMARK    3  A    between atoms: C_5  and  C_6
REMARK                            x       y       z     vdW  Elec       q    Type
REMARK                         _______ _______ _______ _____ _____    ______ ____
ROOT
ATOM      1  C   UNL     1       6.319   5.416  16.112  0.00  0.00    +0.000 A 
ATOM      2  C   UNL     1       5.118   4.776  16.443  0.00  0.00    +0.000 A 
ATOM      3  N   UNL     1       4.735   4.060  15.329  0.00  0.00    +0.000 N 
ATOM      4  C   UNL     1       5.641   4.193  14.308  0.00  0.00    +0.000 A 
ATOM      5  C   UNL     1       5.650   3.612  13.031  0.00  0.00    +0.000 A 
ATOM      6  C   UNL     1       6.720   3.912  12.185  0.00  0.00    +0.000 A 
ATOM      7  C   UNL     1       7.740   4.764  12.600  0.00  0.00    +0.000 A 
ATOM      8  C   UNL     1       7.713   5.330  13.878  0.00  0.00    +0.000 A 
ATOM      9  C   UNL     1       6.643   5.051  14.758  0.00  0.00    +0.000 A 
ATOM     10  H   UNL     1       3.896   3.503  15.269  0.00  0.00    +0.000 HD
ENDROOT
BRANCH   2  11
ATOM     11  C   UNL     1       4.313   4.776  17.676  0.00  0.00    +0.000 A 
ATOM     12  C   UNL     1       3.528   5.884  18.023  0.00  0.00    +0.000 A 
ATOM     13  C   UNL     1       2.847   5.935  19.242  0.00  0.00    +0.000 A 
ATOM     14  C   UNL     1       2.907   4.856  20.118  0.00  0.00    +0.000 A 
ATOM     15  C   UNL     1       3.638   3.723  19.768  0.00  0.00    +0.000 A 
ATOM     16  C   UNL     1       4.338   3.683  18.558  0.00  0.00    +0.000 A 
ENDBRANCH   2  11
BRANCH   1  18
ATOM     17  C   UNL     1       7.611   5.667  18.309  0.00  0.00    +0.000 C 
ATOM     18  C   UNL     1       7.105   6.261  17.019  0.00  0.00    +0.000 C 
ATOM     19  O   UNL     1       7.363   7.436  16.757  0.00  0.00    +0.000 OA
ENDBRANCH   1  18
TORSDOF 2
ENDMDL
