MODEL 1
REMARK VINA RESULT:      -6.7      0.000      0.000
REMARK  Name = 
REMARK  7 active torsions:
REMARK  status: ('A' for Active; 'I' for Inactive)
REMARK    1  A    between atoms: C_1  and  O_2
REMARK    2  A    between atoms: O_2  and  C_3
REMARK    3  A    between atoms: C_3  and  C_5
REMARK    4  A    between atoms: C_5  and  C_6
REMARK    5  A    between atoms: C_12  and  C_13
REMARK    6  A    between atoms: C_13  and  O_15
REMARK    7  A    between atoms: O_15  and  C_16
REMARK                            x       y       z     vdW  Elec       q    Type
REMARK                         _______ _______ _______ _____ _____    ______ ____
ROOT
ATOM      1  C   UNL     1       3.351   4.993  18.266  0.00  0.00    +0.000 A 
ATOM      2  C   UNL     1       3.911   5.651  17.224  0.00  0.00    +0.000 A 
ATOM      3  C   UNL     1       3.705   7.100  17.018  0.00  0.00    +0.000 A 
ATOM      4  O   UNL     1       4.227   7.672  16.070  0.00  0.00    +0.000 OA
ATOM      5  N   UNL     1       2.892   7.694  17.942  0.00  0.00    +0.000 N 
ATOM      6  C   UNL     1       2.342   7.060  19.061  0.00  0.00    +0.000 A 
ATOM      7  C   UNL     1       2.565   5.741  19.282  0.00  0.00    +0.000 A 
ATOM      8  C   UNL     1       1.601   8.106  19.793  0.00  0.00    +0.000 A 
ATOM      9  N   UNL     1       0.895   7.970  20.917  0.00  0.00    +0.000 NA
ATOM     10  C   UNL     1       0.328   9.089  21.415  0.00  0.00    +0.000 A 
ATOM     11  C   UNL     1      -0.361   9.021  22.617  0.00  0.00    +0.000 A 
ATOM     12  C   UNL     1      -0.978  10.143  23.180  0.00  0.00    +0.000 A 
ATOM     13  C   UNL     1      -0.911  11.373  22.532  0.00  0.00    +0.000 A 
ATOM     14  C   UNL     1      -0.220  11.479  21.328  0.00  0.00    +0.000 A 
ATOM     15  C   UNL     1       0.407  10.352  20.767  0.00  0.00    +0.000 A 
ATOM     16  C   UNL     1       1.128  10.447  19.572  0.00  0.00    +0.000 A 
ATOM     17  C   UNL     1       1.735   9.304  19.096  0.00  0.00    +0.000 A 
ATOM     18  C   UNL     1       2.559   9.111  17.875  0.00  0.00    +0.000 C 
ENDROOT
BRANCH   7  19
ATOM     19  C   UNL     1       2.088   5.118  20.561  0.00  0.00    +0.000 C 
ATOM     20  O   UNL     1       2.712   5.115  21.610  0.00  0.00    +0.000 OA
BRANCH  19  21
ATOM     21  O   UNL     1       0.913   4.457  20.370  0.00  0.00    +0.000 OA
ATOM     22  C   UNL     1       0.949   3.079  20.759  0.00  0.00    +0.000 C 
ENDBRANCH  19  21
ENDBRANCH   7  19
BRANCH   1  23
ATOM     23  C   UNL     1       3.514   3.488  18.297  0.00  0.00    +0.000 C 
BRANCH  23  24
ATOM     24  C   UNL     1       4.657   3.092  19.226  0.00  0.00    +0.000 C 
ATOM     25  O   UNL     1       5.569   3.824  19.589  0.00  0.00    +0.000 OA
BRANCH  24  27
ATOM     26  C   UNL     1       3.630   1.036  18.799  0.00  0.00    +0.000 C 
ATOM     27  O   UNL     1       4.485   1.806  19.648  0.00  0.00    +0.000 OA
ENDBRANCH  24  27
ENDBRANCH  23  24
ENDBRANCH   1  23
TORSDOF 5
ENDMDL
MODEL 2
REMARK VINA RESULT:      -6.4      0.929      1.159
REMARK  Name = 
REMARK  7 active torsions:
REMARK  status: ('A' for Active; 'I' for Inactive)
REMARK    1  A    between atoms: C_1  and  O_2
REMARK    2  A    between atoms: O_2  and  C_3
REMARK    3  A    between atoms: C_3  and  C_5
REMARK    4  A    between atoms: C_5  and  C_6
REMARK    5  A    between atoms: C_12  and  C_13
REMARK    6  A    between atoms: C_13  and  O_15
REMARK    7  A    between atoms: O_15  and  C_16
REMARK                            x       y       z     vdW  Elec       q    Type
REMARK                         _______ _______ _______ _____ _____    ______ ____
ROOT
ATOM      1  C   UNL     1       3.448   5.051  18.375  0.00  0.00    +0.000 A 
ATOM      2  C   UNL     1       4.005   5.704  17.329  0.00  0.00    +0.000 A 
ATOM      3  C   UNL     1       3.769   7.144  17.096  0.00  0.00    +0.000 A 
ATOM      4  O   UNL     1       4.289   7.712  16.144  0.00  0.00    +0.000 OA
ATOM      5  N   UNL     1       2.933   7.735  18.000  0.00  0.00    +0.000 N 
ATOM      6  C   UNL     1       2.384   7.108  19.124  0.00  0.00    +0.000 A 
ATOM      7  C   UNL     1       2.634   5.798  19.369  0.00  0.00    +0.000 A 
ATOM      8  C   UNL     1       1.611   8.149  19.829  0.00  0.00    +0.000 A 
ATOM      9  N   UNL     1       0.895   8.016  20.947  0.00  0.00    +0.000 NA
ATOM     10  C   UNL     1       0.297   9.130  21.420  0.00  0.00    +0.000 A 
ATOM     11  C   UNL     1      -0.405   9.067  22.615  0.00  0.00    +0.000 A 
ATOM     12  C   UNL     1      -1.053  10.184  23.152  0.00  0.00    +0.000 A 
ATOM     13  C   UNL     1      -1.006  11.404  22.483  0.00  0.00    +0.000 A 
ATOM     14  C   UNL     1      -0.304  11.505  21.285  0.00  0.00    +0.000 A 
ATOM     15  C   UNL     1       0.355  10.384  20.751  0.00  0.00    +0.000 A 
ATOM     16  C   UNL     1       1.088  10.475  19.563  0.00  0.00    +0.000 A 
ATOM     17  C   UNL     1       1.726   9.338  19.114  0.00  0.00    +0.000 A 
ATOM     18  C   UNL     1       2.568   9.143  17.905  0.00  0.00    +0.000 C 
ENDROOT
BRANCH   7  19
ATOM     19  C   UNL     1       2.156   5.186  20.653  0.00  0.00    +0.000 C 
ATOM     20  O   UNL     1       2.764   5.222  21.712  0.00  0.00    +0.000 OA
BRANCH  19  21
ATOM     21  O   UNL     1       1.004   4.488  20.459  0.00  0.00    +0.000 OA
ATOM     22  C   UNL     1       1.039   3.150  20.972  0.00  0.00    +0.000 C 
ENDBRANCH  19  21
ENDBRANCH   7  19
BRANCH   1  23
ATOM     23  C   UNL     1       3.644   3.551  18.434  0.00  0.00    +0.000 C 
BRANCH  23  24
ATOM     24  C   UNL     1       2.498   2.834  17.728  0.00  0.00    +0.000 C 
ATOM     25  O   UNL     1       1.586   3.374  17.116  0.00  0.00    +0.000 OA
BRANCH  24  27
ATOM     26  C   UNL     1       3.796   1.106  18.623  0.00  0.00    +0.000 C 
ATOM     27  O   UNL     1       2.668   1.483  17.827  0.00  0.00    +0.000 OA
ENDBRANCH  24  27
ENDBRANCH  23  24
ENDBRANCH   1  23
TORSDOF 5
ENDMDL
MODEL 3
REMARK VINA RESULT:      -6.3      2.391      4.749
REMARK  Name = 
REMARK  7 active torsions:
REMARK  status: ('A' for Active; 'I' for Inactive)
REMARK    1  A    between atoms: C_1  and  O_2
REMARK    2  A    between atoms: O_2  and  C_3
REMARK    3  A    between atoms: C_3  and  C_5
REMARK    4  A    between atoms: C_5  and  C_6
REMARK    5  A    between atoms: C_12  and  C_13
REMARK    6  A    between atoms: C_13  and  O_15
REMARK    7  A    between atoms: O_15  and  C_16
REMARK                            x       y       z     vdW  Elec       q    Type
REMARK                         _______ _______ _______ _____ _____    ______ ____
ROOT
ATOM      1  C   UNL     1       5.930   4.596  17.587  0.00  0.00    +0.000 A 
ATOM      2  C   UNL     1       5.569   3.562  18.383  0.00  0.00    +0.000 A 
ATOM      3  C   UNL     1       4.431   3.664  19.320  0.00  0.00    +0.000 A 
ATOM      4  O   UNL     1       4.122   2.711  20.026  0.00  0.00    +0.000 OA
ATOM      5  N   UNL     1       3.809   4.880  19.327  0.00  0.00    +0.000 N 
ATOM      6  C   UNL     1       4.118   5.951  18.482  0.00  0.00    +0.000 A 
ATOM      7  C   UNL     1       5.131   5.849  17.587  0.00  0.00    +0.000 A 
ATOM      8  C   UNL     1       3.147   7.014  18.808  0.00  0.00    +0.000 A 
ATOM      9  N   UNL     1       3.063   8.233  18.272  0.00  0.00    +0.000 NA
ATOM     10  C   UNL     1       2.062   9.023  18.717  0.00  0.00    +0.000 A 
ATOM     11  C   UNL     1       1.884  10.275  18.148  0.00  0.00    +0.000 A 
ATOM     12  C   UNL     1       0.872  11.142  18.572  0.00  0.00    +0.000 A 
ATOM     13  C   UNL     1       0.009  10.758  19.594  0.00  0.00    +0.000 A 
ATOM     14  C   UNL     1       0.154   9.505  20.182  0.00  0.00    +0.000 A 
ATOM     15  C   UNL     1       1.166   8.630  19.749  0.00  0.00    +0.000 A 
ATOM     16  C   UNL     1       1.309   7.357  20.310  0.00  0.00    +0.000 A 
ATOM     17  C   UNL     1       2.310   6.546  19.818  0.00  0.00    +0.000 A 
ATOM     18  C   UNL     1       2.686   5.163  20.211  0.00  0.00    +0.000 C 
ENDROOT
BRANCH   7  19
ATOM     19  C   UNL     1       5.349   6.952  16.594  0.00  0.00    +0.000 C 
ATOM     20  O   UNL     1       4.997   6.919  15.425  0.00  0.00    +0.000 OA
BRANCH  19  21
ATOM     21  O   UNL     1       6.093   7.955  17.138  0.00  0.00    +0.000 OA
ATOM     22  C   UNL     1       7.469   7.613  17.347  0.00  0.00    +0.000 C 
ENDBRANCH  19  21
ENDBRANCH   7  19
BRANCH   1  23
ATOM     23  C   UNL     1       7.195   4.427  16.772  0.00  0.00    +0.000 C 
BRANCH  23  24
ATOM     24  C   UNL     1       6.864   4.307  15.288  0.00  0.00    +0.000 C 
ATOM     25  O   UNL     1       6.006   3.581  14.804  0.00  0.00    +0.000 OA
BRANCH  24  27
ATOM     26  C   UNL     1       7.499   5.026  13.156  0.00  0.00    +0.000 C 
ATOM     27  O   UNL     1       7.630   5.181  14.572  0.00  0.00    +0.000 OA
ENDBRANCH  24  27
ENDBRANCH  23  24
ENDBRANCH   1  23
TORSDOF 5
ENDMDL
MODEL 4
REMARK VINA RESULT:      -6.3      2.853      7.004
REMARK  Name = 
REMARK  7 active torsions:
REMARK  status: ('A' for Active; 'I' for Inactive)
REMARK    1  A    between atoms: C_1  and  O_2
REMARK    2  A    between atoms: O_2  and  C_3
REMARK    3  A    between atoms: C_3  and  C_5
REMARK    4  A    between atoms: C_5  and  C_6
REMARK    5  A    between atoms: C_12  and  C_13
REMARK    6  A    between atoms: C_13  and  O_15
REMARK    7  A    between atoms: O_15  and  C_16
REMARK                            x       y       z     vdW  Elec       q    Type
REMARK                         _______ _______ _______ _____ _____    ______ ____
ROOT
ATOM      1  C   UNL     1       0.715  10.824  20.158  0.00  0.00    +0.000 A 
ATOM      2  C   UNL     1       1.225  11.314  19.004  0.00  0.00    +0.000 A 
ATOM      3  C   UNL     1       2.010  10.469  18.081  0.00  0.00    +0.000 A 
ATOM      4  O   UNL     1       2.456  10.936  17.040  0.00  0.00    +0.000 OA
ATOM      5  N   UNL     1       2.192   9.183  18.504  0.00  0.00    +0.000 N 
ATOM      6  C   UNL     1       1.635   8.627  19.661  0.00  0.00    +0.000 A 
ATOM      7  C   UNL     1       0.875   9.384  20.489  0.00  0.00    +0.000 A 
ATOM      8  C   UNL     1       2.050   7.211  19.666  0.00  0.00    +0.000 A 
ATOM      9  N   UNL     1       1.773   6.283  20.585  0.00  0.00    +0.000 NA
ATOM     10  C   UNL     1       2.243   5.039  20.352  0.00  0.00    +0.000 A 
ATOM     11  C   UNL     1       1.929   4.020  21.238  0.00  0.00    +0.000 A 
ATOM     12  C   UNL     1       2.393   2.713  21.056  0.00  0.00    +0.000 A 
ATOM     13  C   UNL     1       3.194   2.405  19.960  0.00  0.00    +0.000 A 
ATOM     14  C   UNL     1       3.521   3.402  19.046  0.00  0.00    +0.000 A 
ATOM     15  C   UNL     1       3.047   4.714  19.225  0.00  0.00    +0.000 A 
ATOM     16  C   UNL     1       3.344   5.721  18.301  0.00  0.00    +0.000 A 
ATOM     17  C   UNL     1       2.824   6.978  18.532  0.00  0.00    +0.000 A 
ATOM     18  C   UNL     1       2.965   8.221  17.730  0.00  0.00    +0.000 C 
ENDROOT
BRANCH   7  19
ATOM     19  C   UNL     1       0.170   8.732  21.642  0.00  0.00    +0.000 C 
ATOM     20  O   UNL     1      -0.893   8.136  21.563  0.00  0.00    +0.000 OA
BRANCH  19  21
ATOM     21  O   UNL     1       0.816   8.987  22.813  0.00  0.00    +0.000 OA
ATOM     22  C   UNL     1      -0.021   9.551  23.830  0.00  0.00    +0.000 C 
ENDBRANCH  19  21
ENDBRANCH   7  19
BRANCH   1  23
ATOM     23  C   UNL     1       0.050  11.814  21.092  0.00  0.00    +0.000 C 
BRANCH  23  24
ATOM     24  C   UNL     1      -1.426  11.970  20.743  0.00  0.00    +0.000 C 
ATOM     25  O   UNL     1      -1.979  11.511  19.751  0.00  0.00    +0.000 OA
BRANCH  24  27
ATOM     26  C   UNL     1      -1.245  12.896  22.882  0.00  0.00    +0.000 C 
ATOM     27  O   UNL     1      -2.066  12.653  21.736  0.00  0.00    +0.000 OA
ENDBRANCH  24  27
ENDBRANCH  23  24
ENDBRANCH   1  23
TORSDOF 5
ENDMDL
MODEL 5
REMARK VINA RESULT:      -6.2      2.993      7.083
REMARK  Name = 
REMARK  7 active torsions:
REMARK  status: ('A' for Active; 'I' for Inactive)
REMARK    1  A    between atoms: C_1  and  O_2
REMARK    2  A    between atoms: O_2  and  C_3
REMARK    3  A    between atoms: C_3  and  C_5
REMARK    4  A    between atoms: C_5  and  C_6
REMARK    5  A    between atoms: C_12  and  C_13
REMARK    6  A    between atoms: C_13  and  O_15
REMARK    7  A    between atoms: O_15  and  C_16
REMARK                            x       y       z     vdW  Elec       q    Type
REMARK                         _______ _______ _______ _____ _____    ______ ____
ROOT
ATOM      1  C   UNL     1       0.637  10.754  20.098  0.00  0.00    +0.000 A 
ATOM      2  C   UNL     1       1.147  11.231  18.938  0.00  0.00    +0.000 A 
ATOM      3  C   UNL     1       1.973  10.389  18.048  0.00  0.00    +0.000 A 
ATOM      4  O   UNL     1       2.419  10.844  17.002  0.00  0.00    +0.000 OA
ATOM      5  N   UNL     1       2.191   9.121  18.507  0.00  0.00    +0.000 N 
ATOM      6  C   UNL     1       1.635   8.576  19.670  0.00  0.00    +0.000 A 
ATOM      7  C   UNL     1       0.839   9.328  20.468  0.00  0.00    +0.000 A 
ATOM      8  C   UNL     1       2.096   7.174  19.717  0.00  0.00    +0.000 A 
ATOM      9  N   UNL     1       1.836   6.262  20.656  0.00  0.00    +0.000 NA
ATOM     10  C   UNL     1       2.349   5.029  20.461  0.00  0.00    +0.000 A 
ATOM     11  C   UNL     1       2.056   4.022  21.369  0.00  0.00    +0.000 A 
ATOM     12  C   UNL     1       2.564   2.727  21.227  0.00  0.00    +0.000 A 
ATOM     13  C   UNL     1       3.391   2.418  20.151  0.00  0.00    +0.000 A 
ATOM     14  C   UNL     1       3.699   3.402  19.216  0.00  0.00    +0.000 A 
ATOM     15  C   UNL     1       3.180   4.702  19.354  0.00  0.00    +0.000 A 
ATOM     16  C   UNL     1       3.458   5.695  18.410  0.00  0.00    +0.000 A 
ATOM     17  C   UNL     1       2.894   6.939  18.601  0.00  0.00    +0.000 A 
ATOM     18  C   UNL     1       3.006   8.165  17.769  0.00  0.00    +0.000 C 
ENDROOT
BRANCH   7  19
ATOM     19  C   UNL     1       0.139   8.683  21.628  0.00  0.00    +0.000 C 
ATOM     20  O   UNL     1      -0.907   8.056  21.550  0.00  0.00    +0.000 OA
BRANCH  19  21
ATOM     21  O   UNL     1       0.764   8.981  22.800  0.00  0.00    +0.000 OA
ATOM     22  C   UNL     1      -0.088   9.593  23.776  0.00  0.00    +0.000 C 
ENDBRANCH  19  21
ENDBRANCH   7  19
BRANCH   1  23
ATOM     23  C   UNL     1      -0.073  11.744  20.996  0.00  0.00    +0.000 C 
BRANCH  23  24
ATOM     24  C   UNL     1       0.671  13.076  21.017  0.00  0.00    +0.000 C 
ATOM     25  O   UNL     1       1.770  13.273  21.519  0.00  0.00    +0.000 OA
BRANCH  24  27
ATOM     26  C   UNL     1       0.590  15.297  20.292  0.00  0.00    +0.000 C 
ATOM     27  O   UNL     1      -0.046  14.016  20.336  0.00  0.00    +0.000 OA
ENDBRANCH  24  27
ENDBRANCH  23  24
ENDBRANCH   1  23
TORSDOF 5
ENDMDL
MODEL 6
REMARK VINA RESULT:      -6.1      4.400      7.013
REMARK  Name = 
REMARK  7 active torsions:
REMARK  status: ('A' for Active; 'I' for Inactive)
REMARK    1  A    between atoms: C_1  and  O_2
REMARK    2  A    between atoms: O_2  and  C_3
REMARK    3  A    between atoms: C_3  and  C_5
REMARK    4  A    between atoms: C_5  and  C_6
REMARK    5  A    between atoms: C_12  and  C_13
REMARK    6  A    between atoms: C_13  and  O_15
REMARK    7  A    between atoms: O_15  and  C_16
REMARK                            x       y       z     vdW  Elec       q    Type
REMARK                         _______ _______ _______ _____ _____    ______ ____
ROOT
ATOM      1  C   UNL     1      -0.357  10.439  19.192  0.00  0.00    +0.000 A 
ATOM      2  C   UNL     1      -1.184  10.299  18.129  0.00  0.00    +0.000 A 
ATOM      3  C   UNL     1      -2.494  10.980  18.068  0.00  0.00    +0.000 A 
ATOM      4  O   UNL     1      -3.221  10.839  17.092  0.00  0.00    +0.000 OA
ATOM      5  N   UNL     1      -2.798  11.726  19.171  0.00  0.00    +0.000 N 
ATOM      6  C   UNL     1      -1.947  11.939  20.262  0.00  0.00    +0.000 A 
ATOM      7  C   UNL     1      -0.725  11.355  20.303  0.00  0.00    +0.000 A 
ATOM      8  C   UNL     1      -2.674  12.853  21.165  0.00  0.00    +0.000 A 
ATOM      9  N   UNL     1      -2.268  13.325  22.345  0.00  0.00    +0.000 NA
ATOM     10  C   UNL     1      -3.103  14.178  22.976  0.00  0.00    +0.000 A 
ATOM     11  C   UNL     1      -2.705  14.753  24.174  0.00  0.00    +0.000 A 
ATOM     12  C   UNL     1      -3.528  15.637  24.879  0.00  0.00    +0.000 A 
ATOM     13  C   UNL     1      -4.787  15.961  24.383  0.00  0.00    +0.000 A 
ATOM     14  C   UNL     1      -5.215  15.408  23.179  0.00  0.00    +0.000 A 
ATOM     15  C   UNL     1      -4.383  14.528  22.466  0.00  0.00    +0.000 A 
ATOM     16  C   UNL     1      -4.787  13.985  21.242  0.00  0.00    +0.000 A 
ATOM     17  C   UNL     1      -3.908  13.147  20.590  0.00  0.00    +0.000 A 
ATOM     18  C   UNL     1      -4.061  12.441  19.291  0.00  0.00    +0.000 C 
ENDROOT
BRANCH   7  19
ATOM     19  C   UNL     1       0.224  11.714  21.409  0.00  0.00    +0.000 C 
ATOM     20  O   UNL     1       0.801  12.785  21.513  0.00  0.00    +0.000 OA
BRANCH  19  21
ATOM     21  O   UNL     1       0.446  10.646  22.224  0.00  0.00    +0.000 OA
ATOM     22  C   UNL     1      -0.672  10.303  23.053  0.00  0.00    +0.000 C 
ENDBRANCH  19  21
ENDBRANCH   7  19
BRANCH   1  23
ATOM     23  C   UNL     1       0.893   9.585  19.209  0.00  0.00    +0.000 C 
BRANCH  23  24
ATOM     24  C   UNL     1       1.861  10.033  18.118  0.00  0.00    +0.000 C 
ATOM     25  O   UNL     1       2.316  11.161  17.985  0.00  0.00    +0.000 OA
BRANCH  24  27
ATOM     26  C   UNL     1       2.461   7.773  18.080  0.00  0.00    +0.000 C 
ATOM     27  O   UNL     1       2.200   8.966  17.336  0.00  0.00    +0.000 OA
ENDBRANCH  24  27
ENDBRANCH  23  24
ENDBRANCH   1  23
TORSDOF 5
ENDMDL
MODEL 7
REMARK VINA RESULT:      -6.1      5.372      7.638
REMARK  Name = 
REMARK  7 active torsions:
REMARK  status: ('A' for Active; 'I' for Inactive)
REMARK    1  A    between atoms: C_1  and  O_2
REMARK    2  A    between atoms: O_2  and  C_3
REMARK    3  A    between atoms: C_3  and  C_5
REMARK    4  A    between atoms: C_5  and  C_6
REMARK    5  A    between atoms: C_12  and  C_13
REMARK    6  A    between atoms: C_13  and  O_15
REMARK    7  A    between atoms: O_15  and  C_16
REMARK                            x       y       z     vdW  Elec       q    Type
REMARK                         _______ _______ _______ _____ _____    ______ ____
ROOT
ATOM      1  C   UNL     1      -0.822  10.357  18.561  0.00  0.00    +0.000 A 
ATOM      2  C   UNL     1      -1.253   9.835  17.389  0.00  0.00    +0.000 A 
ATOM      3  C   UNL     1      -2.607  10.114  16.865  0.00  0.00    +0.000 A 
ATOM      4  O   UNL     1      -2.970   9.633  15.799  0.00  0.00    +0.000 OA
ATOM      5  N   UNL     1      -3.374  10.908  17.669  0.00  0.00    +0.000 N 
ATOM      6  C   UNL     1      -2.945  11.510  18.857  0.00  0.00    +0.000 A 
ATOM      7  C   UNL     1      -1.690  11.296  19.320  0.00  0.00    +0.000 A 
ATOM      8  C   UNL     1      -4.086  12.316  19.333  0.00  0.00    +0.000 A 
ATOM      9  N   UNL     1      -4.154  13.056  20.443  0.00  0.00    +0.000 NA
ATOM     10  C   UNL     1      -5.303  13.734  20.649  0.00  0.00    +0.000 A 
ATOM     11  C   UNL     1      -5.407  14.572  21.749  0.00  0.00    +0.000 A 
ATOM     12  C   UNL     1      -6.573  15.293  22.022  0.00  0.00    +0.000 A 
ATOM     13  C   UNL     1      -7.675  15.181  21.178  0.00  0.00    +0.000 A 
ATOM     14  C   UNL     1      -7.602  14.355  20.060  0.00  0.00    +0.000 A 
ATOM     15  C   UNL     1      -6.426  13.638  19.781  0.00  0.00    +0.000 A 
ATOM     16  C   UNL     1      -6.327  12.825  18.647  0.00  0.00    +0.000 A 
ATOM     17  C   UNL     1      -5.134  12.170  18.428  0.00  0.00    +0.000 A 
ATOM     18  C   UNL     1      -4.744  11.260  17.320  0.00  0.00    +0.000 C 
ENDROOT
BRANCH   7  19
ATOM     19  C   UNL     1      -1.205  12.065  20.514  0.00  0.00    +0.000 C 
ATOM     20  O   UNL     1      -0.687  13.170  20.469  0.00  0.00    +0.000 OA
BRANCH  19  21
ATOM     21  O   UNL     1      -1.317  11.320  21.649  0.00  0.00    +0.000 OA
ATOM     22  C   UNL     1      -1.558  12.093  22.832  0.00  0.00    +0.000 C 
ENDBRANCH  19  21
ENDBRANCH   7  19
BRANCH   1  23
ATOM     23  C   UNL     1       0.526   9.891  19.067  0.00  0.00    +0.000 C 
BRANCH  23  24
ATOM     24  C   UNL     1       1.651  10.539  18.267  0.00  0.00    +0.000 C 
ATOM     25  O   UNL     1       2.033  11.697  18.378  0.00  0.00    +0.000 OA
BRANCH  24  27
ATOM     26  C   UNL     1       2.271   8.301  17.999  0.00  0.00    +0.000 C 
ATOM     27  O   UNL     1       2.220   9.616  17.438  0.00  0.00    +0.000 OA
ENDBRANCH  24  27
ENDBRANCH  23  24
ENDBRANCH   1  23
TORSDOF 5
ENDMDL
MODEL 8
REMARK VINA RESULT:      -6.1      2.481      4.901
REMARK  Name = 
REMARK  7 active torsions:
REMARK  status: ('A' for Active; 'I' for Inactive)
REMARK    1  A    between atoms: C_1  and  O_2
REMARK    2  A    between atoms: O_2  and  C_3
REMARK    3  A    between atoms: C_3  and  C_5
REMARK    4  A    between atoms: C_5  and  C_6
REMARK    5  A    between atoms: C_12  and  C_13
REMARK    6  A    between atoms: C_13  and  O_15
REMARK    7  A    between atoms: O_15  and  C_16
REMARK                            x       y       z     vdW  Elec       q    Type
REMARK                         _______ _______ _______ _____ _____    ______ ____
ROOT
ATOM      1  C   UNL     1       5.489   4.114  16.645  0.00  0.00    +0.000 A 
ATOM      2  C   UNL     1       5.078   2.869  16.981  0.00  0.00    +0.000 A 
ATOM      3  C   UNL     1       3.977   2.646  17.941  0.00  0.00    +0.000 A 
ATOM      4  O   UNL     1       3.621   1.509  18.224  0.00  0.00    +0.000 OA
ATOM      5  N   UNL     1       3.444   3.788  18.468  0.00  0.00    +0.000 N 
ATOM      6  C   UNL     1       3.805   5.091  18.105  0.00  0.00    +0.000 A 
ATOM      7  C   UNL     1       4.782   5.302  17.190  0.00  0.00    +0.000 A 
ATOM      8  C   UNL     1       2.922   5.983  18.882  0.00  0.00    +0.000 A 
ATOM      9  N   UNL     1       2.910   7.318  18.883  0.00  0.00    +0.000 NA
ATOM     10  C   UNL     1       1.982   7.914  19.661  0.00  0.00    +0.000 A 
ATOM     11  C   UNL     1       1.877   9.297  19.650  0.00  0.00    +0.000 A 
ATOM     12  C   UNL     1       0.942   9.975  20.439  0.00  0.00    +0.000 A 
ATOM     13  C   UNL     1       0.084   9.259  21.269  0.00  0.00    +0.000 A 
ATOM     14  C   UNL     1       0.156   7.869  21.298  0.00  0.00    +0.000 A 
ATOM     15  C   UNL     1       1.089   7.189  20.497  0.00  0.00    +0.000 A 
ATOM     16  C   UNL     1       1.157   5.792  20.494  0.00  0.00    +0.000 A 
ATOM     17  C   UNL     1       2.083   5.195  19.665  0.00  0.00    +0.000 A 
ATOM     18  C   UNL     1       2.370   3.752  19.452  0.00  0.00    +0.000 C 
ENDROOT
BRANCH   7  19
ATOM     19  C   UNL     1       5.050   6.699  16.710  0.00  0.00    +0.000 C 
ATOM     20  O   UNL     1       4.727   7.134  15.616  0.00  0.00    +0.000 OA
BRANCH  19  21
ATOM     21  O   UNL     1       5.801   7.387  17.614  0.00  0.00    +0.000 OA
ATOM     22  C   UNL     1       7.207   7.368  17.337  0.00  0.00    +0.000 C 
ENDBRANCH  19  21
ENDBRANCH   7  19
BRANCH   1  23
ATOM     23  C   UNL     1       6.715   4.219  15.763  0.00  0.00    +0.000 C 
BRANCH  23  24
ATOM     24  C   UNL     1       6.311   4.465  14.313  0.00  0.00    +0.000 C 
ATOM     25  O   UNL     1       5.271   4.090  13.787  0.00  0.00    +0.000 OA
BRANCH  24  27
ATOM     26  C   UNL     1       7.466   4.870  12.321  0.00  0.00    +0.000 C 
ATOM     27  O   UNL     1       7.259   5.225  13.691  0.00  0.00    +0.000 OA
ENDBRANCH  24  27
ENDBRANCH  23  24
ENDBRANCH   1  23
TORSDOF 5
ENDMDL
MODEL 9
REMARK VINA RESULT:      -6.1      3.616      7.649
REMARK  Name = 
REMARK  7 active torsions:
REMARK  status: ('A' for Active; 'I' for Inactive)
REMARK    1  A    between atoms: C_1  and  O_2
REMARK    2  A    between atoms: O_2  and  C_3
REMARK    3  A    between atoms: C_3  and  C_5
REMARK    4  A    between atoms: C_5  and  C_6
REMARK    5  A    between atoms: C_12  and  C_13
REMARK    6  A    between atoms: C_13  and  O_15
REMARK    7  A    between atoms: O_15  and  C_16
REMARK                            x       y       z     vdW  Elec       q    Type
REMARK                         _______ _______ _______ _____ _____    ______ ____
ROOT
ATOM      1  C   UNL     1      -0.669  11.639  21.362  0.00  0.00    +0.000 A 
ATOM      2  C   UNL     1      -0.678  12.492  20.311  0.00  0.00    +0.000 A 
ATOM      3  C   UNL     1       0.008  12.169  19.042  0.00  0.00    +0.000 A 
ATOM      4  O   UNL     1      -0.020  12.957  18.105  0.00  0.00    +0.000 OA
ATOM      5  N   UNL     1       0.659  10.968  19.039  0.00  0.00    +0.000 N 
ATOM      6  C   UNL     1       0.645  10.038  20.084  0.00  0.00    +0.000 A 
ATOM      7  C   UNL     1      -0.021  10.307  21.233  0.00  0.00    +0.000 A 
ATOM      8  C   UNL     1       1.424   8.880  19.602  0.00  0.00    +0.000 A 
ATOM      9  N   UNL     1       1.700   7.753  20.261  0.00  0.00    +0.000 NA
ATOM     10  C   UNL     1       2.411   6.819  19.593  0.00  0.00    +0.000 A 
ATOM     11  C   UNL     1       2.670   5.601  20.203  0.00  0.00    +0.000 A 
ATOM     12  C   UNL     1       3.407   4.598  19.567  0.00  0.00    +0.000 A 
ATOM     13  C   UNL     1       3.906   4.808  18.285  0.00  0.00    +0.000 A 
ATOM     14  C   UNL     1       3.658   6.016  17.639  0.00  0.00    +0.000 A 
ATOM     15  C   UNL     1       2.908   7.020  18.276  0.00  0.00    +0.000 A 
ATOM     16  C   UNL     1       2.626   8.229  17.632  0.00  0.00    +0.000 A 
ATOM     17  C   UNL     1       1.866   9.157  18.311  0.00  0.00    +0.000 A 
ATOM     18  C   UNL     1       1.411  10.505  17.880  0.00  0.00    +0.000 C 
ENDROOT
BRANCH   7  19
ATOM     19  C   UNL     1      -0.145   9.238  22.279  0.00  0.00    +0.000 C 
ATOM     20  O   UNL     1      -0.865   8.256  22.190  0.00  0.00    +0.000 OA
BRANCH  19  21
ATOM     21  O   UNL     1       0.568   9.564  23.393  0.00  0.00    +0.000 OA
ATOM     22  C   UNL     1       1.982   9.373  23.257  0.00  0.00    +0.000 C 
ENDBRANCH  19  21
ENDBRANCH   7  19
BRANCH   1  23
ATOM     23  C   UNL     1      -1.282  12.134  22.655  0.00  0.00    +0.000 C 
BRANCH  23  24
ATOM     24  C   UNL     1      -0.961  13.610  22.868  0.00  0.00    +0.000 C 
ATOM     25  O   UNL     1       0.160  14.099  22.914  0.00  0.00    +0.000 OA
BRANCH  24  27
ATOM     26  C   UNL     1      -3.076  13.778  23.852  0.00  0.00    +0.000 C 
ATOM     27  O   UNL     1      -2.120  14.328  22.941  0.00  0.00    +0.000 OA
ENDBRANCH  24  27
ENDBRANCH  23  24
ENDBRANCH   1  23
TORSDOF 5
ENDMDL
