MODEL 1
REMARK VINA RESULT:      -7.2      0.000      0.000
REMARK  Name = 
REMARK  8 active torsions:
REMARK  status: ('A' for Active; 'I' for Inactive)
REMARK    1  A    between atoms: C_1  and  C_2
REMARK    2  A    between atoms: C_2  and  O_3
REMARK    3  A    between atoms: O_3  and  C_4
REMARK    4  A    between atoms: C_10  and  C_12
REMARK    5  A    between atoms: C_12  and  S_13
REMARK    6  A    between atoms: S_13  and  C_14
REMARK    7  A    between atoms: C_14  and  C_15
REMARK    8  A    between atoms: C_20  and  C_21
REMARK                            x       y       z     vdW  Elec       q    Type
REMARK                         _______ _______ _______ _____ _____    ______ ____
ROOT
ATOM      1  S   UNL     1       1.554   3.562  19.956  0.00  0.00    +0.000 S 
ENDROOT
BRANCH   1   2
ATOM      2  C   UNL     1       1.847   5.205  20.719  0.00  0.00    +0.000 C 
BRANCH   2   9
ATOM      3  C   UNL     1       0.674  11.478  20.258  0.00  0.00    +0.000 C 
ATOM      4  O   UNL     1       0.851  12.252  19.328  0.00  0.00    +0.000 OA
ATOM      5  N   UNL     1       0.567  10.110  20.111  0.00  0.00    +0.000 N 
ATOM      6  C   UNL     1       0.780   9.508  18.798  0.00  0.00    +0.000 C 
ATOM      7  C   UNL     1       1.990   8.563  18.820  0.00  0.00    +0.000 C 
ATOM      8  N   UNL     1       1.862   7.577  19.903  0.00  0.00    +0.000 N 
ATOM      9  C   UNL     1       2.053   6.233  19.614  0.00  0.00    +0.000 C 
ATOM     10  O   UNL     1       2.352   5.849  18.476  0.00  0.00    +0.000 OA
ATOM     11  C   UNL     1       1.630   8.162  21.235  0.00  0.00    +0.000 C 
ATOM     12  C   UNL     1       0.459   9.162  21.223  0.00  0.00    +0.000 C 
BRANCH   3  13
ATOM     13  O   UNL     1       0.636  11.857  21.562  0.00  0.00    +0.000 OA
BRANCH  13  15
ATOM     14  C   UNL     1      -1.253  12.006  23.018  0.00  0.00    +0.000 C 
ATOM     15  C   UNL     1      -0.468  12.701  21.919  0.00  0.00    +0.000 C 
ENDBRANCH  13  15
ENDBRANCH   3  13
ENDBRANCH   2   9
ENDBRANCH   1   2
BRANCH   1  16
ATOM     16  C   UNL     1       3.241   2.888  20.039  0.00  0.00    +0.000 C 
BRANCH  16  17
ATOM     17  C   UNL     1       3.985   3.188  18.753  0.00  0.00    +0.000 C 
ATOM     18  O   UNL     1       3.767   2.513  17.750  0.00  0.00    +0.000 OA
ATOM     19  N   UNL     1       4.860   4.252  18.856  0.00  0.00    +0.000 N 
ATOM     20  C   UNL     1       5.570   4.664  17.763  0.00  0.00    +0.000 A 
ATOM     21  N   UNL     1       5.396   4.321  16.517  0.00  0.00    +0.000 NA
ATOM     22  C   UNL     1       6.425   4.819  15.744  0.00  0.00    +0.000 A 
ATOM     23  C   UNL     1       7.330   5.611  16.425  0.00  0.00    +0.000 A 
ATOM     24  S   UNL     1       6.855   5.736  18.078  0.00  0.00    +0.000 S 
ATOM     25  H   UNL     1       5.080   4.675  19.746  0.00  0.00    +0.000 HD
BRANCH  22  26
ATOM     26  C   UNL     1       6.506   4.451  14.295  0.00  0.00    +0.000 A 
ATOM     27  C   UNL     1       5.626   3.562  13.709  0.00  0.00    +0.000 A 
ATOM     28  C   UNL     1       5.927   3.332  12.335  0.00  0.00    +0.000 A 
ATOM     29  C   UNL     1       7.032   4.050  11.926  0.00  0.00    +0.000 A 
ATOM     30  S   UNL     1       7.670   5.017  13.187  0.00  0.00    +0.000 S 
ENDBRANCH  22  26
ENDBRANCH  16  17
ENDBRANCH   1  16
TORSDOF 7
ENDMDL
MODEL 2
REMARK VINA RESULT:      -6.9      6.780      9.700
REMARK  Name = 
REMARK  8 active torsions:
REMARK  status: ('A' for Active; 'I' for Inactive)
REMARK    1  A    between atoms: C_1  and  C_2
REMARK    2  A    between atoms: C_2  and  O_3
REMARK    3  A    between atoms: O_3  and  C_4
REMARK    4  A    between atoms: C_10  and  C_12
REMARK    5  A    between atoms: C_12  and  S_13
REMARK    6  A    between atoms: S_13  and  C_14
REMARK    7  A    between atoms: C_14  and  C_15
REMARK    8  A    between atoms: C_20  and  C_21
REMARK                            x       y       z     vdW  Elec       q    Type
REMARK                         _______ _______ _______ _____ _____    ______ ____
ROOT
ATOM      1  S   UNL     1       7.882   8.875  17.832  0.00  0.00    +0.000 S 
ENDROOT
BRANCH   1   2
ATOM      2  C   UNL     1       7.826   7.073  18.177  0.00  0.00    +0.000 C 
BRANCH   2   9
ATOM      3  C   UNL     1       2.305   3.841  18.053  0.00  0.00    +0.000 C 
ATOM      4  O   UNL     1       1.726   3.295  17.125  0.00  0.00    +0.000 OA
ATOM      5  N   UNL     1       3.654   4.133  18.055  0.00  0.00    +0.000 N 
ATOM      6  C   UNL     1       4.445   3.884  16.854  0.00  0.00    +0.000 C 
ATOM      7  C   UNL     1       5.024   5.195  16.300  0.00  0.00    +0.000 C 
ATOM      8  N   UNL     1       5.757   5.924  17.345  0.00  0.00    +0.000 N 
ATOM      9  C   UNL     1       7.038   6.384  17.070  0.00  0.00    +0.000 C 
ATOM     10  O   UNL     1       7.564   6.217  15.963  0.00  0.00    +0.000 OA
ATOM     11  C   UNL     1       4.982   6.171  18.573  0.00  0.00    +0.000 C 
ATOM     12  C   UNL     1       4.340   4.879  19.113  0.00  0.00    +0.000 C 
BRANCH   3  13
ATOM     13  O   UNL     1       1.681   4.302  19.169  0.00  0.00    +0.000 OA
BRANCH  13  15
ATOM     14  C   UNL     1       1.600   3.113  21.240  0.00  0.00    +0.000 C 
ATOM     15  C   UNL     1       0.928   3.320  19.894  0.00  0.00    +0.000 C 
ENDBRANCH  13  15
ENDBRANCH   3  13
ENDBRANCH   2   9
ENDBRANCH   1   2
BRANCH   1  16
ATOM     16  C   UNL     1       9.201   9.360  18.987  0.00  0.00    +0.000 C 
BRANCH  16  17
ATOM     17  C   UNL     1       9.376  10.865  18.975  0.00  0.00    +0.000 C 
ATOM     18  O   UNL     1       9.657  11.438  17.926  0.00  0.00    +0.000 OA
ATOM     19  N   UNL     1       9.173  11.455  20.208  0.00  0.00    +0.000 N 
ATOM     20  C   UNL     1       9.258  12.813  20.340  0.00  0.00    +0.000 A 
ATOM     21  N   UNL     1       9.303  13.710  19.394  0.00  0.00    +0.000 NA
ATOM     22  C   UNL     1       9.558  14.953  19.937  0.00  0.00    +0.000 A 
ATOM     23  C   UNL     1       9.623  14.980  21.317  0.00  0.00    +0.000 A 
ATOM     24  S   UNL     1       9.338  13.396  21.938  0.00  0.00    +0.000 S 
ATOM     25  H   UNL     1       9.073  10.907  21.049  0.00  0.00    +0.000 HD
BRANCH  22  26
ATOM     26  C   UNL     1       9.778  16.124  19.031  0.00  0.00    +0.000 A 
ATOM     27  C   UNL     1       9.383  17.404  19.368  0.00  0.00    +0.000 A 
ATOM     28  C   UNL     1       9.654  18.344  18.331  0.00  0.00    +0.000 A 
ATOM     29  C   UNL     1      10.239  17.743  17.236  0.00  0.00    +0.000 A 
ATOM     30  S   UNL     1      10.489  16.066  17.483  0.00  0.00    +0.000 S 
ENDBRANCH  22  26
ENDBRANCH  16  17
ENDBRANCH   1  16
TORSDOF 7
ENDMDL
MODEL 3
REMARK VINA RESULT:      -6.8      3.178      8.492
REMARK  Name = 
REMARK  8 active torsions:
REMARK  status: ('A' for Active; 'I' for Inactive)
REMARK    1  A    between atoms: C_1  and  C_2
REMARK    2  A    between atoms: C_2  and  O_3
REMARK    3  A    between atoms: O_3  and  C_4
REMARK    4  A    between atoms: C_10  and  C_12
REMARK    5  A    between atoms: C_12  and  S_13
REMARK    6  A    between atoms: S_13  and  C_14
REMARK    7  A    between atoms: C_14  and  C_15
REMARK    8  A    between atoms: C_20  and  C_21
REMARK                            x       y       z     vdW  Elec       q    Type
REMARK                         _______ _______ _______ _____ _____    ______ ____
ROOT
ATOM      1  S   UNL     1       1.300   4.628  19.490  0.00  0.00    +0.000 S 
ENDROOT
BRANCH   1   2
ATOM      2  C   UNL     1       2.320   3.111  19.661  0.00  0.00    +0.000 C 
BRANCH   2   9
ATOM      3  C   UNL     1       7.057   6.258  16.730  0.00  0.00    +0.000 C 
ATOM      4  O   UNL     1       7.626   6.029  15.672  0.00  0.00    +0.000 OA
ATOM      5  N   UNL     1       5.804   5.777  17.050  0.00  0.00    +0.000 N 
ATOM      6  C   UNL     1       5.135   4.851  16.141  0.00  0.00    +0.000 C 
ATOM      7  C   UNL     1       4.903   3.492  16.818  0.00  0.00    +0.000 C 
ATOM      8  N   UNL     1       4.205   3.662  18.101  0.00  0.00    +0.000 N 
ATOM      9  C   UNL     1       3.086   2.884  18.364  0.00  0.00    +0.000 C 
ATOM     10  O   UNL     1       2.679   2.037  17.559  0.00  0.00    +0.000 OA
ATOM     11  C   UNL     1       4.854   4.605  19.027  0.00  0.00    +0.000 C 
ATOM     12  C   UNL     1       5.153   5.956  18.351  0.00  0.00    +0.000 C 
BRANCH   3  13
ATOM     13  O   UNL     1       7.616   6.952  17.757  0.00  0.00    +0.000 OA
BRANCH  13  15
ATOM     14  C   UNL     1       8.645   8.929  18.616  0.00  0.00    +0.000 C 
ATOM     15  C   UNL     1       7.722   8.367  17.549  0.00  0.00    +0.000 C 
ENDBRANCH  13  15
ENDBRANCH   3  13
ENDBRANCH   2   9
ENDBRANCH   1   2
BRANCH   1  16
ATOM     16  C   UNL     1       2.021   5.626  20.829  0.00  0.00    +0.000 C 
BRANCH  16  17
ATOM     17  C   UNL     1       1.701   7.092  20.617  0.00  0.00    +0.000 C 
ATOM     18  O   UNL     1       2.183   7.688  19.657  0.00  0.00    +0.000 OA
ATOM     19  N   UNL     1       0.846   7.615  21.567  0.00  0.00    +0.000 N 
ATOM     20  C   UNL     1       0.437   8.916  21.480  0.00  0.00    +0.000 A 
ATOM     21  N   UNL     1       0.572   9.733  20.473  0.00  0.00    +0.000 NA
ATOM     22  C   UNL     1       0.181  11.004  20.843  0.00  0.00    +0.000 A 
ATOM     23  C   UNL     1      -0.326  11.103  22.125  0.00  0.00    +0.000 A 
ATOM     24  S   UNL     1      -0.319   9.547  22.869  0.00  0.00    +0.000 S 
ATOM     25  H   UNL     1       0.595   7.098  22.398  0.00  0.00    +0.000 HD
BRANCH  22  26
ATOM     26  C   UNL     1       0.363  12.141  19.887  0.00  0.00    +0.000 A 
ATOM     27  C   UNL     1       1.471  12.249  19.070  0.00  0.00    +0.000 A 
ATOM     28  C   UNL     1       1.447  13.436  18.281  0.00  0.00    +0.000 A 
ATOM     29  C   UNL     1       0.322  14.194  18.531  0.00  0.00    +0.000 A 
ATOM     30  S   UNL     1      -0.706  13.452  19.683  0.00  0.00    +0.000 S 
ENDBRANCH  22  26
ENDBRANCH  16  17
ENDBRANCH   1  16
TORSDOF 7
ENDMDL
MODEL 4
REMARK VINA RESULT:      -6.7      6.467      9.249
REMARK  Name = 
REMARK  8 active torsions:
REMARK  status: ('A' for Active; 'I' for Inactive)
REMARK    1  A    between atoms: C_1  and  C_2
REMARK    2  A    between atoms: C_2  and  O_3
REMARK    3  A    between atoms: O_3  and  C_4
REMARK    4  A    between atoms: C_10  and  C_12
REMARK    5  A    between atoms: C_12  and  S_13
REMARK    6  A    between atoms: S_13  and  C_14
REMARK    7  A    between atoms: C_14  and  C_15
REMARK    8  A    between atoms: C_20  and  C_21
REMARK                            x       y       z     vdW  Elec       q    Type
REMARK                         _______ _______ _______ _____ _____    ______ ____
ROOT
ATOM      1  S   UNL     1       7.523   8.219  17.524  0.00  0.00    +0.000 S 
ENDROOT
BRANCH   1   2
ATOM      2  C   UNL     1       7.508   6.406  17.812  0.00  0.00    +0.000 C 
BRANCH   2   9
ATOM      3  C   UNL     1       1.841   3.567  18.680  0.00  0.00    +0.000 C 
ATOM      4  O   UNL     1       1.078   3.054  17.873  0.00  0.00    +0.000 OA
ATOM      5  N   UNL     1       3.187   3.764  18.450  0.00  0.00    +0.000 N 
ATOM      6  C   UNL     1       3.746   3.450  17.139  0.00  0.00    +0.000 C 
ATOM      7  C   UNL     1       4.310   4.713  16.469  0.00  0.00    +0.000 C 
ATOM      8  N   UNL     1       5.256   5.397  17.362  0.00  0.00    +0.000 N 
ATOM      9  C   UNL     1       6.500   5.764  16.867  0.00  0.00    +0.000 C 
ATOM     10  O   UNL     1       6.820   5.552  15.691  0.00  0.00    +0.000 OA
ATOM     11  C   UNL     1       4.718   5.708  18.697  0.00  0.00    +0.000 C 
ATOM     12  C   UNL     1       4.091   4.469  19.363  0.00  0.00    +0.000 C 
BRANCH   3  13
ATOM     13  O   UNL     1       1.446   4.079  19.876  0.00  0.00    +0.000 OA
BRANCH  13  15
ATOM     14  C   UNL     1       2.107   2.749  21.747  0.00  0.00    +0.000 C 
ATOM     15  C   UNL     1       0.961   3.115  20.821  0.00  0.00    +0.000 C 
ENDBRANCH  13  15
ENDBRANCH   3  13
ENDBRANCH   2   9
ENDBRANCH   1   2
BRANCH   1  16
ATOM     16  C   UNL     1       8.615   8.730  18.885  0.00  0.00    +0.000 C 
BRANCH  16  17
ATOM     17  C   UNL     1       8.990  10.190  18.732  0.00  0.00    +0.000 C 
ATOM     18  O   UNL     1       8.207  10.967  18.191  0.00  0.00    +0.000 OA
ATOM     19  N   UNL     1      10.227  10.502  19.260  0.00  0.00    +0.000 N 
ATOM     20  C   UNL     1      10.681  11.791  19.231  0.00  0.00    +0.000 A 
ATOM     21  N   UNL     1      10.007  12.872  18.948  0.00  0.00    +0.000 NA
ATOM     22  C   UNL     1      10.864  13.950  18.861  0.00  0.00    +0.000 A 
ATOM     23  C   UNL     1      12.182  13.668  19.163  0.00  0.00    +0.000 A 
ATOM     24  S   UNL     1      12.333  12.002  19.582  0.00  0.00    +0.000 S 
ATOM     25  H   UNL     1      10.868   9.787  19.572  0.00  0.00    +0.000 HD
BRANCH  22  26
ATOM     26  C   UNL     1      10.335  15.281  18.425  0.00  0.00    +0.000 A 
ATOM     27  C   UNL     1       9.213  15.853  18.993  0.00  0.00    +0.000 A 
ATOM     28  C   UNL     1       8.874  17.096  18.386  0.00  0.00    +0.000 A 
ATOM     29  C   UNL     1       9.747  17.424  17.369  0.00  0.00    +0.000 A 
ATOM     30  S   UNL     1      10.982  16.252  17.183  0.00  0.00    +0.000 S 
ENDBRANCH  22  26
ENDBRANCH  16  17
ENDBRANCH   1  16
TORSDOF 7
ENDMDL
MODEL 5
REMARK VINA RESULT:      -6.7      3.112      8.795
REMARK  Name = 
REMARK  8 active torsions:
REMARK  status: ('A' for Active; 'I' for Inactive)
REMARK    1  A    between atoms: C_1  and  C_2
REMARK    2  A    between atoms: C_2  and  O_3
REMARK    3  A    between atoms: O_3  and  C_4
REMARK    4  A    between atoms: C_10  and  C_12
REMARK    5  A    between atoms: C_12  and  S_13
REMARK    6  A    between atoms: S_13  and  C_14
REMARK    7  A    between atoms: C_14  and  C_15
REMARK    8  A    between atoms: C_20  and  C_21
REMARK                            x       y       z     vdW  Elec       q    Type
REMARK                         _______ _______ _______ _____ _____    ______ ____
ROOT
ATOM      1  S   UNL     1       1.851   4.031  21.019  0.00  0.00    +0.000 S 
ENDROOT
BRANCH   1   2
ATOM      2  C   UNL     1       3.121   2.744  20.700  0.00  0.00    +0.000 C 
BRANCH   2   9
ATOM      3  C   UNL     1       6.712   5.820  16.390  0.00  0.00    +0.000 C 
ATOM      4  O   UNL     1       6.809   5.663  15.181  0.00  0.00    +0.000 OA
ATOM      5  N   UNL     1       5.629   5.404  17.136  0.00  0.00    +0.000 N 
ATOM      6  C   UNL     1       4.567   4.633  16.495  0.00  0.00    +0.000 C 
ATOM      7  C   UNL     1       4.461   3.231  17.113  0.00  0.00    +0.000 C 
ATOM      8  N   UNL     1       4.324   3.315  18.574  0.00  0.00    +0.000 N 
ATOM      9  C   UNL     1       3.309   2.599  19.196  0.00  0.00    +0.000 C 
ATOM     10  O   UNL     1       2.537   1.876  18.554  0.00  0.00    +0.000 OA
ATOM     11  C   UNL     1       5.375   4.101  19.240  0.00  0.00    +0.000 C 
ATOM     12  C   UNL     1       5.543   5.491  18.596  0.00  0.00    +0.000 C 
BRANCH   3  13
ATOM     13  O   UNL     1       7.691   6.356  17.165  0.00  0.00    +0.000 OA
BRANCH  13  15
ATOM     14  C   UNL     1       8.412   8.182  18.527  0.00  0.00    +0.000 C 
ATOM     15  C   UNL     1       7.683   7.787  17.254  0.00  0.00    +0.000 C 
ENDBRANCH  13  15
ENDBRANCH   3  13
ENDBRANCH   2   9
ENDBRANCH   1   2
BRANCH   1  16
ATOM     16  C   UNL     1       2.552   5.393  20.038  0.00  0.00    +0.000 C 
BRANCH  16  17
ATOM     17  C   UNL     1       1.770   6.668  20.283  0.00  0.00    +0.000 C 
ATOM     18  O   UNL     1       0.989   6.731  21.229  0.00  0.00    +0.000 OA
ATOM     19  N   UNL     1       2.051   7.672  19.378  0.00  0.00    +0.000 N 
ATOM     20  C   UNL     1       1.450   8.894  19.501  0.00  0.00    +0.000 A 
ATOM     21  N   UNL     1       0.767   9.354  20.512  0.00  0.00    +0.000 NA
ATOM     22  C   UNL     1       0.184  10.559  20.176  0.00  0.00    +0.000 A 
ATOM     23  C   UNL     1       0.512  11.030  18.919  0.00  0.00    +0.000 A 
ATOM     24  S   UNL     1       1.595   9.927  18.155  0.00  0.00    +0.000 S 
ATOM     25  H   UNL     1       2.607   7.503  18.552  0.00  0.00    +0.000 HD
BRANCH  22  26
ATOM     26  C   UNL     1      -0.752  11.220  21.139  0.00  0.00    +0.000 A 
ATOM     27  C   UNL     1      -0.804  10.875  22.475  0.00  0.00    +0.000 A 
ATOM     28  C   UNL     1      -1.801  11.605  23.184  0.00  0.00    +0.000 A 
ATOM     29  C   UNL     1      -2.479  12.478  22.358  0.00  0.00    +0.000 A 
ATOM     30  S   UNL     1      -1.885  12.434  20.753  0.00  0.00    +0.000 S 
ENDBRANCH  22  26
ENDBRANCH  16  17
ENDBRANCH   1  16
TORSDOF 7
ENDMDL
MODEL 6
REMARK VINA RESULT:      -6.5      3.490      6.069
REMARK  Name = 
REMARK  8 active torsions:
REMARK  status: ('A' for Active; 'I' for Inactive)
REMARK    1  A    between atoms: C_1  and  C_2
REMARK    2  A    between atoms: C_2  and  O_3
REMARK    3  A    between atoms: O_3  and  C_4
REMARK    4  A    between atoms: C_10  and  C_12
REMARK    5  A    between atoms: C_12  and  S_13
REMARK    6  A    between atoms: S_13  and  C_14
REMARK    7  A    between atoms: C_14  and  C_15
REMARK    8  A    between atoms: C_20  and  C_21
REMARK                            x       y       z     vdW  Elec       q    Type
REMARK                         _______ _______ _______ _____ _____    ______ ____
ROOT
ATOM      1  S   UNL     1       1.695  12.206  18.652  0.00  0.00    +0.000 S 
ENDROOT
BRANCH   1   2
ATOM      2  C   UNL     1       0.582  13.423  19.456  0.00  0.00    +0.000 C 
BRANCH   2   9
ATOM      3  C   UNL     1      -4.577  12.590  23.148  0.00  0.00    +0.000 C 
ATOM      4  O   UNL     1      -4.666  12.281  24.328  0.00  0.00    +0.000 OA
ATOM      5  N   UNL     1      -3.446  13.141  22.580  0.00  0.00    +0.000 N 
ATOM      6  C   UNL     1      -2.233  13.277  23.381  0.00  0.00    +0.000 C 
ATOM      7  C   UNL     1      -1.092  12.435  22.791  0.00  0.00    +0.000 C 
ATOM      8  N   UNL     1      -0.894  12.748  21.368  0.00  0.00    +0.000 N 
ATOM      9  C   UNL     1       0.387  13.027  20.914  0.00  0.00    +0.000 C 
ATOM     10  O   UNL     1       1.367  12.993  21.669  0.00  0.00    +0.000 OA
ATOM     11  C   UNL     1      -2.109  12.632  20.545  0.00  0.00    +0.000 C 
ATOM     12  C   UNL     1      -3.287  13.420  21.151  0.00  0.00    +0.000 C 
BRANCH   3  13
ATOM     13  O   UNL     1      -5.551  12.361  22.229  0.00  0.00    +0.000 OA
BRANCH  13  15
ATOM     14  C   UNL     1      -7.807  12.714  21.527  0.00  0.00    +0.000 C 
ATOM     15  C   UNL     1      -6.594  13.344  22.189  0.00  0.00    +0.000 C 
ENDBRANCH  13  15
ENDBRANCH   3  13
ENDBRANCH   2   9
ENDBRANCH   1   2
BRANCH   1  16
ATOM     16  C   UNL     1       0.752  10.683  18.969  0.00  0.00    +0.000 C 
BRANCH  16  17
ATOM     17  C   UNL     1       1.547   9.475  18.516  0.00  0.00    +0.000 C 
ATOM     18  O   UNL     1       2.041   9.457  17.391  0.00  0.00    +0.000 OA
ATOM     19  N   UNL     1       1.644   8.485  19.474  0.00  0.00    +0.000 N 
ATOM     20  C   UNL     1       2.366   7.353  19.220  0.00  0.00    +0.000 A 
ATOM     21  N   UNL     1       3.193   7.132  18.236  0.00  0.00    +0.000 NA
ATOM     22  C   UNL     1       3.586   5.810  18.239  0.00  0.00    +0.000 A 
ATOM     23  C   UNL     1       3.099   5.064  19.295  0.00  0.00    +0.000 A 
ATOM     24  S   UNL     1       2.134   6.067  20.313  0.00  0.00    +0.000 S 
ATOM     25  H   UNL     1       1.103   8.516  20.326  0.00  0.00    +0.000 HD
BRANCH  22  26
ATOM     26  C   UNL     1       4.442   5.291  17.125  0.00  0.00    +0.000 A 
ATOM     27  C   UNL     1       5.034   6.125  16.198  0.00  0.00    +0.000 A 
ATOM     28  C   UNL     1       5.761   5.402  15.208  0.00  0.00    +0.000 A 
ATOM     29  C   UNL     1       5.690   4.040  15.414  0.00  0.00    +0.000 A 
ATOM     30  S   UNL     1       4.782   3.650  16.813  0.00  0.00    +0.000 S 
ENDBRANCH  22  26
ENDBRANCH  16  17
ENDBRANCH   1  16
TORSDOF 7
ENDMDL
MODEL 7
REMARK VINA RESULT:      -6.4      2.968      8.204
REMARK  Name = 
REMARK  8 active torsions:
REMARK  status: ('A' for Active; 'I' for Inactive)
REMARK    1  A    between atoms: C_1  and  C_2
REMARK    2  A    between atoms: C_2  and  O_3
REMARK    3  A    between atoms: O_3  and  C_4
REMARK    4  A    between atoms: C_10  and  C_12
REMARK    5  A    between atoms: C_12  and  S_13
REMARK    6  A    between atoms: S_13  and  C_14
REMARK    7  A    between atoms: C_14  and  C_15
REMARK    8  A    between atoms: C_20  and  C_21
REMARK                            x       y       z     vdW  Elec       q    Type
REMARK                         _______ _______ _______ _____ _____    ______ ____
ROOT
ATOM      1  S   UNL     1       1.463   3.622  20.338  0.00  0.00    +0.000 S 
ENDROOT
BRANCH   1   2
ATOM      2  C   UNL     1       2.820   2.393  20.195  0.00  0.00    +0.000 C 
BRANCH   2   9
ATOM      3  C   UNL     1       6.707   5.992  16.608  0.00  0.00    +0.000 C 
ATOM      4  O   UNL     1       7.021   5.889  15.430  0.00  0.00    +0.000 OA
ATOM      5  N   UNL     1       5.569   5.434  17.152  0.00  0.00    +0.000 N 
ATOM      6  C   UNL     1       4.723   4.576  16.328  0.00  0.00    +0.000 C 
ATOM      7  C   UNL     1       4.674   3.149  16.895  0.00  0.00    +0.000 C 
ATOM      8  N   UNL     1       4.287   3.166  18.313  0.00  0.00    +0.000 N 
ATOM      9  C   UNL     1       3.271   2.323  18.742  0.00  0.00    +0.000 C 
ATOM     10  O   UNL     1       2.703   1.543  17.967  0.00  0.00    +0.000 OA
ATOM     11  C   UNL     1       5.118   4.038  19.161  0.00  0.00    +0.000 C 
ATOM     12  C   UNL     1       5.232   5.459  18.579  0.00  0.00    +0.000 C 
BRANCH   3  13
ATOM     13  O   UNL     1       7.477   6.602  17.547  0.00  0.00    +0.000 OA
BRANCH  13  15
ATOM     14  C   UNL     1       8.504   8.615  18.322  0.00  0.00    +0.000 C 
ATOM     15  C   UNL     1       7.263   8.014  17.686  0.00  0.00    +0.000 C 
ENDBRANCH  13  15
ENDBRANCH   3  13
ENDBRANCH   2   9
ENDBRANCH   1   2
BRANCH   1  16
ATOM     16  C   UNL     1       2.384   4.998  21.092  0.00  0.00    +0.000 C 
BRANCH  16  17
ATOM     17  C   UNL     1       1.739   6.319  20.724  0.00  0.00    +0.000 C 
ATOM     18  O   UNL     1       0.753   6.709  21.345  0.00  0.00    +0.000 OA
ATOM     19  N   UNL     1       2.375   6.976  19.690  0.00  0.00    +0.000 N 
ATOM     20  C   UNL     1       1.928   8.200  19.278  0.00  0.00    +0.000 A 
ATOM     21  N   UNL     1       1.071   8.983  19.872  0.00  0.00    +0.000 NA
ATOM     22  C   UNL     1       0.758  10.048  19.051  0.00  0.00    +0.000 A 
ATOM     23  C   UNL     1       1.461  10.087  17.862  0.00  0.00    +0.000 A 
ATOM     24  S   UNL     1       2.552   8.753  17.793  0.00  0.00    +0.000 S 
ATOM     25  H   UNL     1       3.100   6.533  19.144  0.00  0.00    +0.000 HD
BRANCH  22  26
ATOM     26  C   UNL     1      -0.302  11.018  19.471  0.00  0.00    +0.000 A 
ATOM     27  C   UNL     1      -0.271  11.663  20.691  0.00  0.00    +0.000 A 
ATOM     28  C   UNL     1      -1.407  12.502  20.888  0.00  0.00    +0.000 A 
ATOM     29  C   UNL     1      -2.267  12.459  19.810  0.00  0.00    +0.000 A 
ATOM     30  S   UNL     1      -1.681  11.441  18.563  0.00  0.00    +0.000 S 
ENDBRANCH  22  26
ENDBRANCH  16  17
ENDBRANCH   1  16
TORSDOF 7
ENDMDL
MODEL 8
REMARK VINA RESULT:      -6.4      0.955      1.166
REMARK  Name = 
REMARK  8 active torsions:
REMARK  status: ('A' for Active; 'I' for Inactive)
REMARK    1  A    between atoms: C_1  and  C_2
REMARK    2  A    between atoms: C_2  and  O_3
REMARK    3  A    between atoms: O_3  and  C_4
REMARK    4  A    between atoms: C_10  and  C_12
REMARK    5  A    between atoms: C_12  and  S_13
REMARK    6  A    between atoms: S_13  and  C_14
REMARK    7  A    between atoms: C_14  and  C_15
REMARK    8  A    between atoms: C_20  and  C_21
REMARK                            x       y       z     vdW  Elec       q    Type
REMARK                         _______ _______ _______ _____ _____    ______ ____
ROOT
ATOM      1  S   UNL     1       1.310   4.114  19.761  0.00  0.00    +0.000 S 
ENDROOT
BRANCH   1   2
ATOM      2  C   UNL     1       1.989   5.520  20.726  0.00  0.00    +0.000 C 
BRANCH   2   9
ATOM      3  C   UNL     1      -0.269  11.474  21.354  0.00  0.00    +0.000 C 
ATOM      4  O   UNL     1      -0.216  12.427  20.589  0.00  0.00    +0.000 OA
ATOM      5  N   UNL     1      -0.129  10.160  20.957  0.00  0.00    +0.000 N 
ATOM      6  C   UNL     1       0.208   9.859  19.568  0.00  0.00    +0.000 C 
ATOM      7  C   UNL     1       1.567   9.148  19.477  0.00  0.00    +0.000 C 
ATOM      8  N   UNL     1       1.597   7.970  20.356  0.00  0.00    +0.000 N 
ATOM      9  C   UNL     1       2.028   6.756  19.837  0.00  0.00    +0.000 C 
ATOM     10  O   UNL     1       2.409   6.649  18.665  0.00  0.00    +0.000 OA
ATOM     11  C   UNL     1       1.244   8.246  21.759  0.00  0.00    +0.000 C 
ATOM     12  C   UNL     1      -0.086   9.016  21.871  0.00  0.00    +0.000 C 
BRANCH   3  13
ATOM     13  O   UNL     1      -0.395  11.590  22.702  0.00  0.00    +0.000 OA
BRANCH  13  15
ATOM     14  C   UNL     1      -2.583  12.511  22.440  0.00  0.00    +0.000 C 
ATOM     15  C   UNL     1      -1.738  11.502  23.198  0.00  0.00    +0.000 C 
ENDBRANCH  13  15
ENDBRANCH   3  13
ENDBRANCH   2   9
ENDBRANCH   1   2
BRANCH   1  16
ATOM     16  C   UNL     1       2.764   3.021  19.760  0.00  0.00    +0.000 C 
BRANCH  16  17
ATOM     17  C   UNL     1       3.636   3.317  18.557  0.00  0.00    +0.000 C 
ATOM     18  O   UNL     1       3.487   2.671  17.522  0.00  0.00    +0.000 OA
ATOM     19  N   UNL     1       4.537   4.342  18.766  0.00  0.00    +0.000 N 
ATOM     20  C   UNL     1       5.363   4.747  17.754  0.00  0.00    +0.000 A 
ATOM     21  N   UNL     1       5.293   4.436  16.490  0.00  0.00    +0.000 NA
ATOM     22  C   UNL     1       6.409   4.908  15.828  0.00  0.00    +0.000 A 
ATOM     23  C   UNL     1       7.275   5.648  16.609  0.00  0.00    +0.000 A 
ATOM     24  S   UNL     1       6.653   5.759  18.213  0.00  0.00    +0.000 S 
ATOM     25  H   UNL     1       4.690   4.738  19.682  0.00  0.00    +0.000 HD
BRANCH  22  26
ATOM     26  C   UNL     1       6.611   4.565  14.384  0.00  0.00    +0.000 A 
ATOM     27  C   UNL     1       7.571   5.181  13.606  0.00  0.00    +0.000 A 
ATOM     28  C   UNL     1       7.546   4.726  12.256  0.00  0.00    +0.000 A 
ATOM     29  C   UNL     1       6.560   3.783  12.052  0.00  0.00    +0.000 A 
ATOM     30  S   UNL     1       5.703   3.431  13.493  0.00  0.00    +0.000 S 
ENDBRANCH  22  26
ENDBRANCH  16  17
ENDBRANCH   1  16
TORSDOF 7
ENDMDL
MODEL 9
REMARK VINA RESULT:      -6.3      3.100      5.069
REMARK  Name = 
REMARK  8 active torsions:
REMARK  status: ('A' for Active; 'I' for Inactive)
REMARK    1  A    between atoms: C_1  and  C_2
REMARK    2  A    between atoms: C_2  and  O_3
REMARK    3  A    between atoms: O_3  and  C_4
REMARK    4  A    between atoms: C_10  and  C_12
REMARK    5  A    between atoms: C_12  and  S_13
REMARK    6  A    between atoms: S_13  and  C_14
REMARK    7  A    between atoms: C_14  and  C_15
REMARK    8  A    between atoms: C_20  and  C_21
REMARK                            x       y       z     vdW  Elec       q    Type
REMARK                         _______ _______ _______ _____ _____    ______ ____
ROOT
ATOM      1  S   UNL     1       0.862   9.674  19.793  0.00  0.00    +0.000 S 
ENDROOT
BRANCH   1   2
ATOM      2  C   UNL     1      -0.533  10.130  20.895  0.00  0.00    +0.000 C 
BRANCH   2   9
ATOM      3  C   UNL     1      -3.951  14.787  23.646  0.00  0.00    +0.000 C 
ATOM      4  O   UNL     1      -4.457  15.791  23.164  0.00  0.00    +0.000 OA
ATOM      5  N   UNL     1      -3.611  13.668  22.914  0.00  0.00    +0.000 N 
ATOM      6  C   UNL     1      -3.751  13.690  21.461  0.00  0.00    +0.000 C 
ATOM      7  C   UNL     1      -2.386  13.514  20.778  0.00  0.00    +0.000 C 
ATOM      8  N   UNL     1      -1.701  12.316  21.283  0.00  0.00    +0.000 N 
ATOM      9  C   UNL     1      -1.177  11.408  20.373  0.00  0.00    +0.000 C 
ATOM     10  O   UNL     1      -1.251  11.595  19.152  0.00  0.00    +0.000 OA
ATOM     11  C   UNL     1      -1.563  12.265  22.748  0.00  0.00    +0.000 C 
ATOM     12  C   UNL     1      -2.910  12.501  23.457  0.00  0.00    +0.000 C 
BRANCH   3  13
ATOM     13  O   UNL     1      -3.588  14.673  24.951  0.00  0.00    +0.000 OA
BRANCH  13  15
ATOM     14  C   UNL     1      -1.305  15.352  25.141  0.00  0.00    +0.000 C 
ATOM     15  C   UNL     1      -2.746  15.726  25.442  0.00  0.00    +0.000 C 
ENDBRANCH  13  15
ENDBRANCH   3  13
ENDBRANCH   2   9
ENDBRANCH   1   2
BRANCH   1  16
ATOM     16  C   UNL     1       1.413   8.152  20.621  0.00  0.00    +0.000 C 
BRANCH  16  17
ATOM     17  C   UNL     1       2.291   7.341  19.690  0.00  0.00    +0.000 C 
ATOM     18  O   UNL     1       2.703   7.844  18.648  0.00  0.00    +0.000 OA
ATOM     19  N   UNL     1       2.557   6.066  20.150  0.00  0.00    +0.000 N 
ATOM     20  C   UNL     1       3.370   5.233  19.433  0.00  0.00    +0.000 A 
ATOM     21  N   UNL     1       4.142   5.537  18.427  0.00  0.00    +0.000 NA
ATOM     22  C   UNL     1       4.667   4.387  17.873  0.00  0.00    +0.000 A 
ATOM     23  C   UNL     1       4.334   3.221  18.536  0.00  0.00    +0.000 A 
ATOM     24  S   UNL     1       3.348   3.596  19.900  0.00  0.00    +0.000 S 
ATOM     25  H   UNL     1       2.078   5.679  20.950  0.00  0.00    +0.000 HD
BRANCH  22  26
ATOM     26  C   UNL     1       5.489   4.477  16.625  0.00  0.00    +0.000 A 
ATOM     27  C   UNL     1       5.172   3.775  15.479  0.00  0.00    +0.000 A 
ATOM     28  C   UNL     1       6.123   3.982  14.438  0.00  0.00    +0.000 A 
ATOM     29  C   UNL     1       7.137   4.831  14.832  0.00  0.00    +0.000 A 
ATOM     30  S   UNL     1       6.912   5.395  16.434  0.00  0.00    +0.000 S 
ENDBRANCH  22  26
ENDBRANCH  16  17
ENDBRANCH   1  16
TORSDOF 7
ENDMDL
