MODEL 1
REMARK VINA RESULT:      -6.0      0.000      0.000
REMARK  Name = 
REMARK  1 active torsions:
REMARK  status: ('A' for Active; 'I' for Inactive)
REMARK    1  A    between atoms: C_4  and  C_5
REMARK                            x       y       z     vdW  Elec       q    Type
REMARK                         _______ _______ _______ _____ _____    ______ ____
ROOT
ATOM      1  N   UNL     1       8.583   5.649  19.829  0.00  0.00    +0.000 N 
ATOM      2  C   UNL     1       7.486   5.624  19.055  0.00  0.00    +0.000 A 
ATOM      3  N   UNL     1       6.439   4.881  19.315  0.00  0.00    +0.000 NA
ATOM      4  C   UNL     1       5.472   5.055  18.336  0.00  0.00    +0.000 A 
ATOM      5  C   UNL     1       5.811   5.956  17.344  0.00  0.00    +0.000 A 
ATOM      6  S   UNL     1       7.384   6.572  17.629  0.00  0.00    +0.000 S 
ATOM      7  H   UNL     1       8.684   4.874  20.474  0.00  0.00    +0.000 HD
ATOM      8  H   UNL     1       9.449   5.969  19.416  0.00  0.00    +0.000 HD
ENDROOT
BRANCH   4   9
ATOM      9  C   UNL     1       4.196   4.350  18.396  0.00  0.00    +0.000 A 
ATOM     10  C   UNL     1       4.146   3.051  18.924  0.00  0.00    +0.000 A 
ATOM     11  C   UNL     1       2.932   2.361  19.007  0.00  0.00    +0.000 A 
ATOM     12  C   UNL     1       1.762   2.964  18.552  0.00  0.00    +0.000 A 
ATOM     13 CL   UNL     1       0.266   2.120  18.656  0.00  0.00    +0.000 Cl
ATOM     14  C   UNL     1       1.794   4.247  18.012  0.00  0.00    +0.000 A 
ATOM     15  C   UNL     1       3.008   4.937  17.933  0.00  0.00    +0.000 A 
ENDBRANCH   4   9
TORSDOF 1
ENDMDL
MODEL 2
REMARK VINA RESULT:      -5.9      0.173      1.341
REMARK  Name = 
REMARK  1 active torsions:
REMARK  status: ('A' for Active; 'I' for Inactive)
REMARK    1  A    between atoms: C_4  and  C_5
REMARK                            x       y       z     vdW  Elec       q    Type
REMARK                         _______ _______ _______ _____ _____    ______ ____
ROOT
ATOM      1  N   UNL     1       8.616   5.555  19.868  0.00  0.00    +0.000 N 
ATOM      2  C   UNL     1       7.487   5.572  19.142  0.00  0.00    +0.000 A 
ATOM      3  N   UNL     1       6.463   4.793  19.384  0.00  0.00    +0.000 NA
ATOM      4  C   UNL     1       5.452   5.027  18.465  0.00  0.00    +0.000 A 
ATOM      5  C   UNL     1       5.735   6.011  17.535  0.00  0.00    +0.000 A 
ATOM      6  S   UNL     1       7.310   6.630  17.803  0.00  0.00    +0.000 S 
ATOM      7  H   UNL     1       8.757   4.732  20.443  0.00  0.00    +0.000 HD
ATOM      8  H   UNL     1       9.459   5.922  19.446  0.00  0.00    +0.000 HD
ENDROOT
BRANCH   4   9
ATOM      9  C   UNL     1       4.190   4.298  18.521  0.00  0.00    +0.000 A 
ATOM     10  C   UNL     1       3.063   4.811  17.862  0.00  0.00    +0.000 A 
ATOM     11  C   UNL     1       1.845   4.123  17.888  0.00  0.00    +0.000 A 
ATOM     12  C   UNL     1       1.746   2.921  18.584  0.00  0.00    +0.000 A 
ATOM     13 CL   UNL     1       0.252   2.068  18.615  0.00  0.00    +0.000 Cl
ATOM     14  C   UNL     1       2.850   2.403  19.256  0.00  0.00    +0.000 A 
ATOM     15  C   UNL     1       4.068   3.091  19.226  0.00  0.00    +0.000 A 
ENDBRANCH   4   9
TORSDOF 1
ENDMDL
MODEL 3
REMARK VINA RESULT:      -5.9      4.011      5.543
REMARK  Name = 
REMARK  1 active torsions:
REMARK  status: ('A' for Active; 'I' for Inactive)
REMARK    1  A    between atoms: C_4  and  C_5
REMARK                            x       y       z     vdW  Elec       q    Type
REMARK                         _______ _______ _______ _____ _____    ______ ____
ROOT
ATOM      1  N   UNL     1       1.078   2.728  21.426  0.00  0.00    +0.000 N 
ATOM      2  C   UNL     1       1.644   3.089  20.263  0.00  0.00    +0.000 A 
ATOM      3  N   UNL     1       2.694   3.868  20.184  0.00  0.00    +0.000 NA
ATOM      4  C   UNL     1       3.042   4.073  18.857  0.00  0.00    +0.000 A 
ATOM      5  C   UNL     1       2.239   3.417  17.943  0.00  0.00    +0.000 A 
ATOM      6  S   UNL     1       1.007   2.554  18.762  0.00  0.00    +0.000 S 
ATOM      7  H   UNL     1       1.324   3.296  22.229  0.00  0.00    +0.000 HD
ATOM      8  H   UNL     1       0.116   2.416  21.410  0.00  0.00    +0.000 HD
ENDROOT
BRANCH   4   9
ATOM      9  C   UNL     1       4.190   4.895  18.492  0.00  0.00    +0.000 A 
ATOM     10  C   UNL     1       4.076   5.815  17.439  0.00  0.00    +0.000 A 
ATOM     11  C   UNL     1       5.158   6.626  17.079  0.00  0.00    +0.000 A 
ATOM     12  C   UNL     1       6.364   6.513  17.765  0.00  0.00    +0.000 A 
ATOM     13 CL   UNL     1       7.696   7.512  17.329  0.00  0.00    +0.000 Cl
ATOM     14  C   UNL     1       6.501   5.595  18.804  0.00  0.00    +0.000 A 
ATOM     15  C   UNL     1       5.417   4.788  19.164  0.00  0.00    +0.000 A 
ENDBRANCH   4   9
TORSDOF 1
ENDMDL
MODEL 4
REMARK VINA RESULT:      -5.9      1.974      2.082
REMARK  Name = 
REMARK  1 active torsions:
REMARK  status: ('A' for Active; 'I' for Inactive)
REMARK    1  A    between atoms: C_4  and  C_5
REMARK                            x       y       z     vdW  Elec       q    Type
REMARK                         _______ _______ _______ _____ _____    ______ ____
ROOT
ATOM      1  N   UNL     1       7.684   6.799  16.514  0.00  0.00    +0.000 N 
ATOM      2  C   UNL     1       6.786   5.802  16.551  0.00  0.00    +0.000 A 
ATOM      3  N   UNL     1       5.973   5.601  17.558  0.00  0.00    +0.000 NA
ATOM      4  C   UNL     1       5.173   4.495  17.317  0.00  0.00    +0.000 A 
ATOM      5  C   UNL     1       5.393   3.878  16.099  0.00  0.00    +0.000 A 
ATOM      6  S   UNL     1       6.648   4.684  15.256  0.00  0.00    +0.000 S 
ATOM      7  H   UNL     1       7.900   7.229  17.407  0.00  0.00    +0.000 HD
ATOM      8  H   UNL     1       8.475   6.705  15.891  0.00  0.00    +0.000 HD
ENDROOT
BRANCH   4   9
ATOM      9  C   UNL     1       4.166   4.061  18.280  0.00  0.00    +0.000 A 
ATOM     10  C   UNL     1       4.533   3.199  19.325  0.00  0.00    +0.000 A 
ATOM     11  C   UNL     1       3.590   2.781  20.270  0.00  0.00    +0.000 A 
ATOM     12  C   UNL     1       2.271   3.217  20.169  0.00  0.00    +0.000 A 
ATOM     13 CL   UNL     1       1.109   2.710  21.332  0.00  0.00    +0.000 Cl
ATOM     14  C   UNL     1       1.886   4.062  19.131  0.00  0.00    +0.000 A 
ATOM     15  C   UNL     1       2.831   4.481  18.189  0.00  0.00    +0.000 A 
ENDBRANCH   4   9
TORSDOF 1
ENDMDL
MODEL 5
REMARK VINA RESULT:      -5.8      3.998      5.351
REMARK  Name = 
REMARK  1 active torsions:
REMARK  status: ('A' for Active; 'I' for Inactive)
REMARK    1  A    between atoms: C_4  and  C_5
REMARK                            x       y       z     vdW  Elec       q    Type
REMARK                         _______ _______ _______ _____ _____    ______ ____
ROOT
ATOM      1  N   UNL     1       1.544   2.534  21.895  0.00  0.00    +0.000 N 
ATOM      2  C   UNL     1       1.891   3.032  20.697  0.00  0.00    +0.000 A 
ATOM      3  N   UNL     1       2.956   3.768  20.504  0.00  0.00    +0.000 NA
ATOM      4  C   UNL     1       3.046   4.145  19.172  0.00  0.00    +0.000 A 
ATOM      5  C   UNL     1       2.030   3.663  18.367  0.00  0.00    +0.000 A 
ATOM      6  S   UNL     1       0.928   2.746  19.305  0.00  0.00    +0.000 S 
ATOM      7  H   UNL     1       1.987   2.969  22.696  0.00  0.00    +0.000 HD
ATOM      8  H   UNL     1       0.579   2.269  22.039  0.00  0.00    +0.000 HD
ENDROOT
BRANCH   4   9
ATOM      9  C   UNL     1       4.154   4.960  18.687  0.00  0.00    +0.000 A 
ATOM     10  C   UNL     1       5.431   4.796  19.244  0.00  0.00    +0.000 A 
ATOM     11  C   UNL     1       6.513   5.555  18.785  0.00  0.00    +0.000 A 
ATOM     12  C   UNL     1       6.320   6.490  17.772  0.00  0.00    +0.000 A 
ATOM     13 CL   UNL     1       7.649   7.422  17.201  0.00  0.00    +0.000 Cl
ATOM     14  C   UNL     1       5.057   6.677  17.216  0.00  0.00    +0.000 A 
ATOM     15  C   UNL     1       3.977   5.915  17.674  0.00  0.00    +0.000 A 
ENDBRANCH   4   9
TORSDOF 1
ENDMDL
MODEL 6
REMARK VINA RESULT:      -5.8      4.081      5.197
REMARK  Name = 
REMARK  1 active torsions:
REMARK  status: ('A' for Active; 'I' for Inactive)
REMARK    1  A    between atoms: C_4  and  C_5
REMARK                            x       y       z     vdW  Elec       q    Type
REMARK                         _______ _______ _______ _____ _____    ______ ____
ROOT
ATOM      1  N   UNL     1       0.481   3.148  19.882  0.00  0.00    +0.000 N 
ATOM      2  C   UNL     1       1.504   3.964  19.580  0.00  0.00    +0.000 A 
ATOM      3  N   UNL     1       2.245   3.823  18.509  0.00  0.00    +0.000 NA
ATOM      4  C   UNL     1       3.227   4.802  18.472  0.00  0.00    +0.000 A 
ATOM      5  C   UNL     1       3.196   5.689  19.532  0.00  0.00    +0.000 A 
ATOM      6  S   UNL     1       1.932   5.268  20.609  0.00  0.00    +0.000 S 
ATOM      7  H   UNL     1       0.470   2.258  19.395  0.00  0.00    +0.000 HD
ATOM      8  H   UNL     1       0.175   3.104  20.845  0.00  0.00    +0.000 HD
ENDROOT
BRANCH   4   9
ATOM      9  C   UNL     1       4.181   4.879  17.371  0.00  0.00    +0.000 A 
ATOM     10  C   UNL     1       4.763   3.703  16.875  0.00  0.00    +0.000 A 
ATOM     11  C   UNL     1       5.669   3.749  15.810  0.00  0.00    +0.000 A 
ATOM     12  C   UNL     1       6.005   4.975  15.241  0.00  0.00    +0.000 A 
ATOM     13 CL   UNL     1       7.114   5.036  13.927  0.00  0.00    +0.000 Cl
ATOM     14  C   UNL     1       5.447   6.154  15.729  0.00  0.00    +0.000 A 
ATOM     15  C   UNL     1       4.539   6.106  16.792  0.00  0.00    +0.000 A 
ENDBRANCH   4   9
TORSDOF 1
ENDMDL
MODEL 7
REMARK VINA RESULT:      -5.8      2.024      2.335
REMARK  Name = 
REMARK  1 active torsions:
REMARK  status: ('A' for Active; 'I' for Inactive)
REMARK    1  A    between atoms: C_4  and  C_5
REMARK                            x       y       z     vdW  Elec       q    Type
REMARK                         _______ _______ _______ _____ _____    ______ ____
ROOT
ATOM      1  N   UNL     1       7.645   6.938  16.598  0.00  0.00    +0.000 N 
ATOM      2  C   UNL     1       6.807   5.890  16.665  0.00  0.00    +0.000 A 
ATOM      3  N   UNL     1       5.974   5.697  17.657  0.00  0.00    +0.000 NA
ATOM      4  C   UNL     1       5.250   4.532  17.457  0.00  0.00    +0.000 A 
ATOM      5  C   UNL     1       5.549   3.861  16.285  0.00  0.00    +0.000 A 
ATOM      6  S   UNL     1       6.782   4.694  15.435  0.00  0.00    +0.000 S 
ATOM      7  H   UNL     1       7.803   7.430  17.470  0.00  0.00    +0.000 HD
ATOM      8  H   UNL     1       8.461   6.857  16.006  0.00  0.00    +0.000 HD
ENDROOT
BRANCH   4   9
ATOM      9  C   UNL     1       4.238   4.092  18.411  0.00  0.00    +0.000 A 
ATOM     10  C   UNL     1       3.902   4.920  19.494  0.00  0.00    +0.000 A 
ATOM     11  C   UNL     1       2.924   4.528  20.415  0.00  0.00    +0.000 A 
ATOM     12  C   UNL     1       2.284   3.301  20.263  0.00  0.00    +0.000 A 
ATOM     13 CL   UNL     1       1.077   2.817  21.390  0.00  0.00    +0.000 Cl
ATOM     14  C   UNL     1       2.615   2.460  19.202  0.00  0.00    +0.000 A 
ATOM     15  C   UNL     1       3.590   2.855  18.281  0.00  0.00    +0.000 A 
ENDBRANCH   4   9
TORSDOF 1
ENDMDL
MODEL 8
REMARK VINA RESULT:      -5.8      1.807      1.913
REMARK  Name = 
REMARK  1 active torsions:
REMARK  status: ('A' for Active; 'I' for Inactive)
REMARK    1  A    between atoms: C_4  and  C_5
REMARK                            x       y       z     vdW  Elec       q    Type
REMARK                         _______ _______ _______ _____ _____    ______ ____
ROOT
ATOM      1  N   UNL     1       7.728   6.875  16.765  0.00  0.00    +0.000 N 
ATOM      2  C   UNL     1       6.880   5.868  16.502  0.00  0.00    +0.000 A 
ATOM      3  N   UNL     1       5.834   5.596  17.240  0.00  0.00    +0.000 NA
ATOM      4  C   UNL     1       5.157   4.498  16.731  0.00  0.00    +0.000 A 
ATOM      5  C   UNL     1       5.713   3.960  15.584  0.00  0.00    +0.000 A 
ATOM      6  S   UNL     1       7.125   4.831  15.157  0.00  0.00    +0.000 S 
ATOM      7  H   UNL     1       7.685   7.252  17.706  0.00  0.00    +0.000 HD
ATOM      8  H   UNL     1       8.660   6.828  16.373  0.00  0.00    +0.000 HD
ENDROOT
BRANCH   4   9
ATOM      9  C   UNL     1       3.942   3.995  17.361  0.00  0.00    +0.000 A 
ATOM     10  C   UNL     1       3.830   2.628  17.657  0.00  0.00    +0.000 A 
ATOM     11  C   UNL     1       2.681   2.124  18.276  0.00  0.00    +0.000 A 
ATOM     12  C   UNL     1       1.632   2.983  18.592  0.00  0.00    +0.000 A 
ATOM     13 CL   UNL     1       0.219   2.368  19.357  0.00  0.00    +0.000 Cl
ATOM     14  C   UNL     1       1.720   4.341  18.292  0.00  0.00    +0.000 A 
ATOM     15  C   UNL     1       2.871   4.844  17.677  0.00  0.00    +0.000 A 
ENDBRANCH   4   9
TORSDOF 1
ENDMDL
MODEL 9
REMARK VINA RESULT:      -5.7      3.895      5.095
REMARK  Name = 
REMARK  1 active torsions:
REMARK  status: ('A' for Active; 'I' for Inactive)
REMARK    1  A    between atoms: C_4  and  C_5
REMARK                            x       y       z     vdW  Elec       q    Type
REMARK                         _______ _______ _______ _____ _____    ______ ____
ROOT
ATOM      1  N   UNL     1       1.641   7.243  20.944  0.00  0.00    +0.000 N 
ATOM      2  C   UNL     1       2.173   6.224  20.250  0.00  0.00    +0.000 A 
ATOM      3  N   UNL     1       2.932   6.389  19.196  0.00  0.00    +0.000 NA
ATOM      4  C   UNL     1       3.322   5.160  18.686  0.00  0.00    +0.000 A 
ATOM      5  C   UNL     1       2.850   4.068  19.392  0.00  0.00    +0.000 A 
ATOM      6  S   UNL     1       1.876   4.594  20.699  0.00  0.00    +0.000 S 
ATOM      7  H   UNL     1       1.622   8.137  20.467  0.00  0.00    +0.000 HD
ATOM      8  H   UNL     1       0.828   7.056  21.517  0.00  0.00    +0.000 HD
ENDROOT
BRANCH   4   9
ATOM      9  C   UNL     1       4.187   5.062  17.516  0.00  0.00    +0.000 A 
ATOM     10  C   UNL     1       4.556   6.229  16.829  0.00  0.00    +0.000 A 
ATOM     11  C   UNL     1       5.398   6.163  15.713  0.00  0.00    +0.000 A 
ATOM     12  C   UNL     1       5.866   4.928  15.272  0.00  0.00    +0.000 A 
ATOM     13 CL   UNL     1       6.905   4.844  13.903  0.00  0.00    +0.000 Cl
ATOM     14  C   UNL     1       5.499   3.759  15.933  0.00  0.00    +0.000 A 
ATOM     15  C   UNL     1       4.660   3.826  17.051  0.00  0.00    +0.000 A 
ENDBRANCH   4   9
TORSDOF 1
ENDMDL
