MODEL 1
REMARK VINA RESULT:      -7.5      0.000      0.000
REMARK  Name = 
REMARK  7 active torsions:
REMARK  status: ('A' for Active; 'I' for Inactive)
REMARK    1  A    between atoms: C_1  and  C_2
REMARK    2  A    between atoms: C_2  and  N_3
REMARK    3  A    between atoms: C_2  and  C_15
REMARK    4  A    between atoms: C_4  and  C_6
REMARK    5  A    between atoms: C_9  and  N_10
REMARK    6  A    between atoms: N_10  and  C_11
REMARK    7  A    between atoms: N_10  and  C_12
REMARK                            x       y       z     vdW  Elec       q    Type
REMARK                         _______ _______ _______ _____ _____    ______ ____
ROOT
ATOM      1  N   UNL     1       4.791   3.062  19.008  0.00  0.00    +0.000 N 
ATOM      2  C   UNL     1       5.582   4.162  18.735  0.00  0.00    +0.000 C 
ATOM      3  O   UNL     1       6.021   4.924  19.583  0.00  0.00    +0.000 OA
ATOM      4  H   UNL     1       4.685   2.361  18.289  0.00  0.00    +0.000 HD
ENDROOT
BRANCH   2   5
ATOM      5  C   UNL     1       5.920   4.351  17.294  0.00  0.00    +0.000 A 
ATOM      6  C   UNL     1       4.994   4.060  16.293  0.00  0.00    +0.000 A 
ATOM      7  C   UNL     1       5.360   4.154  14.944  0.00  0.00    +0.000 A 
ATOM      8  C   UNL     1       6.642   4.559  14.536  0.00  0.00    +0.000 A 
ATOM      9  C   UNL     1       7.531   4.908  15.570  0.00  0.00    +0.000 A 
ATOM     10  C   UNL     1       7.182   4.811  16.929  0.00  0.00    +0.000 A 
BRANCH   8  11
ATOM     11  N   UNL     1       7.005   4.575  13.199  0.00  0.00    +0.000 N 
ATOM     12  C   UNL     1       8.059   5.448  12.688  0.00  0.00    +0.000 C 
ATOM     13  C   UNL     1       6.507   3.596  12.239  0.00  0.00    +0.000 C 
ENDBRANCH   8  11
ENDBRANCH   2   5
BRANCH   1  15
ATOM     14  C   UNL     1       5.111   1.388  20.759  0.00  0.00    +0.000 C 
ATOM     15  C   UNL     1       4.401   2.684  20.365  0.00  0.00    +0.000 C 
BRANCH  15  16
ATOM     16  C   UNL     1       2.867   2.530  20.449  0.00  0.00    +0.000 C 
ATOM     17  C   UNL     1       2.191   2.323  19.070  0.00  0.00    +0.000 C 
ATOM     18  C   UNL     1       1.144   3.446  19.022  0.00  0.00    +0.000 C 
ATOM     19  C   UNL     1       1.869   4.797  18.877  0.00  0.00    +0.000 C 
ATOM     20  C   UNL     1       2.426   5.045  20.287  0.00  0.00    +0.000 C 
ATOM     21  C   UNL     1       2.076   3.741  21.022  0.00  0.00    +0.000 C 
ATOM     22  C   UNL     1       0.669   3.484  20.472  0.00  0.00    +0.000 C 
ENDBRANCH  15  16
ENDBRANCH   1  15
TORSDOF 4
ENDMDL
MODEL 2
REMARK VINA RESULT:      -7.3      0.405      1.113
REMARK  Name = 
REMARK  7 active torsions:
REMARK  status: ('A' for Active; 'I' for Inactive)
REMARK    1  A    between atoms: C_1  and  C_2
REMARK    2  A    between atoms: C_2  and  N_3
REMARK    3  A    between atoms: C_2  and  C_15
REMARK    4  A    between atoms: C_4  and  C_6
REMARK    5  A    between atoms: C_9  and  N_10
REMARK    6  A    between atoms: N_10  and  C_11
REMARK    7  A    between atoms: N_10  and  C_12
REMARK                            x       y       z     vdW  Elec       q    Type
REMARK                         _______ _______ _______ _____ _____    ______ ____
ROOT
ATOM      1  N   UNL     1       4.747   3.032  18.877  0.00  0.00    +0.000 N 
ATOM      2  C   UNL     1       5.388   4.213  18.552  0.00  0.00    +0.000 C 
ATOM      3  O   UNL     1       5.566   5.138  19.329  0.00  0.00    +0.000 OA
ATOM      4  H   UNL     1       4.865   2.240  18.260  0.00  0.00    +0.000 HD
ENDROOT
BRANCH   2   5
ATOM      5  C   UNL     1       5.908   4.282  17.155  0.00  0.00    +0.000 A 
ATOM      6  C   UNL     1       7.148   4.854  16.875  0.00  0.00    +0.000 A 
ATOM      7  C   UNL     1       7.577   4.993  15.549  0.00  0.00    +0.000 A 
ATOM      8  C   UNL     1       6.810   4.555  14.456  0.00  0.00    +0.000 A 
ATOM      9  C   UNL     1       5.594   3.924  14.777  0.00  0.00    +0.000 A 
ATOM     10  C   UNL     1       5.144   3.783  16.103  0.00  0.00    +0.000 A 
BRANCH   8  11
ATOM     11  N   UNL     1       7.221   4.770  13.150  0.00  0.00    +0.000 N 
ATOM     12  C   UNL     1       8.272   5.726  12.811  0.00  0.00    +0.000 C 
ATOM     13  C   UNL     1       6.780   3.931  12.041  0.00  0.00    +0.000 C 
ENDBRANCH   8  11
ENDBRANCH   2   5
BRANCH   1  15
ATOM     14  C   UNL     1       4.983   1.588  20.834  0.00  0.00    +0.000 C 
ATOM     15  C   UNL     1       4.220   2.759  20.212  0.00  0.00    +0.000 C 
BRANCH  15  16
ATOM     16  C   UNL     1       2.707   2.461  20.129  0.00  0.00    +0.000 C 
ATOM     17  C   UNL     1       2.213   2.165  18.691  0.00  0.00    +0.000 C 
ATOM     18  C   UNL     1       1.079   3.182  18.494  0.00  0.00    +0.000 C 
ATOM     19  C   UNL     1       1.687   4.593  18.393  0.00  0.00    +0.000 C 
ATOM     20  C   UNL     1       2.055   4.918  19.848  0.00  0.00    +0.000 C 
ATOM     21  C   UNL     1       1.747   3.601  20.576  0.00  0.00    +0.000 C 
ATOM     22  C   UNL     1       0.441   3.200  19.881  0.00  0.00    +0.000 C 
ENDBRANCH  15  16
ENDBRANCH   1  15
TORSDOF 4
ENDMDL
MODEL 3
REMARK VINA RESULT:      -7.1      3.791      7.562
REMARK  Name = 
REMARK  7 active torsions:
REMARK  status: ('A' for Active; 'I' for Inactive)
REMARK    1  A    between atoms: C_1  and  C_2
REMARK    2  A    between atoms: C_2  and  N_3
REMARK    3  A    between atoms: C_2  and  C_15
REMARK    4  A    between atoms: C_4  and  C_6
REMARK    5  A    between atoms: C_9  and  N_10
REMARK    6  A    between atoms: N_10  and  C_11
REMARK    7  A    between atoms: N_10  and  C_12
REMARK                            x       y       z     vdW  Elec       q    Type
REMARK                         _______ _______ _______ _____ _____    ______ ____
ROOT
ATOM      1  N   UNL     1       3.367   5.622  18.169  0.00  0.00    +0.000 N 
ATOM      2  C   UNL     1       3.195   6.960  17.865  0.00  0.00    +0.000 C 
ATOM      3  O   UNL     1       3.674   7.513  16.887  0.00  0.00    +0.000 OA
ATOM      4  H   UNL     1       2.742   5.202  18.842  0.00  0.00    +0.000 HD
ENDROOT
BRANCH   2   5
ATOM      5  C   UNL     1       2.321   7.712  18.813  0.00  0.00    +0.000 A 
ATOM      6  C   UNL     1       1.750   8.932  18.453  0.00  0.00    +0.000 A 
ATOM      7  C   UNL     1       1.009   9.667  19.388  0.00  0.00    +0.000 A 
ATOM      8  C   UNL     1       0.789   9.216  20.701  0.00  0.00    +0.000 A 
ATOM      9  C   UNL     1       1.323   7.951  21.010  0.00  0.00    +0.000 A 
ATOM     10  C   UNL     1       2.076   7.204  20.086  0.00  0.00    +0.000 A 
BRANCH   8  11
ATOM     11  N   UNL     1       0.116   9.992  21.630  0.00  0.00    +0.000 N 
ATOM     12  C   UNL     1      -0.170   9.517  22.982  0.00  0.00    +0.000 C 
ATOM     13  C   UNL     1      -0.187  11.401  21.403  0.00  0.00    +0.000 C 
ENDBRANCH   8  11
ENDBRANCH   2   5
BRANCH   1  15
ATOM     14  C   UNL     1       3.342   3.436  17.079  0.00  0.00    +0.000 C 
ATOM     15  C   UNL     1       4.144   4.714  17.329  0.00  0.00    +0.000 C 
BRANCH  15  16
ATOM     16  C   UNL     1       5.498   4.402  18.002  0.00  0.00    +0.000 C 
ATOM     17  C   UNL     1       5.859   5.383  19.146  0.00  0.00    +0.000 C 
ATOM     18  C   UNL     1       7.241   5.910  18.732  0.00  0.00    +0.000 C 
ATOM     19  C   UNL     1       7.080   6.822  17.502  0.00  0.00    +0.000 C 
ATOM     20  C   UNL     1       6.847   5.824  16.358  0.00  0.00    +0.000 C 
ATOM     21  C   UNL     1       6.760   4.479  17.096  0.00  0.00    +0.000 C 
ATOM     22  C   UNL     1       7.878   4.659  18.130  0.00  0.00    +0.000 C 
ENDBRANCH  15  16
ENDBRANCH   1  15
TORSDOF 4
ENDMDL
MODEL 4
REMARK VINA RESULT:      -7.1      3.875      7.597
REMARK  Name = 
REMARK  7 active torsions:
REMARK  status: ('A' for Active; 'I' for Inactive)
REMARK    1  A    between atoms: C_1  and  C_2
REMARK    2  A    between atoms: C_2  and  N_3
REMARK    3  A    between atoms: C_2  and  C_15
REMARK    4  A    between atoms: C_4  and  C_6
REMARK    5  A    between atoms: C_9  and  N_10
REMARK    6  A    between atoms: N_10  and  C_11
REMARK    7  A    between atoms: N_10  and  C_12
REMARK                            x       y       z     vdW  Elec       q    Type
REMARK                         _______ _______ _______ _____ _____    ______ ____
ROOT
ATOM      1  N   UNL     1       3.266   5.688  18.245  0.00  0.00    +0.000 N 
ATOM      2  C   UNL     1       3.095   7.016  17.897  0.00  0.00    +0.000 C 
ATOM      3  O   UNL     1       3.504   7.516  16.861  0.00  0.00    +0.000 OA
ATOM      4  H   UNL     1       2.690   5.311  18.984  0.00  0.00    +0.000 HD
ENDROOT
BRANCH   2   5
ATOM      5  C   UNL     1       2.314   7.826  18.878  0.00  0.00    +0.000 A 
ATOM      6  C   UNL     1       2.090   7.367  20.175  0.00  0.00    +0.000 A 
ATOM      7  C   UNL     1       1.277   8.097  21.052  0.00  0.00    +0.000 A 
ATOM      8  C   UNL     1       0.675   9.314  20.687  0.00  0.00    +0.000 A 
ATOM      9  C   UNL     1       0.975   9.780  19.393  0.00  0.00    +0.000 A 
ATOM     10  C   UNL     1       1.782   9.055  18.499  0.00  0.00    +0.000 A 
BRANCH   8  11
ATOM     11  N   UNL     1      -0.184   9.982  21.544  0.00  0.00    +0.000 N 
ATOM     12  C   UNL     1      -0.311   9.626  22.955  0.00  0.00    +0.000 C 
ATOM     13  C   UNL     1      -0.881  11.205  21.160  0.00  0.00    +0.000 C 
ENDBRANCH   8  11
ENDBRANCH   2   5
BRANCH   1  15
ATOM     14  C   UNL     1       3.098   3.471  17.232  0.00  0.00    +0.000 C 
ATOM     15  C   UNL     1       3.956   4.728  17.386  0.00  0.00    +0.000 C 
BRANCH  15  16
ATOM     16  C   UNL     1       5.341   4.391  17.980  0.00  0.00    +0.000 C 
ATOM     17  C   UNL     1       5.763   5.333  19.136  0.00  0.00    +0.000 C 
ATOM     18  C   UNL     1       7.125   5.869  18.671  0.00  0.00    +0.000 C 
ATOM     19  C   UNL     1       6.906   6.822  17.480  0.00  0.00    +0.000 C 
ATOM     20  C   UNL     1       6.611   5.862  16.317  0.00  0.00    +0.000 C 
ATOM     21  C   UNL     1       6.556   4.494  17.015  0.00  0.00    +0.000 C 
ATOM     22  C   UNL     1       7.725   4.637  17.997  0.00  0.00    +0.000 C 
ENDBRANCH  15  16
ENDBRANCH   1  15
TORSDOF 4
ENDMDL
MODEL 5
REMARK VINA RESULT:      -7.1      4.454      6.779
REMARK  Name = 
REMARK  7 active torsions:
REMARK  status: ('A' for Active; 'I' for Inactive)
REMARK    1  A    between atoms: C_1  and  C_2
REMARK    2  A    between atoms: C_2  and  N_3
REMARK    3  A    between atoms: C_2  and  C_15
REMARK    4  A    between atoms: C_4  and  C_6
REMARK    5  A    between atoms: C_9  and  N_10
REMARK    6  A    between atoms: N_10  and  C_11
REMARK    7  A    between atoms: N_10  and  C_12
REMARK                            x       y       z     vdW  Elec       q    Type
REMARK                         _______ _______ _______ _____ _____    ______ ____
ROOT
ATOM      1  N   UNL     1       3.324   6.336  19.197  0.00  0.00    +0.000 N 
ATOM      2  C   UNL     1       2.278   6.767  19.992  0.00  0.00    +0.000 C 
ATOM      3  O   UNL     1       1.819   6.135  20.931  0.00  0.00    +0.000 OA
ATOM      4  H   UNL     1       3.794   7.017  18.617  0.00  0.00    +0.000 HD
ENDROOT
BRANCH   2   5
ATOM      5  C   UNL     1       1.748   8.120  19.653  0.00  0.00    +0.000 A 
ATOM      6  C   UNL     1       1.035   8.869  20.588  0.00  0.00    +0.000 A 
ATOM      7  C   UNL     1       0.465  10.096  20.223  0.00  0.00    +0.000 A 
ATOM      8  C   UNL     1       0.596  10.636  18.932  0.00  0.00    +0.000 A 
ATOM      9  C   UNL     1       1.376   9.885  18.032  0.00  0.00    +0.000 A 
ATOM     10  C   UNL     1       1.948   8.648  18.381  0.00  0.00    +0.000 A 
BRANCH   8  11
ATOM     11  N   UNL     1      -0.037  11.814  18.571  0.00  0.00    +0.000 N 
ATOM     12  C   UNL     1      -1.476  11.881  18.324  0.00  0.00    +0.000 C 
ATOM     13  C   UNL     1       0.638  13.107  18.597  0.00  0.00    +0.000 C 
ENDBRANCH   8  11
ENDBRANCH   2   5
BRANCH   1  15
ATOM     14  C   UNL     1       5.514   5.253  19.220  0.00  0.00    +0.000 C 
ATOM     15  C   UNL     1       4.008   5.063  19.410  0.00  0.00    +0.000 C 
BRANCH  15  16
ATOM     16  C   UNL     1       3.451   3.998  18.441  0.00  0.00    +0.000 C 
ATOM     17  C   UNL     1       2.063   4.361  17.855  0.00  0.00    +0.000 C 
ATOM     18  C   UNL     1       1.202   3.141  18.216  0.00  0.00    +0.000 C 
ATOM     19  C   UNL     1       0.968   3.129  19.739  0.00  0.00    +0.000 C 
ATOM     20  C   UNL     1       2.316   2.647  20.294  0.00  0.00    +0.000 C 
ATOM     21  C   UNL     1       3.195   2.583  19.035  0.00  0.00    +0.000 C 
ATOM     22  C   UNL     1       2.196   1.998  18.030  0.00  0.00    +0.000 C 
ENDBRANCH  15  16
ENDBRANCH   1  15
TORSDOF 4
ENDMDL
MODEL 6
REMARK VINA RESULT:      -7.0      4.489      6.703
REMARK  Name = 
REMARK  7 active torsions:
REMARK  status: ('A' for Active; 'I' for Inactive)
REMARK    1  A    between atoms: C_1  and  C_2
REMARK    2  A    between atoms: C_2  and  N_3
REMARK    3  A    between atoms: C_2  and  C_15
REMARK    4  A    between atoms: C_4  and  C_6
REMARK    5  A    between atoms: C_9  and  N_10
REMARK    6  A    between atoms: N_10  and  C_11
REMARK    7  A    between atoms: N_10  and  C_12
REMARK                            x       y       z     vdW  Elec       q    Type
REMARK                         _______ _______ _______ _____ _____    ______ ____
ROOT
ATOM      1  N   UNL     1       3.318   6.324  19.161  0.00  0.00    +0.000 N 
ATOM      2  C   UNL     1       2.287   6.797  19.951  0.00  0.00    +0.000 C 
ATOM      3  O   UNL     1       1.835   6.209  20.921  0.00  0.00    +0.000 OA
ATOM      4  H   UNL     1       3.786   6.976  18.547  0.00  0.00    +0.000 HD
ENDROOT
BRANCH   2   5
ATOM      5  C   UNL     1       1.764   8.141  19.563  0.00  0.00    +0.000 A 
ATOM      6  C   UNL     1       1.994   8.663  18.291  0.00  0.00    +0.000 A 
ATOM      7  C   UNL     1       1.576   9.963  17.976  0.00  0.00    +0.000 A 
ATOM      8  C   UNL     1       0.900  10.783  18.896  0.00  0.00    +0.000 A 
ATOM      9  C   UNL     1       0.627  10.201  20.148  0.00  0.00    +0.000 A 
ATOM     10  C   UNL     1       1.046   8.900  20.483  0.00  0.00    +0.000 A 
BRANCH   8  11
ATOM     11  N   UNL     1       0.561  12.090  18.588  0.00  0.00    +0.000 N 
ATOM     12  C   UNL     1      -0.827  12.528  18.470  0.00  0.00    +0.000 C 
ATOM     13  C   UNL     1       1.545  13.167  18.548  0.00  0.00    +0.000 C 
ENDBRANCH   8  11
ENDBRANCH   2   5
BRANCH   1  15
ATOM     14  C   UNL     1       5.500   5.226  19.220  0.00  0.00    +0.000 C 
ATOM     15  C   UNL     1       3.993   5.054  19.418  0.00  0.00    +0.000 C 
BRANCH  15  16
ATOM     16  C   UNL     1       3.427   3.959  18.487  0.00  0.00    +0.000 C 
ATOM     17  C   UNL     1       2.046   4.316  17.881  0.00  0.00    +0.000 C 
ATOM     18  C   UNL     1       1.169   3.121  18.284  0.00  0.00    +0.000 C 
ATOM     19  C   UNL     1       0.929   3.169  19.804  0.00  0.00    +0.000 C 
ATOM     20  C   UNL     1       2.269   2.692  20.383  0.00  0.00    +0.000 C 
ATOM     21  C   UNL     1       3.153   2.571  19.131  0.00  0.00    +0.000 C 
ATOM     22  C   UNL     1       2.151   1.960  18.145  0.00  0.00    +0.000 C 
ENDBRANCH  15  16
ENDBRANCH   1  15
TORSDOF 4
ENDMDL
MODEL 7
REMARK VINA RESULT:      -7.0      4.002      6.492
REMARK  Name = 
REMARK  7 active torsions:
REMARK  status: ('A' for Active; 'I' for Inactive)
REMARK    1  A    between atoms: C_1  and  C_2
REMARK    2  A    between atoms: C_2  and  N_3
REMARK    3  A    between atoms: C_2  and  C_15
REMARK    4  A    between atoms: C_4  and  C_6
REMARK    5  A    between atoms: C_9  and  N_10
REMARK    6  A    between atoms: N_10  and  C_11
REMARK    7  A    between atoms: N_10  and  C_12
REMARK                            x       y       z     vdW  Elec       q    Type
REMARK                         _______ _______ _______ _____ _____    ______ ____
ROOT
ATOM      1  N   UNL     1       3.081   5.656  17.862  0.00  0.00    +0.000 N 
ATOM      2  C   UNL     1       3.070   6.326  19.071  0.00  0.00    +0.000 C 
ATOM      3  O   UNL     1       3.635   5.936  20.081  0.00  0.00    +0.000 OA
ATOM      4  H   UNL     1       2.807   6.164  17.033  0.00  0.00    +0.000 HD
ENDROOT
BRANCH   2   5
ATOM      5  C   UNL     1       2.336   7.626  19.062  0.00  0.00    +0.000 A 
ATOM      6  C   UNL     1       1.690   8.096  20.205  0.00  0.00    +0.000 A 
ATOM      7  C   UNL     1       0.928   9.270  20.151  0.00  0.00    +0.000 A 
ATOM      8  C   UNL     1       0.796  10.033  18.978  0.00  0.00    +0.000 A 
ATOM      9  C   UNL     1       1.513   9.565  17.861  0.00  0.00    +0.000 A 
ATOM     10  C   UNL     1       2.276   8.383  17.896  0.00  0.00    +0.000 A 
BRANCH   8  11
ATOM     11  N   UNL     1      -0.021  11.150  18.929  0.00  0.00    +0.000 N 
ATOM     12  C   UNL     1      -1.307  11.146  18.234  0.00  0.00    +0.000 C 
ATOM     13  C   UNL     1       0.240  12.348  19.719  0.00  0.00    +0.000 C 
ENDBRANCH   8  11
ENDBRANCH   2   5
BRANCH   1  15
ATOM     14  C   UNL     1       4.632   4.479  16.385  0.00  0.00    +0.000 C 
ATOM     15  C   UNL     1       3.793   4.396  17.662  0.00  0.00    +0.000 C 
BRANCH  15  16
ATOM     16  C   UNL     1       2.786   3.227  17.595  0.00  0.00    +0.000 C 
ATOM     17  C   UNL     1       1.318   3.662  17.834  0.00  0.00    +0.000 C 
ATOM     18  C   UNL     1       0.870   2.759  18.993  0.00  0.00    +0.000 C 
ATOM     19  C   UNL     1       1.599   3.197  20.277  0.00  0.00    +0.000 C 
ATOM     20  C   UNL     1       3.019   2.648  20.075  0.00  0.00    +0.000 C 
ATOM     21  C   UNL     1       2.966   2.093  18.644  0.00  0.00    +0.000 C 
ATOM     22  C   UNL     1       1.575   1.448  18.649  0.00  0.00    +0.000 C 
ENDBRANCH  15  16
ENDBRANCH   1  15
TORSDOF 4
ENDMDL
MODEL 8
REMARK VINA RESULT:      -7.0      4.096      6.478
REMARK  Name = 
REMARK  7 active torsions:
REMARK  status: ('A' for Active; 'I' for Inactive)
REMARK    1  A    between atoms: C_1  and  C_2
REMARK    2  A    between atoms: C_2  and  N_3
REMARK    3  A    between atoms: C_2  and  C_15
REMARK    4  A    between atoms: C_4  and  C_6
REMARK    5  A    between atoms: C_9  and  N_10
REMARK    6  A    between atoms: N_10  and  C_11
REMARK    7  A    between atoms: N_10  and  C_12
REMARK                            x       y       z     vdW  Elec       q    Type
REMARK                         _______ _______ _______ _____ _____    ______ ____
ROOT
ATOM      1  N   UNL     1       3.082   5.695  17.863  0.00  0.00    +0.000 N 
ATOM      2  C   UNL     1       3.010   6.374  19.065  0.00  0.00    +0.000 C 
ATOM      3  O   UNL     1       3.516   5.988  20.107  0.00  0.00    +0.000 OA
ATOM      4  H   UNL     1       2.858   6.199  17.017  0.00  0.00    +0.000 HD
ENDROOT
BRANCH   2   5
ATOM      5  C   UNL     1       2.288   7.679  19.007  0.00  0.00    +0.000 A 
ATOM      6  C   UNL     1       2.307   8.463  17.854  0.00  0.00    +0.000 A 
ATOM      7  C   UNL     1       1.701   9.726  17.850  0.00  0.00    +0.000 A 
ATOM      8  C   UNL     1       1.038  10.250  18.973  0.00  0.00    +0.000 A 
ATOM      9  C   UNL     1       0.981   9.406  20.098  0.00  0.00    +0.000 A 
ATOM     10  C   UNL     1       1.591   8.139  20.121  0.00  0.00    +0.000 A 
BRANCH   8  11
ATOM     11  N   UNL     1       0.511  11.531  18.970  0.00  0.00    +0.000 N 
ATOM     12  C   UNL     1      -0.886  11.797  18.634  0.00  0.00    +0.000 C 
ATOM     13  C   UNL     1       1.244  12.683  19.483  0.00  0.00    +0.000 C 
ENDBRANCH   8  11
ENDBRANCH   2   5
BRANCH   1  15
ATOM     14  C   UNL     1       4.678   4.485  16.463  0.00  0.00    +0.000 C 
ATOM     15  C   UNL     1       3.795   4.429  17.711  0.00  0.00    +0.000 C 
BRANCH  15  16
ATOM     16  C   UNL     1       2.785   3.263  17.630  0.00  0.00    +0.000 C 
ATOM     17  C   UNL     1       1.319   3.698  17.878  0.00  0.00    +0.000 C 
ATOM     18  C   UNL     1       0.871   2.780  19.025  0.00  0.00    +0.000 C 
ATOM     19  C   UNL     1       1.603   3.200  20.314  0.00  0.00    +0.000 C 
ATOM     20  C   UNL     1       3.021   2.651  20.102  0.00  0.00    +0.000 C 
ATOM     21  C   UNL     1       2.965   2.114  18.663  0.00  0.00    +0.000 C 
ATOM     22  C   UNL     1       1.572   1.473  18.663  0.00  0.00    +0.000 C 
ENDBRANCH  15  16
ENDBRANCH   1  15
TORSDOF 4
ENDMDL
MODEL 9
REMARK VINA RESULT:      -6.7      4.303      6.833
REMARK  Name = 
REMARK  7 active torsions:
REMARK  status: ('A' for Active; 'I' for Inactive)
REMARK    1  A    between atoms: C_1  and  C_2
REMARK    2  A    between atoms: C_2  and  N_3
REMARK    3  A    between atoms: C_2  and  C_15
REMARK    4  A    between atoms: C_4  and  C_6
REMARK    5  A    between atoms: C_9  and  N_10
REMARK    6  A    between atoms: N_10  and  C_11
REMARK    7  A    between atoms: N_10  and  C_12
REMARK                            x       y       z     vdW  Elec       q    Type
REMARK                         _______ _______ _______ _____ _____    ______ ____
ROOT
ATOM      1  N   UNL     1       3.242   6.284  17.797  0.00  0.00    +0.000 N 
ATOM      2  C   UNL     1       2.905   6.709  19.068  0.00  0.00    +0.000 C 
ATOM      3  O   UNL     1       3.277   6.167  20.098  0.00  0.00    +0.000 OA
ATOM      4  H   UNL     1       3.103   6.925  17.028  0.00  0.00    +0.000 HD
ENDROOT
BRANCH   2   5
ATOM      5  C   UNL     1       2.063   7.941  19.117  0.00  0.00    +0.000 A 
ATOM      6  C   UNL     1       1.876   8.730  17.983  0.00  0.00    +0.000 A 
ATOM      7  C   UNL     1       1.160   9.931  18.070  0.00  0.00    +0.000 A 
ATOM      8  C   UNL     1       0.587  10.383  19.271  0.00  0.00    +0.000 A 
ATOM      9  C   UNL     1       0.739   9.531  20.380  0.00  0.00    +0.000 A 
ATOM     10  C   UNL     1       1.462   8.326  20.312  0.00  0.00    +0.000 A 
BRANCH   8  11
ATOM     11  N   UNL     1      -0.054  11.609  19.351  0.00  0.00    +0.000 N 
ATOM     12  C   UNL     1       0.453  12.700  20.181  0.00  0.00    +0.000 C 
ATOM     13  C   UNL     1      -1.163  11.973  18.477  0.00  0.00    +0.000 C 
ENDBRANCH   8  11
ENDBRANCH   2   5
BRANCH   1  15
ATOM     14  C   UNL     1       5.061   5.443  16.398  0.00  0.00    +0.000 C 
ATOM     15  C   UNL     1       4.104   5.130  17.550  0.00  0.00    +0.000 C 
BRANCH  15  16
ATOM     16  C   UNL     1       3.242   3.887  17.240  0.00  0.00    +0.000 C 
ATOM     17  C   UNL     1       1.754   4.052  17.639  0.00  0.00    +0.000 C 
ATOM     18  C   UNL     1       1.504   2.847  18.559  0.00  0.00    +0.000 C 
ATOM     19  C   UNL     1       2.266   3.061  19.880  0.00  0.00    +0.000 C 
ATOM     20  C   UNL     1       3.723   2.771  19.491  0.00  0.00    +0.000 C 
ATOM     21  C   UNL     1       3.633   2.570  17.970  0.00  0.00    +0.000 C 
ATOM     22  C   UNL     1       2.333   1.763  17.875  0.00  0.00    +0.000 C 
ENDBRANCH  15  16
ENDBRANCH   1  15
TORSDOF 4
ENDMDL
