MODEL 1
REMARK VINA RESULT:      -8.5      0.000      0.000
REMARK  Name = 
REMARK  8 active torsions:
REMARK  status: ('A' for Active; 'I' for Inactive)
REMARK    1  A    between atoms: O_1  and  C_2
REMARK    2  A    between atoms: C_2  and  C_3
REMARK    3  A    between atoms: C_2  and  C_10
REMARK    4  A    between atoms: C_3  and  C_4
REMARK    5  A    between atoms: C_10  and  N_11
REMARK    6  A    between atoms: C_14  and  C_15
REMARK    7  A    between atoms: C_17  and  C_18
REMARK    8  A    between atoms: C_24  and  C_25
REMARK                            x       y       z     vdW  Elec       q    Type
REMARK                         _______ _______ _______ _____ _____    ______ ____
ROOT
ATOM      1  C   UNL     1       1.739   8.532  20.007  0.00  0.00    +0.000 A 
ATOM      2  C   UNL     1       1.341   7.363  20.620  0.00  0.00    +0.000 A 
ATOM      3  C   UNL     1       1.973   6.264  19.971  0.00  0.00    +0.000 A 
ATOM      4  C   UNL     1       2.755   6.791  18.943  0.00  0.00    +0.000 A 
ATOM      5  N   UNL     1       2.634   8.167  19.035  0.00  0.00    +0.000 N 
ATOM      6  H   UNL     1       3.099   8.809  18.410  0.00  0.00    +0.000 HD
ENDROOT
BRANCH   4   7
ATOM      7  C   UNL     1       3.577   6.186  17.885  0.00  0.00    +0.000 A 
ATOM      8  C   UNL     1       4.365   6.983  17.041  0.00  0.00    +0.000 A 
ATOM      9  C   UNL     1       5.098   6.416  15.993  0.00  0.00    +0.000 A 
ATOM     10  C   UNL     1       5.090   5.040  15.822  0.00  0.00    +0.000 A 
ATOM     11  F   UNL     1       5.797   4.493  14.826  0.00  0.00    +0.000 F 
ATOM     12  C   UNL     1       4.356   4.222  16.671  0.00  0.00    +0.000 A 
ATOM     13  C   UNL     1       3.591   4.795  17.693  0.00  0.00    +0.000 A 
ENDBRANCH   4   7
BRANCH   1  17
ATOM     14  N   UNL     1      -1.167  10.502  18.807  0.00  0.00    +0.000 NA
ATOM     15  C   UNL     1      -1.149   9.665  20.015  0.00  0.00    +0.000 C 
ATOM     16  C   UNL     1      -0.022  10.061  20.968  0.00  0.00    +0.000 C 
ATOM     17  C   UNL     1       1.347   9.969  20.284  0.00  0.00    +0.000 C 
ATOM     18  C   UNL     1       1.296  10.859  19.034  0.00  0.00    +0.000 C 
ATOM     19  C   UNL     1       0.130  10.496  18.111  0.00  0.00    +0.000 C 
BRANCH  14  20
ATOM     20  C   UNL     1      -2.231  10.074  17.864  0.00  0.00    +0.000 C 
BRANCH  20  21
ATOM     21  C   UNL     1      -2.984  11.234  17.154  0.00  0.00    +0.000 C 
BRANCH  21  22
ATOM     22  O   UNL     1      -2.462  11.385  15.826  0.00  0.00    +0.000 OA
ATOM     23  H   UNL     1      -1.527  11.635  15.904  0.00  0.00    +0.000 HD
ENDBRANCH  21  22
BRANCH  21  24
ATOM     24  C   UNL     1      -4.495  10.979  17.045  0.00  0.00    +0.000 C 
BRANCH  24  25
ATOM     25  C   UNL     1      -5.275  11.274  18.301  0.00  0.00    +0.000 A 
ATOM     26  C   UNL     1      -4.869  12.272  19.198  0.00  0.00    +0.000 A 
ATOM     27  C   UNL     1      -5.576  12.490  20.379  0.00  0.00    +0.000 A 
ATOM     28  C   UNL     1      -6.697  11.716  20.676  0.00  0.00    +0.000 A 
ATOM     29  C   UNL     1      -7.121  10.735  19.780  0.00  0.00    +0.000 A 
ATOM     30  C   UNL     1      -6.416  10.519  18.601  0.00  0.00    +0.000 A 
ENDBRANCH  24  25
ENDBRANCH  21  24
ENDBRANCH  20  21
ENDBRANCH  14  20
ENDBRANCH   1  17
BRANCH   3  31
ATOM     31  C   UNL     1       1.808   4.855  20.312  0.00  0.00    +0.000 A 
ATOM     32  C   UNL     1       2.486   4.325  21.417  0.00  0.00    +0.000 A 
ATOM     33  C   UNL     1       2.312   2.985  21.724  0.00  0.00    +0.000 A 
ATOM     34  N   UNL     1       1.509   2.154  21.024  0.00  0.00    +0.000 NA
ATOM     35  C   UNL     1       0.875   2.683  19.955  0.00  0.00    +0.000 A 
ATOM     36  C   UNL     1       1.010   4.001  19.554  0.00  0.00    +0.000 A 
ENDBRANCH   3  31
TORSDOF 8
ENDMDL
MODEL 2
REMARK VINA RESULT:      -8.5      0.090      1.158
REMARK  Name = 
REMARK  8 active torsions:
REMARK  status: ('A' for Active; 'I' for Inactive)
REMARK    1  A    between atoms: O_1  and  C_2
REMARK    2  A    between atoms: C_2  and  C_3
REMARK    3  A    between atoms: C_2  and  C_10
REMARK    4  A    between atoms: C_3  and  C_4
REMARK    5  A    between atoms: C_10  and  N_11
REMARK    6  A    between atoms: C_14  and  C_15
REMARK    7  A    between atoms: C_17  and  C_18
REMARK    8  A    between atoms: C_24  and  C_25
REMARK                            x       y       z     vdW  Elec       q    Type
REMARK                         _______ _______ _______ _____ _____    ______ ____
ROOT
ATOM      1  C   UNL     1       1.714   8.628  20.016  0.00  0.00    +0.000 A 
ATOM      2  C   UNL     1       1.331   7.464  20.650  0.00  0.00    +0.000 A 
ATOM      3  C   UNL     1       1.967   6.361  20.012  0.00  0.00    +0.000 A 
ATOM      4  C   UNL     1       2.736   6.880  18.970  0.00  0.00    +0.000 A 
ATOM      5  N   UNL     1       2.603   8.256  19.042  0.00  0.00    +0.000 N 
ATOM      6  H   UNL     1       3.057   8.892  18.404  0.00  0.00    +0.000 HD
ENDROOT
BRANCH   4   7
ATOM      7  C   UNL     1       3.555   6.266  17.914  0.00  0.00    +0.000 A 
ATOM      8  C   UNL     1       4.364   7.054  17.081  0.00  0.00    +0.000 A 
ATOM      9  C   UNL     1       5.094   6.479  16.036  0.00  0.00    +0.000 A 
ATOM     10  C   UNL     1       5.062   5.104  15.855  0.00  0.00    +0.000 A 
ATOM     11  F   UNL     1       5.766   4.551  14.861  0.00  0.00    +0.000 F 
ATOM     12  C   UNL     1       4.306   4.296  16.693  0.00  0.00    +0.000 A 
ATOM     13  C   UNL     1       3.544   4.876  17.713  0.00  0.00    +0.000 A 
ENDBRANCH   4   7
BRANCH   1  17
ATOM     14  N   UNL     1      -1.219  10.554  18.810  0.00  0.00    +0.000 NA
ATOM     15  C   UNL     1      -1.184   9.735  20.030  0.00  0.00    +0.000 C 
ATOM     16  C   UNL     1      -0.054  10.155  20.968  0.00  0.00    +0.000 C 
ATOM     17  C   UNL     1       1.310  10.065  20.275  0.00  0.00    +0.000 C 
ATOM     18  C   UNL     1       1.242  10.936  19.012  0.00  0.00    +0.000 C 
ATOM     19  C   UNL     1       0.072  10.548  18.104  0.00  0.00    +0.000 C 
BRANCH  14  20
ATOM     20  C   UNL     1      -2.287  10.103  17.882  0.00  0.00    +0.000 C 
BRANCH  20  21
ATOM     21  C   UNL     1      -3.023  11.243  17.125  0.00  0.00    +0.000 C 
BRANCH  21  22
ATOM     22  O   UNL     1      -2.513  11.320  15.787  0.00  0.00    +0.000 OA
ATOM     23  H   UNL     1      -3.244  11.590  15.207  0.00  0.00    +0.000 HD
ENDBRANCH  21  22
BRANCH  21  24
ATOM     24  C   UNL     1      -4.541  11.015  17.043  0.00  0.00    +0.000 C 
BRANCH  24  25
ATOM     25  C   UNL     1      -5.284  11.258  18.331  0.00  0.00    +0.000 A 
ATOM     26  C   UNL     1      -6.402  10.491  18.687  0.00  0.00    +0.000 A 
ATOM     27  C   UNL     1      -7.105  10.770  19.859  0.00  0.00    +0.000 A 
ATOM     28  C   UNL     1      -6.698  11.814  20.687  0.00  0.00    +0.000 A 
ATOM     29  C   UNL     1      -5.575  12.569  20.352  0.00  0.00    +0.000 A 
ATOM     30  C   UNL     1      -4.873  12.290  19.185  0.00  0.00    +0.000 A 
ENDBRANCH  24  25
ENDBRANCH  21  24
ENDBRANCH  20  21
ENDBRANCH  14  20
ENDBRANCH   1  17
BRANCH   3  31
ATOM     31  C   UNL     1       1.817   4.956  20.375  0.00  0.00    +0.000 A 
ATOM     32  C   UNL     1       0.983   4.127  19.614  0.00  0.00    +0.000 A 
ATOM     33  C   UNL     1       0.859   2.796  19.976  0.00  0.00    +0.000 A 
ATOM     34  N   UNL     1       1.510   2.239  21.019  0.00  0.00    +0.000 NA
ATOM     35  C   UNL     1       2.299   3.059  21.748  0.00  0.00    +0.000 A 
ATOM     36  C   UNL     1       2.463   4.407  21.481  0.00  0.00    +0.000 A 
ENDBRANCH   3  31
TORSDOF 8
ENDMDL
MODEL 3
REMARK VINA RESULT:      -8.4      2.984      4.805
REMARK  Name = 
REMARK  8 active torsions:
REMARK  status: ('A' for Active; 'I' for Inactive)
REMARK    1  A    between atoms: O_1  and  C_2
REMARK    2  A    between atoms: C_2  and  C_3
REMARK    3  A    between atoms: C_2  and  C_10
REMARK    4  A    between atoms: C_3  and  C_4
REMARK    5  A    between atoms: C_10  and  N_11
REMARK    6  A    between atoms: C_14  and  C_15
REMARK    7  A    between atoms: C_17  and  C_18
REMARK    8  A    between atoms: C_24  and  C_25
REMARK                            x       y       z     vdW  Elec       q    Type
REMARK                         _______ _______ _______ _____ _____    ______ ____
ROOT
ATOM      1  C   UNL     1       2.003   8.586  17.855  0.00  0.00    +0.000 A 
ATOM      2  C   UNL     1       3.249   8.204  17.403  0.00  0.00    +0.000 A 
ATOM      3  C   UNL     1       3.529   6.891  17.877  0.00  0.00    +0.000 A 
ATOM      4  C   UNL     1       2.430   6.487  18.636  0.00  0.00    +0.000 A 
ATOM      5  N   UNL     1       1.505   7.514  18.550  0.00  0.00    +0.000 N 
ATOM      6  H   UNL     1       0.606   7.491  19.007  0.00  0.00    +0.000 HD
ENDROOT
BRANCH   4   7
ATOM      7  C   UNL     1       2.139   5.290  19.438  0.00  0.00    +0.000 A 
ATOM      8  C   UNL     1       2.445   5.248  20.807  0.00  0.00    +0.000 A 
ATOM      9  C   UNL     1       2.228   4.088  21.557  0.00  0.00    +0.000 A 
ATOM     10  C   UNL     1       1.649   2.982  20.953  0.00  0.00    +0.000 A 
ATOM     11  F   UNL     1       1.432   1.873  21.670  0.00  0.00    +0.000 F 
ATOM     12  C   UNL     1       1.293   3.011  19.611  0.00  0.00    +0.000 A 
ATOM     13  C   UNL     1       1.548   4.158  18.852  0.00  0.00    +0.000 A 
ENDBRANCH   4   7
BRANCH   1  17
ATOM     14  N   UNL     1       0.525  10.891  20.358  0.00  0.00    +0.000 NA
ATOM     15  C   UNL     1       1.905  10.951  19.860  0.00  0.00    +0.000 C 
ATOM     16  C   UNL     1       1.960  11.061  18.337  0.00  0.00    +0.000 C 
ATOM     17  C   UNL     1       1.244   9.883  17.666  0.00  0.00    +0.000 C 
ATOM     18  C   UNL     1      -0.194   9.855  18.201  0.00  0.00    +0.000 C 
ATOM     19  C   UNL     1      -0.243   9.803  19.730  0.00  0.00    +0.000 C 
BRANCH  14  20
ATOM     20  C   UNL     1       0.485  10.731  21.834  0.00  0.00    +0.000 C 
BRANCH  20  21
ATOM     21  C   UNL     1      -0.940  10.640  22.446  0.00  0.00    +0.000 C 
BRANCH  21  22
ATOM     22  O   UNL     1      -0.960   9.597  23.431  0.00  0.00    +0.000 OA
ATOM     23  H   UNL     1      -1.320   8.800  23.009  0.00  0.00    +0.000 HD
ENDBRANCH  21  22
BRANCH  21  24
ATOM     24  C   UNL     1      -1.376  11.946  23.128  0.00  0.00    +0.000 C 
BRANCH  24  25
ATOM     25  C   UNL     1      -2.817  12.324  22.901  0.00  0.00    +0.000 A 
ATOM     26  C   UNL     1      -3.311  12.587  21.616  0.00  0.00    +0.000 A 
ATOM     27  C   UNL     1      -4.635  12.987  21.437  0.00  0.00    +0.000 A 
ATOM     28  C   UNL     1      -5.479  13.125  22.537  0.00  0.00    +0.000 A 
ATOM     29  C   UNL     1      -5.002  12.844  23.818  0.00  0.00    +0.000 A 
ATOM     30  C   UNL     1      -3.683  12.444  23.996  0.00  0.00    +0.000 A 
ENDBRANCH  24  25
ENDBRANCH  21  24
ENDBRANCH  20  21
ENDBRANCH  14  20
ENDBRANCH   1  17
BRANCH   3  31
ATOM     31  C   UNL     1       4.748   6.130  17.627  0.00  0.00    +0.000 A 
ATOM     32  C   UNL     1       5.064   5.734  16.321  0.00  0.00    +0.000 A 
ATOM     33  C   UNL     1       6.228   5.015  16.107  0.00  0.00    +0.000 A 
ATOM     34  N   UNL     1       7.094   4.681  17.089  0.00  0.00    +0.000 NA
ATOM     35  C   UNL     1       6.764   5.061  18.342  0.00  0.00    +0.000 A 
ATOM     36  C   UNL     1       5.609   5.756  18.657  0.00  0.00    +0.000 A 
ENDBRANCH   3  31
TORSDOF 8
ENDMDL
MODEL 4
REMARK VINA RESULT:      -8.4      2.364      3.265
REMARK  Name = 
REMARK  8 active torsions:
REMARK  status: ('A' for Active; 'I' for Inactive)
REMARK    1  A    between atoms: O_1  and  C_2
REMARK    2  A    between atoms: C_2  and  C_3
REMARK    3  A    between atoms: C_2  and  C_10
REMARK    4  A    between atoms: C_3  and  C_4
REMARK    5  A    between atoms: C_10  and  N_11
REMARK    6  A    between atoms: C_14  and  C_15
REMARK    7  A    between atoms: C_17  and  C_18
REMARK    8  A    between atoms: C_24  and  C_25
REMARK                            x       y       z     vdW  Elec       q    Type
REMARK                         _______ _______ _______ _____ _____    ______ ____
ROOT
ATOM      1  C   UNL     1       1.843   8.547  18.206  0.00  0.00    +0.000 A 
ATOM      2  C   UNL     1       1.291   7.511  18.931  0.00  0.00    +0.000 A 
ATOM      3  C   UNL     1       2.206   6.420  18.943  0.00  0.00    +0.000 A 
ATOM      4  C   UNL     1       3.321   6.812  18.201  0.00  0.00    +0.000 A 
ATOM      5  N   UNL     1       3.089   8.123  17.822  0.00  0.00    +0.000 N 
ATOM      6  H   UNL     1       3.737   8.665  17.271  0.00  0.00    +0.000 HD
ENDROOT
BRANCH   4   7
ATOM      7  C   UNL     1       4.553   6.125  17.787  0.00  0.00    +0.000 A 
ATOM      8  C   UNL     1       5.368   5.477  18.727  0.00  0.00    +0.000 A 
ATOM      9  C   UNL     1       6.572   4.879  18.344  0.00  0.00    +0.000 A 
ATOM     10  C   UNL     1       6.939   4.876  17.006  0.00  0.00    +0.000 A 
ATOM     11  F   UNL     1       8.087   4.297  16.636  0.00  0.00    +0.000 F 
ATOM     12  C   UNL     1       6.129   5.470  16.047  0.00  0.00    +0.000 A 
ATOM     13  C   UNL     1       4.944   6.104  16.438  0.00  0.00    +0.000 A 
ENDBRANCH   4   7
BRANCH   1  17
ATOM     14  N   UNL     1       0.029  11.001  20.316  0.00  0.00    +0.000 NA
ATOM     15  C   UNL     1       1.489  10.922  20.171  0.00  0.00    +0.000 C 
ATOM     16  C   UNL     1       1.925  11.017  18.710  0.00  0.00    +0.000 C 
ATOM     17  C   UNL     1       1.283   9.913  17.862  0.00  0.00    +0.000 C 
ATOM     18  C   UNL     1      -0.238  10.030  18.029  0.00  0.00    +0.000 C 
ATOM     19  C   UNL     1      -0.664   9.991  19.499  0.00  0.00    +0.000 C 
BRANCH  14  20
ATOM     20  C   UNL     1      -0.386  10.853  21.734  0.00  0.00    +0.000 C 
BRANCH  20  21
ATOM     21  C   UNL     1      -0.989  12.132  22.378  0.00  0.00    +0.000 C 
BRANCH  21  22
ATOM     22  O   UNL     1      -0.003  13.174  22.360  0.00  0.00    +0.000 OA
ATOM     23  H   UNL     1       0.775  12.852  22.845  0.00  0.00    +0.000 HD
ENDBRANCH  21  22
BRANCH  21  24
ATOM     24  C   UNL     1      -2.232  12.642  21.631  0.00  0.00    +0.000 C 
BRANCH  24  25
ATOM     25  C   UNL     1      -3.497  12.652  22.450  0.00  0.00    +0.000 A 
ATOM     26  C   UNL     1      -4.746  12.901  21.863  0.00  0.00    +0.000 A 
ATOM     27  C   UNL     1      -5.896  12.959  22.649  0.00  0.00    +0.000 A 
ATOM     28  C   UNL     1      -5.812  12.766  24.027  0.00  0.00    +0.000 A 
ATOM     29  C   UNL     1      -4.577  12.497  24.616  0.00  0.00    +0.000 A 
ATOM     30  C   UNL     1      -3.430  12.438  23.832  0.00  0.00    +0.000 A 
ENDBRANCH  24  25
ENDBRANCH  21  24
ENDBRANCH  20  21
ENDBRANCH  14  20
ENDBRANCH   1  17
BRANCH   3  31
ATOM     31  C   UNL     1       1.996   5.132  19.595  0.00  0.00    +0.000 A 
ATOM     32  C   UNL     1       1.508   4.049  18.852  0.00  0.00    +0.000 A 
ATOM     33  C   UNL     1       1.319   2.835  19.491  0.00  0.00    +0.000 A 
ATOM     34  N   UNL     1       1.594   2.625  20.797  0.00  0.00    +0.000 NA
ATOM     35  C   UNL     1       2.051   3.685  21.498  0.00  0.00    +0.000 A 
ATOM     36  C   UNL     1       2.244   4.943  20.953  0.00  0.00    +0.000 A 
ENDBRANCH   3  31
TORSDOF 8
ENDMDL
MODEL 5
REMARK VINA RESULT:      -8.2      0.780      1.533
REMARK  Name = 
REMARK  8 active torsions:
REMARK  status: ('A' for Active; 'I' for Inactive)
REMARK    1  A    between atoms: O_1  and  C_2
REMARK    2  A    between atoms: C_2  and  C_3
REMARK    3  A    between atoms: C_2  and  C_10
REMARK    4  A    between atoms: C_3  and  C_4
REMARK    5  A    between atoms: C_10  and  N_11
REMARK    6  A    between atoms: C_14  and  C_15
REMARK    7  A    between atoms: C_17  and  C_18
REMARK    8  A    between atoms: C_24  and  C_25
REMARK                            x       y       z     vdW  Elec       q    Type
REMARK                         _______ _______ _______ _____ _____    ______ ____
ROOT
ATOM      1  C   UNL     1       1.752   8.546  19.853  0.00  0.00    +0.000 A 
ATOM      2  C   UNL     1       1.378   7.409  20.538  0.00  0.00    +0.000 A 
ATOM      3  C   UNL     1       2.002   6.281  19.934  0.00  0.00    +0.000 A 
ATOM      4  C   UNL     1       2.755   6.757  18.860  0.00  0.00    +0.000 A 
ATOM      5  N   UNL     1       2.625   8.135  18.880  0.00  0.00    +0.000 N 
ATOM      6  H   UNL     1       3.070   8.745  18.211  0.00  0.00    +0.000 HD
ENDROOT
BRANCH   4   7
ATOM      7  C   UNL     1       3.556   6.101  17.816  0.00  0.00    +0.000 A 
ATOM      8  C   UNL     1       3.447   4.722  17.584  0.00  0.00    +0.000 A 
ATOM      9  C   UNL     1       4.254   4.086  16.636  0.00  0.00    +0.000 A 
ATOM     10  C   UNL     1       5.135   4.838  15.874  0.00  0.00    +0.000 A 
ATOM     11  F   UNL     1       5.903   4.234  14.960  0.00  0.00    +0.000 F 
ATOM     12  C   UNL     1       5.232   6.213  16.050  0.00  0.00    +0.000 A 
ATOM     13  C   UNL     1       4.452   6.841  17.027  0.00  0.00    +0.000 A 
ENDBRANCH   4   7
BRANCH   1  17
ATOM     14  N   UNL     1      -1.113  10.471  18.492  0.00  0.00    +0.000 NA
ATOM     15  C   UNL     1      -1.133   9.682  19.732  0.00  0.00    +0.000 C 
ATOM     16  C   UNL     1      -0.033  10.113  20.701  0.00  0.00    +0.000 C 
ATOM     17  C   UNL     1       1.355   9.994  20.062  0.00  0.00    +0.000 C 
ATOM     18  C   UNL     1       1.343  10.834  18.777  0.00  0.00    +0.000 C 
ATOM     19  C   UNL     1       0.203  10.435  17.835  0.00  0.00    +0.000 C 
BRANCH  14  20
ATOM     20  C   UNL     1      -2.151  10.008  17.537  0.00  0.00    +0.000 C 
BRANCH  20  21
ATOM     21  C   UNL     1      -3.134  11.109  17.051  0.00  0.00    +0.000 C 
BRANCH  21  22
ATOM     22  O   UNL     1      -2.691  11.602  15.779  0.00  0.00    +0.000 OA
ATOM     23  H   UNL     1      -3.405  12.146  15.408  0.00  0.00    +0.000 HD
ENDBRANCH  21  22
BRANCH  21  24
ATOM     24  C   UNL     1      -4.570  10.589  16.884  0.00  0.00    +0.000 C 
BRANCH  24  25
ATOM     25  C   UNL     1      -5.620  11.401  17.598  0.00  0.00    +0.000 A 
ATOM     26  C   UNL     1      -6.263  10.918  18.746  0.00  0.00    +0.000 A 
ATOM     27  C   UNL     1      -7.269  11.665  19.358  0.00  0.00    +0.000 A 
ATOM     28  C   UNL     1      -7.641  12.901  18.833  0.00  0.00    +0.000 A 
ATOM     29  C   UNL     1      -6.992  13.399  17.703  0.00  0.00    +0.000 A 
ATOM     30  C   UNL     1      -5.988  12.655  17.094  0.00  0.00    +0.000 A 
ENDBRANCH  24  25
ENDBRANCH  21  24
ENDBRANCH  20  21
ENDBRANCH  14  20
ENDBRANCH   1  17
BRANCH   3  31
ATOM     31  C   UNL     1       1.856   4.892  20.354  0.00  0.00    +0.000 A 
ATOM     32  C   UNL     1       0.958   4.053  19.680  0.00  0.00    +0.000 A 
ATOM     33  C   UNL     1       0.839   2.737  20.095  0.00  0.00    +0.000 A 
ATOM     34  N   UNL     1       1.553   2.203  21.110  0.00  0.00    +0.000 NA
ATOM     35  C   UNL     1       2.403   3.032  21.754  0.00  0.00    +0.000 A 
ATOM     36  C   UNL     1       2.569   4.368  21.431  0.00  0.00    +0.000 A 
ENDBRANCH   3  31
TORSDOF 8
ENDMDL
MODEL 6
REMARK VINA RESULT:      -8.2      3.050      4.734
REMARK  Name = 
REMARK  8 active torsions:
REMARK  status: ('A' for Active; 'I' for Inactive)
REMARK    1  A    between atoms: O_1  and  C_2
REMARK    2  A    between atoms: C_2  and  C_3
REMARK    3  A    between atoms: C_2  and  C_10
REMARK    4  A    between atoms: C_3  and  C_4
REMARK    5  A    between atoms: C_10  and  N_11
REMARK    6  A    between atoms: C_14  and  C_15
REMARK    7  A    between atoms: C_17  and  C_18
REMARK    8  A    between atoms: C_24  and  C_25
REMARK                            x       y       z     vdW  Elec       q    Type
REMARK                         _______ _______ _______ _____ _____    ______ ____
ROOT
ATOM      1  C   UNL     1       2.215   8.639  17.920  0.00  0.00    +0.000 A 
ATOM      2  C   UNL     1       3.495   8.368  17.484  0.00  0.00    +0.000 A 
ATOM      3  C   UNL     1       3.735   6.969  17.599  0.00  0.00    +0.000 A 
ATOM      4  C   UNL     1       2.576   6.398  18.125  0.00  0.00    +0.000 A 
ATOM      5  N   UNL     1       1.661   7.430  18.250  0.00  0.00    +0.000 N 
ATOM      6  H   UNL     1       0.726   7.303  18.607  0.00  0.00    +0.000 HD
ENDROOT
BRANCH   4   7
ATOM      7  C   UNL     1       2.219   5.033  18.540  0.00  0.00    +0.000 A 
ATOM      8  C   UNL     1       2.320   3.958  17.645  0.00  0.00    +0.000 A 
ATOM      9  C   UNL     1       1.920   2.671  18.018  0.00  0.00    +0.000 A 
ATOM     10  C   UNL     1       1.471   2.443  19.310  0.00  0.00    +0.000 A 
ATOM     11  F   UNL     1       1.096   1.211  19.673  0.00  0.00    +0.000 F 
ATOM     12  C   UNL     1       1.403   3.480  20.232  0.00  0.00    +0.000 A 
ATOM     13  C   UNL     1       1.765   4.775  19.844  0.00  0.00    +0.000 A 
ENDBRANCH   4   7
BRANCH   1  17
ATOM     14  N   UNL     1      -0.074   9.888  20.560  0.00  0.00    +0.000 NA
ATOM     15  C   UNL     1       1.387  10.045  20.559  0.00  0.00    +0.000 C 
ATOM     16  C   UNL     1       1.887  10.732  19.289  0.00  0.00    +0.000 C 
ATOM     17  C   UNL     1       1.474   9.956  18.033  0.00  0.00    +0.000 C 
ATOM     18  C   UNL     1      -0.055   9.817  18.062  0.00  0.00    +0.000 C 
ATOM     19  C   UNL     1      -0.554   9.180  19.361  0.00  0.00    +0.000 C 
BRANCH  14  20
ATOM     20  C   UNL     1      -0.543   9.171  21.773  0.00  0.00    +0.000 C 
BRANCH  20  21
ATOM     21  C   UNL     1      -0.770  10.071  23.019  0.00  0.00    +0.000 C 
BRANCH  21  22
ATOM     22  O   UNL     1       0.296   9.853  23.954  0.00  0.00    +0.000 OA
ATOM     23  H   UNL     1       0.109   9.025  24.427  0.00  0.00    +0.000 HD
ENDBRANCH  21  22
BRANCH  21  24
ATOM     24  C   UNL     1      -0.798  11.568  22.672  0.00  0.00    +0.000 C 
BRANCH  24  25
ATOM     25  C   UNL     1      -2.176  12.137  22.453  0.00  0.00    +0.000 A 
ATOM     26  C   UNL     1      -2.572  12.635  21.204  0.00  0.00    +0.000 A 
ATOM     27  C   UNL     1      -3.834  13.205  21.040  0.00  0.00    +0.000 A 
ATOM     28  C   UNL     1      -4.713  13.283  22.118  0.00  0.00    +0.000 A 
ATOM     29  C   UNL     1      -4.335  12.771  23.360  0.00  0.00    +0.000 A 
ATOM     30  C   UNL     1      -3.078  12.200  23.522  0.00  0.00    +0.000 A 
ENDBRANCH  24  25
ENDBRANCH  21  24
ENDBRANCH  20  21
ENDBRANCH  14  20
ENDBRANCH   1  17
BRANCH   3  31
ATOM     31  C   UNL     1       4.972   6.279  17.250  0.00  0.00    +0.000 A 
ATOM     32  C   UNL     1       5.823   5.824  18.266  0.00  0.00    +0.000 A 
ATOM     33  C   UNL     1       6.990   5.168  17.911  0.00  0.00    +0.000 A 
ATOM     34  N   UNL     1       7.355   4.925  16.633  0.00  0.00    +0.000 NA
ATOM     35  C   UNL     1       6.526   5.384  15.670  0.00  0.00    +0.000 A 
ATOM     36  C   UNL     1       5.354   6.074  15.926  0.00  0.00    +0.000 A 
ENDBRANCH   3  31
TORSDOF 8
ENDMDL
MODEL 7
REMARK VINA RESULT:      -8.2      0.813      1.217
REMARK  Name = 
REMARK  8 active torsions:
REMARK  status: ('A' for Active; 'I' for Inactive)
REMARK    1  A    between atoms: O_1  and  C_2
REMARK    2  A    between atoms: C_2  and  C_3
REMARK    3  A    between atoms: C_2  and  C_10
REMARK    4  A    between atoms: C_3  and  C_4
REMARK    5  A    between atoms: C_10  and  N_11
REMARK    6  A    between atoms: C_14  and  C_15
REMARK    7  A    between atoms: C_17  and  C_18
REMARK    8  A    between atoms: C_24  and  C_25
REMARK                            x       y       z     vdW  Elec       q    Type
REMARK                         _______ _______ _______ _____ _____    ______ ____
ROOT
ATOM      1  C   UNL     1       1.538   8.536  20.136  0.00  0.00    +0.000 A 
ATOM      2  C   UNL     1       1.207   7.353  20.765  0.00  0.00    +0.000 A 
ATOM      3  C   UNL     1       1.889   6.282  20.120  0.00  0.00    +0.000 A 
ATOM      4  C   UNL     1       2.634   6.839  19.080  0.00  0.00    +0.000 A 
ATOM      5  N   UNL     1       2.441   8.208  19.159  0.00  0.00    +0.000 N 
ATOM      6  H   UNL     1       2.867   8.866  18.523  0.00  0.00    +0.000 HD
ENDROOT
BRANCH   4   7
ATOM      7  C   UNL     1       3.477   6.267  18.019  0.00  0.00    +0.000 A 
ATOM      8  C   UNL     1       4.312   7.084  17.243  0.00  0.00    +0.000 A 
ATOM      9  C   UNL     1       5.066   6.551  16.193  0.00  0.00    +0.000 A 
ATOM     10  C   UNL     1       5.031   5.186  15.952  0.00  0.00    +0.000 A 
ATOM     11  F   UNL     1       5.758   4.672  14.953  0.00  0.00    +0.000 F 
ATOM     12  C   UNL     1       4.249   4.346  16.734  0.00  0.00    +0.000 A 
ATOM     13  C   UNL     1       3.464   4.887  17.758  0.00  0.00    +0.000 A 
ENDBRANCH   4   7
BRANCH   1  17
ATOM     14  N   UNL     1      -0.952  10.623  18.345  0.00  0.00    +0.000 NA
ATOM     15  C   UNL     1      -1.254   9.700  19.447  0.00  0.00    +0.000 C 
ATOM     16  C   UNL     1      -0.430  10.010  20.696  0.00  0.00    +0.000 C 
ATOM     17  C   UNL     1       1.073   9.953  20.402  0.00  0.00    +0.000 C 
ATOM     18  C   UNL     1       1.355  10.933  19.254  0.00  0.00    +0.000 C 
ATOM     19  C   UNL     1       0.485  10.652  18.027  0.00  0.00    +0.000 C 
BRANCH  14  20
ATOM     20  C   UNL     1      -1.719  10.278  17.121  0.00  0.00    +0.000 C 
BRANCH  20  21
ATOM     21  C   UNL     1      -3.028  11.091  16.916  0.00  0.00    +0.000 C 
BRANCH  21  22
ATOM     22  O   UNL     1      -3.209  11.340  15.515  0.00  0.00    +0.000 OA
ATOM     23  H   UNL     1      -2.350  11.609  15.150  0.00  0.00    +0.000 HD
ENDBRANCH  21  22
BRANCH  21  24
ATOM     24  C   UNL     1      -4.271  10.350  17.432  0.00  0.00    +0.000 C 
BRANCH  24  25
ATOM     25  C   UNL     1      -5.439  11.240  17.770  0.00  0.00    +0.000 A 
ATOM     26  C   UNL     1      -5.671  12.438  17.079  0.00  0.00    +0.000 A 
ATOM     27  C   UNL     1      -6.727  13.271  17.446  0.00  0.00    +0.000 A 
ATOM     28  C   UNL     1      -7.563  12.917  18.503  0.00  0.00    +0.000 A 
ATOM     29  C   UNL     1      -7.352  11.718  19.183  0.00  0.00    +0.000 A 
ATOM     30  C   UNL     1      -6.300  10.886  18.816  0.00  0.00    +0.000 A 
ENDBRANCH  24  25
ENDBRANCH  21  24
ENDBRANCH  20  21
ENDBRANCH  14  20
ENDBRANCH   1  17
BRANCH   3  31
ATOM     31  C   UNL     1       1.802   4.871  20.477  0.00  0.00    +0.000 A 
ATOM     32  C   UNL     1       0.845   4.056  19.857  0.00  0.00    +0.000 A 
ATOM     33  C   UNL     1       0.782   2.718  20.209  0.00  0.00    +0.000 A 
ATOM     34  N   UNL     1       1.604   2.141  21.112  0.00  0.00    +0.000 NA
ATOM     35  C   UNL     1       2.510   2.947  21.707  0.00  0.00    +0.000 A 
ATOM     36  C   UNL     1       2.629   4.301  21.442  0.00  0.00    +0.000 A 
ENDBRANCH   3  31
TORSDOF 8
ENDMDL
MODEL 8
REMARK VINA RESULT:      -8.2      2.006      2.805
REMARK  Name = 
REMARK  8 active torsions:
REMARK  status: ('A' for Active; 'I' for Inactive)
REMARK    1  A    between atoms: O_1  and  C_2
REMARK    2  A    between atoms: C_2  and  C_3
REMARK    3  A    between atoms: C_2  and  C_10
REMARK    4  A    between atoms: C_3  and  C_4
REMARK    5  A    between atoms: C_10  and  N_11
REMARK    6  A    between atoms: C_14  and  C_15
REMARK    7  A    between atoms: C_17  and  C_18
REMARK    8  A    between atoms: C_24  and  C_25
REMARK                            x       y       z     vdW  Elec       q    Type
REMARK                         _______ _______ _______ _____ _____    ______ ____
ROOT
ATOM      1  C   UNL     1       1.847   8.641  18.208  0.00  0.00    +0.000 A 
ATOM      2  C   UNL     1       1.292   7.595  18.916  0.00  0.00    +0.000 A 
ATOM      3  C   UNL     1       2.208   6.504  18.919  0.00  0.00    +0.000 A 
ATOM      4  C   UNL     1       3.326   6.907  18.188  0.00  0.00    +0.000 A 
ATOM      5  N   UNL     1       3.095   8.223  17.826  0.00  0.00    +0.000 N 
ATOM      6  H   UNL     1       3.747   8.773  17.286  0.00  0.00    +0.000 HD
ENDROOT
BRANCH   4   7
ATOM      7  C   UNL     1       4.561   6.227  17.772  0.00  0.00    +0.000 A 
ATOM      8  C   UNL     1       4.937   6.180  16.421  0.00  0.00    +0.000 A 
ATOM      9  C   UNL     1       6.077   5.479  16.015  0.00  0.00    +0.000 A 
ATOM     10  C   UNL     1       6.879   4.869  16.969  0.00  0.00    +0.000 A 
ATOM     11  F   UNL     1       7.976   4.205  16.585  0.00  0.00    +0.000 F 
ATOM     12  C   UNL     1       6.557   4.939  18.318  0.00  0.00    +0.000 A 
ATOM     13  C   UNL     1       5.394   5.606  18.718  0.00  0.00    +0.000 A 
ENDBRANCH   4   7
BRANCH   1  17
ATOM     14  N   UNL     1      -0.187  10.963  20.267  0.00  0.00    +0.000 NA
ATOM     15  C   UNL     1       1.282  10.916  20.240  0.00  0.00    +0.000 C 
ATOM     16  C   UNL     1       1.834  11.086  18.826  0.00  0.00    +0.000 C 
ATOM     17  C   UNL     1       1.289  10.011  17.880  0.00  0.00    +0.000 C 
ATOM     18  C   UNL     1      -0.244  10.093  17.925  0.00  0.00    +0.000 C 
ATOM     19  C   UNL     1      -0.788   9.980  19.351  0.00  0.00    +0.000 C 
BRANCH  14  20
ATOM     20  C   UNL     1      -0.713  10.743  21.638  0.00  0.00    +0.000 C 
BRANCH  20  21
ATOM     21  C   UNL     1      -1.430  11.969  22.270  0.00  0.00    +0.000 C 
BRANCH  21  22
ATOM     22  O   UNL     1      -0.498  12.682  23.094  0.00  0.00    +0.000 OA
ATOM     23  H   UNL     1      -0.412  13.580  22.734  0.00  0.00    +0.000 HD
ENDBRANCH  21  22
BRANCH  21  24
ATOM     24  C   UNL     1      -1.975  12.945  21.215  0.00  0.00    +0.000 C 
BRANCH  24  25
ATOM     25  C   UNL     1      -3.411  12.709  20.822  0.00  0.00    +0.000 A 
ATOM     26  C   UNL     1      -4.452  12.825  21.753  0.00  0.00    +0.000 A 
ATOM     27  C   UNL     1      -5.767  12.550  21.378  0.00  0.00    +0.000 A 
ATOM     28  C   UNL     1      -6.056  12.160  20.072  0.00  0.00    +0.000 A 
ATOM     29  C   UNL     1      -5.028  12.063  19.134  0.00  0.00    +0.000 A 
ATOM     30  C   UNL     1      -3.718  12.339  19.507  0.00  0.00    +0.000 A 
ENDBRANCH  24  25
ENDBRANCH  21  24
ENDBRANCH  20  21
ENDBRANCH  14  20
ENDBRANCH   1  17
BRANCH   3  31
ATOM     31  C   UNL     1       1.995   5.208  19.552  0.00  0.00    +0.000 A 
ATOM     32  C   UNL     1       1.499   4.138  18.795  0.00  0.00    +0.000 A 
ATOM     33  C   UNL     1       1.308   2.916  19.417  0.00  0.00    +0.000 A 
ATOM     34  N   UNL     1       1.587   2.684  20.718  0.00  0.00    +0.000 NA
ATOM     35  C   UNL     1       2.052   3.732  21.432  0.00  0.00    +0.000 A 
ATOM     36  C   UNL     1       2.248   4.997  20.906  0.00  0.00    +0.000 A 
ENDBRANCH   3  31
TORSDOF 8
ENDMDL
MODEL 9
REMARK VINA RESULT:      -8.1      2.954      4.770
REMARK  Name = 
REMARK  8 active torsions:
REMARK  status: ('A' for Active; 'I' for Inactive)
REMARK    1  A    between atoms: O_1  and  C_2
REMARK    2  A    between atoms: C_2  and  C_3
REMARK    3  A    between atoms: C_2  and  C_10
REMARK    4  A    between atoms: C_3  and  C_4
REMARK    5  A    between atoms: C_10  and  N_11
REMARK    6  A    between atoms: C_14  and  C_15
REMARK    7  A    between atoms: C_17  and  C_18
REMARK    8  A    between atoms: C_24  and  C_25
REMARK                            x       y       z     vdW  Elec       q    Type
REMARK                         _______ _______ _______ _____ _____    ______ ____
ROOT
ATOM      1  C   UNL     1       2.067   8.668  17.761  0.00  0.00    +0.000 A 
ATOM      2  C   UNL     1       3.324   8.358  17.286  0.00  0.00    +0.000 A 
ATOM      3  C   UNL     1       3.658   7.035  17.693  0.00  0.00    +0.000 A 
ATOM      4  C   UNL     1       2.580   6.552  18.435  0.00  0.00    +0.000 A 
ATOM      5  N   UNL     1       1.616   7.544  18.404  0.00  0.00    +0.000 N 
ATOM      6  H   UNL     1       0.720   7.464  18.862  0.00  0.00    +0.000 HD
ENDROOT
BRANCH   4   7
ATOM      7  C   UNL     1       2.340   5.305  19.179  0.00  0.00    +0.000 A 
ATOM      8  C   UNL     1       2.167   4.087  18.505  0.00  0.00    +0.000 A 
ATOM      9  C   UNL     1       1.876   2.913  19.206  0.00  0.00    +0.000 A 
ATOM     10  C   UNL     1       1.814   2.942  20.592  0.00  0.00    +0.000 A 
ATOM     11  F   UNL     1       1.544   1.819  21.266  0.00  0.00    +0.000 F 
ATOM     12  C   UNL     1       2.027   4.126  21.287  0.00  0.00    +0.000 A 
ATOM     13  C   UNL     1       2.278   5.307  20.582  0.00  0.00    +0.000 A 
ENDBRANCH   4   7
BRANCH   1  17
ATOM     14  N   UNL     1       0.610  10.849  20.385  0.00  0.00    +0.000 NA
ATOM     15  C   UNL     1       1.968  10.972  19.837  0.00  0.00    +0.000 C 
ATOM     16  C   UNL     1       1.958  11.125  18.316  0.00  0.00    +0.000 C 
ATOM     17  C   UNL     1       1.257   9.942  17.639  0.00  0.00    +0.000 C 
ATOM     18  C   UNL     1      -0.157   9.848  18.228  0.00  0.00    +0.000 C 
ATOM     19  C   UNL     1      -0.143   9.752  19.756  0.00  0.00    +0.000 C 
BRANCH  14  20
ATOM     20  C   UNL     1       0.635  10.646  21.856  0.00  0.00    +0.000 C 
BRANCH  20  21
ATOM     21  C   UNL     1      -0.758  10.668  22.545  0.00  0.00    +0.000 C 
BRANCH  21  22
ATOM     22  O   UNL     1      -0.713   9.841  23.716  0.00  0.00    +0.000 OA
ATOM     23  H   UNL     1       0.096  10.065  24.205  0.00  0.00    +0.000 HD
ENDBRANCH  21  22
BRANCH  21  24
ATOM     24  C   UNL     1      -1.183  12.081  22.976  0.00  0.00    +0.000 C 
BRANCH  24  25
ATOM     25  C   UNL     1      -2.607  12.439  22.640  0.00  0.00    +0.000 A 
ATOM     26  C   UNL     1      -3.579  12.592  23.639  0.00  0.00    +0.000 A 
ATOM     27  C   UNL     1      -4.902  12.872  23.299  0.00  0.00    +0.000 A 
ATOM     28  C   UNL     1      -5.268  13.004  21.961  0.00  0.00    +0.000 A 
ATOM     29  C   UNL     1      -4.304  12.874  20.961  0.00  0.00    +0.000 A 
ATOM     30  C   UNL     1      -2.984  12.597  21.300  0.00  0.00    +0.000 A 
ENDBRANCH  24  25
ENDBRANCH  21  24
ENDBRANCH  20  21
ENDBRANCH  14  20
ENDBRANCH   1  17
BRANCH   3  31
ATOM     31  C   UNL     1       4.904   6.335  17.401  0.00  0.00    +0.000 A 
ATOM     32  C   UNL     1       5.803   6.055  18.439  0.00  0.00    +0.000 A 
ATOM     33  C   UNL     1       6.979   5.388  18.138  0.00  0.00    +0.000 A 
ATOM     34  N   UNL     1       7.309   4.973  16.896  0.00  0.00    +0.000 NA
ATOM     35  C   UNL     1       6.435   5.265  15.908  0.00  0.00    +0.000 A 
ATOM     36  C   UNL     1       5.250   5.953  16.106  0.00  0.00    +0.000 A 
ENDBRANCH   3  31
TORSDOF 8
ENDMDL
