MODEL 1
REMARK VINA RESULT:      -8.4      0.000      0.000
REMARK  Name = 
REMARK  5 active torsions:
REMARK  status: ('A' for Active; 'I' for Inactive)
REMARK    1  A    between atoms: C_1  and  O_2
REMARK    2  A    between atoms: O_2  and  C_3
REMARK    3  A    between atoms: C_9  and  C_10
REMARK    4  A    between atoms: C_10  and  C_12
REMARK    5  A    between atoms: C_18  and  C_20
REMARK                            x       y       z     vdW  Elec       q    Type
REMARK                         _______ _______ _______ _____ _____    ______ ____
ROOT
ATOM      1  C   UNL     1       1.402  11.023  18.934  0.00  0.00    +0.000 C 
ATOM      2  O   UNL     1       1.911  11.869  18.209  0.00  0.00    +0.000 OA
ATOM      3  N   UNL     1       1.423   9.651  18.680  0.00  0.00    +0.000 N 
ATOM      4  C   UNL     1       2.135   9.128  17.505  0.00  0.00    +0.000 C 
ATOM      5  C   UNL     1       3.230   8.122  17.914  0.00  0.00    +0.000 C 
ATOM      6  N   UNL     1       2.706   7.126  18.866  0.00  0.00    +0.000 N 
ATOM      7  C   UNL     1       2.862   5.770  18.582  0.00  0.00    +0.000 C 
ATOM      8  O   UNL     1       3.513   5.376  17.612  0.00  0.00    +0.000 OA
ATOM      9  C   UNL     1       2.077   7.734  20.049  0.00  0.00    +0.000 C 
ATOM     10  C   UNL     1       0.910   8.623  19.595  0.00  0.00    +0.000 C 
ENDROOT
BRANCH   7  11
ATOM     11  C   UNL     1       2.261   4.725  19.461  0.00  0.00    +0.000 A 
ATOM     12  C   UNL     1       2.537   4.638  20.831  0.00  0.00    +0.000 A 
ATOM     13  C   UNL     1       2.023   3.585  21.590  0.00  0.00    +0.000 A 
ATOM     14  C   UNL     1       1.152   2.668  21.008  0.00  0.00    +0.000 A 
ATOM     15  C   UNL     1       0.782   2.811  19.671  0.00  0.00    +0.000 A 
ATOM     16  C   UNL     1       1.339   3.833  18.897  0.00  0.00    +0.000 A 
ENDBRANCH   7  11
BRANCH   1  17
ATOM     17  C   UNL     1       0.665  11.489  20.187  0.00  0.00    +0.000 C 
ATOM     18  O   UNL     1       1.340  11.591  21.212  0.00  0.00    +0.000 OA
BRANCH  17  25
ATOM     19  C   UNL     1      -3.150  10.608  17.414  0.00  0.00    +0.000 A 
ATOM     20  C   UNL     1      -4.263  11.311  17.866  0.00  0.00    +0.000 A 
ATOM     21  C   UNL     1      -4.186  12.120  19.001  0.00  0.00    +0.000 A 
ATOM     22  C   UNL     1      -2.955  12.204  19.663  0.00  0.00    +0.000 A 
ATOM     23  N   UNL     1      -2.625  12.913  20.791  0.00  0.00    +0.000 N 
ATOM     24  C   UNL     1      -1.306  12.727  21.090  0.00  0.00    +0.000 A 
ATOM     25  C   UNL     1      -0.750  11.867  20.153  0.00  0.00    +0.000 A 
ATOM     26  C   UNL     1      -1.811  11.517  19.246  0.00  0.00    +0.000 A 
ATOM     27  C   UNL     1      -1.932  10.689  18.108  0.00  0.00    +0.000 A 
ATOM     28  H   UNL     1      -3.267  13.489  21.317  0.00  0.00    +0.000 HD
BRANCH  19  30
ATOM     29  C   UNL     1      -3.090  10.433  15.055  0.00  0.00    +0.000 C 
ATOM     30  O   UNL     1      -3.140   9.782  16.320  0.00  0.00    +0.000 OA
ENDBRANCH  19  30
ENDBRANCH  17  25
ENDBRANCH   1  17
TORSDOF 4
ENDMDL
MODEL 2
REMARK VINA RESULT:      -8.1      0.656      1.131
REMARK  Name = 
REMARK  5 active torsions:
REMARK  status: ('A' for Active; 'I' for Inactive)
REMARK    1  A    between atoms: C_1  and  O_2
REMARK    2  A    between atoms: O_2  and  C_3
REMARK    3  A    between atoms: C_9  and  C_10
REMARK    4  A    between atoms: C_10  and  C_12
REMARK    5  A    between atoms: C_18  and  C_20
REMARK                            x       y       z     vdW  Elec       q    Type
REMARK                         _______ _______ _______ _____ _____    ______ ____
ROOT
ATOM      1  C   UNL     1       0.907  11.187  19.317  0.00  0.00    +0.000 C 
ATOM      2  O   UNL     1       1.309  12.100  18.607  0.00  0.00    +0.000 OA
ATOM      3  N   UNL     1       0.979   9.835  18.979  0.00  0.00    +0.000 N 
ATOM      4  C   UNL     1       1.619   9.421  17.722  0.00  0.00    +0.000 C 
ATOM      5  C   UNL     1       2.795   8.458  17.981  0.00  0.00    +0.000 C 
ATOM      6  N   UNL     1       2.405   7.382  18.910  0.00  0.00    +0.000 N 
ATOM      7  C   UNL     1       2.607   6.054  18.533  0.00  0.00    +0.000 C 
ATOM      8  O   UNL     1       3.196   5.755  17.492  0.00  0.00    +0.000 OA
ATOM      9  C   UNL     1       1.844   7.885  20.174  0.00  0.00    +0.000 C 
ATOM     10  C   UNL     1       0.598   8.730  19.868  0.00  0.00    +0.000 C 
ENDROOT
BRANCH   7  11
ATOM     11  C   UNL     1       2.137   4.930  19.391  0.00  0.00    +0.000 A 
ATOM     12  C   UNL     1       1.270   3.933  18.926  0.00  0.00    +0.000 A 
ATOM     13  C   UNL     1       0.784   2.956  19.797  0.00  0.00    +0.000 A 
ATOM     14  C   UNL     1       1.238   2.908  21.112  0.00  0.00    +0.000 A 
ATOM     15  C   UNL     1       2.188   3.829  21.555  0.00  0.00    +0.000 A 
ATOM     16  C   UNL     1       2.632   4.840  20.700  0.00  0.00    +0.000 A 
ENDBRANCH   7  11
BRANCH   1  17
ATOM     17  C   UNL     1       0.251  11.539  20.651  0.00  0.00    +0.000 C 
ATOM     18  O   UNL     1       0.969  11.466  21.648  0.00  0.00    +0.000 OA
BRANCH  17  25
ATOM     19  C   UNL     1      -3.691  11.350  17.923  0.00  0.00    +0.000 A 
ATOM     20  C   UNL     1      -4.739  12.047  18.518  0.00  0.00    +0.000 A 
ATOM     21  C   UNL     1      -4.573  12.665  19.759  0.00  0.00    +0.000 A 
ATOM     22  C   UNL     1      -3.322  12.564  20.379  0.00  0.00    +0.000 A 
ATOM     23  N   UNL     1      -2.911  13.067  21.589  0.00  0.00    +0.000 N 
ATOM     24  C   UNL     1      -1.601  12.750  21.805  0.00  0.00    +0.000 A 
ATOM     25  C   UNL     1      -1.134  12.011  20.729  0.00  0.00    +0.000 A 
ATOM     26  C   UNL     1      -2.241  11.875  19.820  0.00  0.00    +0.000 A 
ATOM     27  C   UNL     1      -2.452  11.242  18.574  0.00  0.00    +0.000 A 
ATOM     28  H   UNL     1      -3.496  13.597  22.219  0.00  0.00    +0.000 HD
BRANCH  19  30
ATOM     29  C   UNL     1      -2.550  10.599  15.991  0.00  0.00    +0.000 C 
ATOM     30  O   UNL     1      -3.770  10.703  16.717  0.00  0.00    +0.000 OA
ENDBRANCH  19  30
ENDBRANCH  17  25
ENDBRANCH   1  17
TORSDOF 4
ENDMDL
MODEL 3
REMARK VINA RESULT:      -7.8      1.711      3.154
REMARK  Name = 
REMARK  5 active torsions:
REMARK  status: ('A' for Active; 'I' for Inactive)
REMARK    1  A    between atoms: C_1  and  O_2
REMARK    2  A    between atoms: O_2  and  C_3
REMARK    3  A    between atoms: C_9  and  C_10
REMARK    4  A    between atoms: C_10  and  C_12
REMARK    5  A    between atoms: C_18  and  C_20
REMARK                            x       y       z     vdW  Elec       q    Type
REMARK                         _______ _______ _______ _____ _____    ______ ____
ROOT
ATOM      1  C   UNL     1       1.288  11.033  18.902  0.00  0.00    +0.000 C 
ATOM      2  O   UNL     1       1.841  11.907  18.246  0.00  0.00    +0.000 OA
ATOM      3  N   UNL     1       1.380   9.667  18.632  0.00  0.00    +0.000 N 
ATOM      4  C   UNL     1       2.226   9.187  17.530  0.00  0.00    +0.000 C 
ATOM      5  C   UNL     1       3.305   8.208  18.036  0.00  0.00    +0.000 C 
ATOM      6  N   UNL     1       2.719   7.180  18.915  0.00  0.00    +0.000 N 
ATOM      7  C   UNL     1       2.947   5.834  18.630  0.00  0.00    +0.000 C 
ATOM      8  O   UNL     1       3.707   5.479  17.727  0.00  0.00    +0.000 OA
ATOM      9  C   UNL     1       1.952   7.747  20.035  0.00  0.00    +0.000 C 
ATOM     10  C   UNL     1       0.809   8.608  19.475  0.00  0.00    +0.000 C 
ENDROOT
BRANCH   7  11
ATOM     11  C   UNL     1       2.293   4.757  19.427  0.00  0.00    +0.000 A 
ATOM     12  C   UNL     1       1.338   3.888  18.886  0.00  0.00    +0.000 A 
ATOM     13  C   UNL     1       0.687   2.959  19.699  0.00  0.00    +0.000 A 
ATOM     14  C   UNL     1       1.056   2.823  21.034  0.00  0.00    +0.000 A 
ATOM     15  C   UNL     1       2.086   3.606  21.555  0.00  0.00    +0.000 A 
ATOM     16  C   UNL     1       2.699   4.575  20.756  0.00  0.00    +0.000 A 
ENDBRANCH   7  11
BRANCH   1  17
ATOM     17  C   UNL     1       0.410  11.454  20.078  0.00  0.00    +0.000 C 
ATOM     18  O   UNL     1       0.953  11.476  21.184  0.00  0.00    +0.000 OA
BRANCH  17  25
ATOM     19  C   UNL     1      -3.326  12.606  22.859  0.00  0.00    +0.000 A 
ATOM     20  C   UNL     1      -4.447  12.895  22.087  0.00  0.00    +0.000 A 
ATOM     21  C   UNL     1      -4.386  12.853  20.693  0.00  0.00    +0.000 A 
ATOM     22  C   UNL     1      -3.165  12.506  20.101  0.00  0.00    +0.000 A 
ATOM     23  N   UNL     1      -2.846  12.404  18.770  0.00  0.00    +0.000 N 
ATOM     24  C   UNL     1      -1.542  12.022  18.631  0.00  0.00    +0.000 A 
ATOM     25  C   UNL     1      -0.979  11.882  19.891  0.00  0.00    +0.000 A 
ATOM     26  C   UNL     1      -2.013  12.208  20.836  0.00  0.00    +0.000 A 
ATOM     27  C   UNL     1      -2.105  12.284  22.244  0.00  0.00    +0.000 A 
ATOM     28  H   UNL     1      -3.486  12.583  18.010  0.00  0.00    +0.000 HD
BRANCH  19  30
ATOM     29  C   UNL     1      -4.521  12.337  24.884  0.00  0.00    +0.000 C 
ATOM     30  O   UNL     1      -3.293  12.637  24.230  0.00  0.00    +0.000 OA
ENDBRANCH  19  30
ENDBRANCH  17  25
ENDBRANCH   1  17
TORSDOF 4
ENDMDL
MODEL 4
REMARK VINA RESULT:      -7.7      2.324      3.850
REMARK  Name = 
REMARK  5 active torsions:
REMARK  status: ('A' for Active; 'I' for Inactive)
REMARK    1  A    between atoms: C_1  and  O_2
REMARK    2  A    between atoms: O_2  and  C_3
REMARK    3  A    between atoms: C_9  and  C_10
REMARK    4  A    between atoms: C_10  and  C_12
REMARK    5  A    between atoms: C_18  and  C_20
REMARK                            x       y       z     vdW  Elec       q    Type
REMARK                         _______ _______ _______ _____ _____    ______ ____
ROOT
ATOM      1  C   UNL     1       0.184   9.786  20.236  0.00  0.00    +0.000 C 
ATOM      2  O   UNL     1      -0.481   9.797  21.265  0.00  0.00    +0.000 OA
ATOM      3  N   UNL     1       1.280   8.952  20.016  0.00  0.00    +0.000 N 
ATOM      4  C   UNL     1       1.674   7.965  21.032  0.00  0.00    +0.000 C 
ATOM      5  C   UNL     1       1.654   6.533  20.460  0.00  0.00    +0.000 C 
ATOM      6  N   UNL     1       2.360   6.468  19.168  0.00  0.00    +0.000 N 
ATOM      7  C   UNL     1       3.379   5.531  18.998  0.00  0.00    +0.000 C 
ATOM      8  O   UNL     1       3.639   4.687  19.858  0.00  0.00    +0.000 OA
ATOM      9  C   UNL     1       1.853   7.437  18.184  0.00  0.00    +0.000 C 
ATOM     10  C   UNL     1       2.017   8.856  18.749  0.00  0.00    +0.000 C 
ENDROOT
BRANCH   7  11
ATOM     11  C   UNL     1       4.190   5.493  17.747  0.00  0.00    +0.000 A 
ATOM     12  C   UNL     1       4.881   6.608  17.259  0.00  0.00    +0.000 A 
ATOM     13  C   UNL     1       5.548   6.547  16.034  0.00  0.00    +0.000 A 
ATOM     14  C   UNL     1       5.612   5.344  15.337  0.00  0.00    +0.000 A 
ATOM     15  C   UNL     1       5.022   4.198  15.869  0.00  0.00    +0.000 A 
ATOM     16  C   UNL     1       4.307   4.273  17.068  0.00  0.00    +0.000 A 
ENDBRANCH   7  11
BRANCH   1  17
ATOM     17  C   UNL     1      -0.181  10.768  19.125  0.00  0.00    +0.000 C 
ATOM     18  O   UNL     1       0.659  11.629  18.860  0.00  0.00    +0.000 OA
BRANCH  17  25
ATOM     19  C   UNL     1      -4.652  12.484  19.405  0.00  0.00    +0.000 A 
ATOM     20  C   UNL     1      -5.449  11.959  18.392  0.00  0.00    +0.000 A 
ATOM     21  C   UNL     1      -4.918  11.075  17.451  0.00  0.00    +0.000 A 
ATOM     22  C   UNL     1      -3.565  10.733  17.563  0.00  0.00    +0.000 A 
ATOM     23  N   UNL     1      -2.811   9.904  16.770  0.00  0.00    +0.000 N 
ATOM     24  C   UNL     1      -1.534   9.837  17.246  0.00  0.00    +0.000 A 
ATOM     25  C   UNL     1      -1.429  10.646  18.367  0.00  0.00    +0.000 A 
ATOM     26  C   UNL     1      -2.726  11.236  18.564  0.00  0.00    +0.000 A 
ATOM     27  C   UNL     1      -3.292  12.146  19.485  0.00  0.00    +0.000 A 
ATOM     28  H   UNL     1      -3.159   9.416  15.956  0.00  0.00    +0.000 HD
BRANCH  19  30
ATOM     29  C   UNL     1      -4.506  13.215  21.652  0.00  0.00    +0.000 C 
ATOM     30  O   UNL     1      -5.086  13.367  20.360  0.00  0.00    +0.000 OA
ENDBRANCH  19  30
ENDBRANCH  17  25
ENDBRANCH   1  17
TORSDOF 4
ENDMDL
MODEL 5
REMARK VINA RESULT:      -7.7      2.724      4.776
REMARK  Name = 
REMARK  5 active torsions:
REMARK  status: ('A' for Active; 'I' for Inactive)
REMARK    1  A    between atoms: C_1  and  O_2
REMARK    2  A    between atoms: O_2  and  C_3
REMARK    3  A    between atoms: C_9  and  C_10
REMARK    4  A    between atoms: C_10  and  C_12
REMARK    5  A    between atoms: C_18  and  C_20
REMARK                            x       y       z     vdW  Elec       q    Type
REMARK                         _______ _______ _______ _____ _____    ______ ____
ROOT
ATOM      1  C   UNL     1       0.120   9.796  19.927  0.00  0.00    +0.000 C 
ATOM      2  O   UNL     1      -0.505   9.847  20.979  0.00  0.00    +0.000 OA
ATOM      3  N   UNL     1       1.258   9.015  19.723  0.00  0.00    +0.000 N 
ATOM      4  C   UNL     1       1.751   8.135  20.793  0.00  0.00    +0.000 C 
ATOM      5  C   UNL     1       1.801   6.664  20.333  0.00  0.00    +0.000 C 
ATOM      6  N   UNL     1       2.459   6.541  19.020  0.00  0.00    +0.000 N 
ATOM      7  C   UNL     1       3.528   5.657  18.878  0.00  0.00    +0.000 C 
ATOM      8  O   UNL     1       3.874   4.900  19.787  0.00  0.00    +0.000 OA
ATOM      9  C   UNL     1       1.855   7.398  17.988  0.00  0.00    +0.000 C 
ATOM     10  C   UNL     1       1.949   8.865  18.437  0.00  0.00    +0.000 C 
ENDROOT
BRANCH   7  11
ATOM     11  C   UNL     1       4.291   5.571  17.600  0.00  0.00    +0.000 A 
ATOM     12  C   UNL     1       4.887   6.685  16.997  0.00  0.00    +0.000 A 
ATOM     13  C   UNL     1       5.510   6.568  15.753  0.00  0.00    +0.000 A 
ATOM     14  C   UNL     1       5.627   5.319  15.149  0.00  0.00    +0.000 A 
ATOM     15  C   UNL     1       5.136   4.184  15.794  0.00  0.00    +0.000 A 
ATOM     16  C   UNL     1       4.464   4.310  17.013  0.00  0.00    +0.000 A 
ENDBRANCH   7  11
BRANCH   1  17
ATOM     17  C   UNL     1      -0.349  10.664  18.762  0.00  0.00    +0.000 C 
ATOM     18  O   UNL     1      -0.828  10.070  17.796  0.00  0.00    +0.000 OA
BRANCH  17  25
ATOM     19  C   UNL     1       2.984  14.093  18.368  0.00  0.00    +0.000 A 
ATOM     20  C   UNL     1       2.426  15.352  18.572  0.00  0.00    +0.000 A 
ATOM     21  C   UNL     1       1.060  15.496  18.828  0.00  0.00    +0.000 A 
ATOM     22  C   UNL     1       0.277  14.337  18.875  0.00  0.00    +0.000 A 
ATOM     23  N   UNL     1      -1.072  14.211  19.096  0.00  0.00    +0.000 N 
ATOM     24  C   UNL     1      -1.427  12.893  19.075  0.00  0.00    +0.000 A 
ATOM     25  C   UNL     1      -0.299  12.128  18.822  0.00  0.00    +0.000 A 
ATOM     26  C   UNL     1       0.793  13.052  18.676  0.00  0.00    +0.000 A 
ATOM     27  C   UNL     1       2.175  12.946  18.396  0.00  0.00    +0.000 A 
ATOM     28  H   UNL     1      -1.703  14.984  19.254  0.00  0.00    +0.000 HD
BRANCH  19  30
ATOM     29  C   UNL     1       5.094  15.017  17.826  0.00  0.00    +0.000 C 
ATOM     30  O   UNL     1       4.308  13.861  18.098  0.00  0.00    +0.000 OA
ENDBRANCH  19  30
ENDBRANCH  17  25
ENDBRANCH   1  17
TORSDOF 4
ENDMDL
MODEL 6
REMARK VINA RESULT:      -7.6      1.789      3.456
REMARK  Name = 
REMARK  5 active torsions:
REMARK  status: ('A' for Active; 'I' for Inactive)
REMARK    1  A    between atoms: C_1  and  O_2
REMARK    2  A    between atoms: O_2  and  C_3
REMARK    3  A    between atoms: C_9  and  C_10
REMARK    4  A    between atoms: C_10  and  C_12
REMARK    5  A    between atoms: C_18  and  C_20
REMARK                            x       y       z     vdW  Elec       q    Type
REMARK                         _______ _______ _______ _____ _____    ______ ____
ROOT
ATOM      1  C   UNL     1       0.958  11.181  19.203  0.00  0.00    +0.000 C 
ATOM      2  O   UNL     1       1.404  12.077  18.497  0.00  0.00    +0.000 OA
ATOM      3  N   UNL     1       1.050   9.821  18.903  0.00  0.00    +0.000 N 
ATOM      4  C   UNL     1       1.765   9.377  17.698  0.00  0.00    +0.000 C 
ATOM      5  C   UNL     1       2.922   8.422  18.051  0.00  0.00    +0.000 C 
ATOM      6  N   UNL     1       2.475   7.368  18.980  0.00  0.00    +0.000 N 
ATOM      7  C   UNL     1       2.699   6.032  18.648  0.00  0.00    +0.000 C 
ATOM      8  O   UNL     1       3.350   5.707  17.653  0.00  0.00    +0.000 OA
ATOM      9  C   UNL     1       1.839   7.901  20.195  0.00  0.00    +0.000 C 
ATOM     10  C   UNL     1       0.615   8.737  19.794  0.00  0.00    +0.000 C 
ENDROOT
BRANCH   7  11
ATOM     11  C   UNL     1       2.177   4.928  19.503  0.00  0.00    +0.000 A 
ATOM     12  C   UNL     1       2.504   4.800  20.858  0.00  0.00    +0.000 A 
ATOM     13  C   UNL     1       2.064   3.695  21.591  0.00  0.00    +0.000 A 
ATOM     14  C   UNL     1       1.215   2.763  21.001  0.00  0.00    +0.000 A 
ATOM     15  C   UNL     1       0.792   2.941  19.684  0.00  0.00    +0.000 A 
ATOM     16  C   UNL     1       1.276   4.017  18.935  0.00  0.00    +0.000 A 
ENDBRANCH   7  11
BRANCH   1  17
ATOM     17  C   UNL     1       0.223  11.565  20.486  0.00  0.00    +0.000 C 
ATOM     18  O   UNL     1       0.879  11.514  21.527  0.00  0.00    +0.000 OA
BRANCH  17  25
ATOM     19  C   UNL     1      -2.751  13.860  23.469  0.00  0.00    +0.000 A 
ATOM     20  C   UNL     1      -4.014  13.998  22.900  0.00  0.00    +0.000 A 
ATOM     21  C   UNL     1      -4.275  13.521  21.614  0.00  0.00    +0.000 A 
ATOM     22  C   UNL     1      -3.230  12.897  20.922  0.00  0.00    +0.000 A 
ATOM     23  N   UNL     1      -3.227  12.359  19.659  0.00  0.00    +0.000 N 
ATOM     24  C   UNL     1      -1.998  11.834  19.379  0.00  0.00    +0.000 A 
ATOM     25  C   UNL     1      -1.163  12.039  20.468  0.00  0.00    +0.000 A 
ATOM     26  C   UNL     1      -1.946  12.736  21.453  0.00  0.00    +0.000 A 
ATOM     27  C   UNL     1      -1.711  13.252  22.747  0.00  0.00    +0.000 A 
ATOM     28  H   UNL     1      -4.021  12.352  19.035  0.00  0.00    +0.000 HD
BRANCH  19  30
ATOM     29  C   UNL     1      -1.293  15.199  24.765  0.00  0.00    +0.000 C 
ATOM     30  O   UNL     1      -2.404  14.311  24.716  0.00  0.00    +0.000 OA
ENDBRANCH  19  30
ENDBRANCH  17  25
ENDBRANCH   1  17
TORSDOF 4
ENDMDL
MODEL 7
REMARK VINA RESULT:      -7.6      2.307      3.440
REMARK  Name = 
REMARK  5 active torsions:
REMARK  status: ('A' for Active; 'I' for Inactive)
REMARK    1  A    between atoms: C_1  and  O_2
REMARK    2  A    between atoms: O_2  and  C_3
REMARK    3  A    between atoms: C_9  and  C_10
REMARK    4  A    between atoms: C_10  and  C_12
REMARK    5  A    between atoms: C_18  and  C_20
REMARK                            x       y       z     vdW  Elec       q    Type
REMARK                         _______ _______ _______ _____ _____    ______ ____
ROOT
ATOM      1  C   UNL     1       0.781   8.327  20.472  0.00  0.00    +0.000 C 
ATOM      2  O   UNL     1      -0.087   8.181  21.324  0.00  0.00    +0.000 OA
ATOM      3  N   UNL     1       1.828   7.432  20.252  0.00  0.00    +0.000 N 
ATOM      4  C   UNL     1       1.914   6.188  21.032  0.00  0.00    +0.000 C 
ATOM      5  C   UNL     1       1.902   4.948  20.115  0.00  0.00    +0.000 C 
ATOM      6  N   UNL     1       2.861   5.100  19.006  0.00  0.00    +0.000 N 
ATOM      7  C   UNL     1       3.814   4.104  18.793  0.00  0.00    +0.000 C 
ATOM      8  O   UNL     1       3.815   3.053  19.438  0.00  0.00    +0.000 OA
ATOM      9  C   UNL     1       2.658   6.334  18.231  0.00  0.00    +0.000 C 
ATOM     10  C   UNL     1       2.810   7.544  19.165  0.00  0.00    +0.000 C 
ENDROOT
BRANCH   7  11
ATOM     11  C   UNL     1       4.869   4.258  17.751  0.00  0.00    +0.000 A 
ATOM     12  C   UNL     1       6.195   4.587  18.058  0.00  0.00    +0.000 A 
ATOM     13  C   UNL     1       7.122   4.813  17.039  0.00  0.00    +0.000 A 
ATOM     14  C   UNL     1       6.757   4.615  15.711  0.00  0.00    +0.000 A 
ATOM     15  C   UNL     1       5.470   4.178  15.399  0.00  0.00    +0.000 A 
ATOM     16  C   UNL     1       4.526   4.006  16.416  0.00  0.00    +0.000 A 
ENDBRANCH   7  11
BRANCH   1  17
ATOM     17  C   UNL     1       0.744   9.584  19.606  0.00  0.00    +0.000 C 
ATOM     18  O   UNL     1       1.772   9.847  18.981  0.00  0.00    +0.000 OA
BRANCH  17  25
ATOM     19  C   UNL     1      -2.719  10.206  16.345  0.00  0.00    +0.000 A 
ATOM     20  C   UNL     1      -3.622  11.180  16.761  0.00  0.00    +0.000 A 
ATOM     21  C   UNL     1      -3.469  11.817  17.994  0.00  0.00    +0.000 A 
ATOM     22  C   UNL     1      -2.379  11.448  18.791  0.00  0.00    +0.000 A 
ATOM     23  N   UNL     1      -2.016  11.911  20.031  0.00  0.00    +0.000 N 
ATOM     24  C   UNL     1      -0.872  11.292  20.444  0.00  0.00    +0.000 A 
ATOM     25  C   UNL     1      -0.472  10.390  19.469  0.00  0.00    +0.000 A 
ATOM     26  C   UNL     1      -1.447  10.476  18.414  0.00  0.00    +0.000 A 
ATOM     27  C   UNL     1      -1.646   9.835  17.171  0.00  0.00    +0.000 A 
ATOM     28  H   UNL     1      -2.524  12.610  20.554  0.00  0.00    +0.000 HD
BRANCH  19  30
ATOM     29  C   UNL     1      -3.627  10.111  14.161  0.00  0.00    +0.000 C 
ATOM     30  O   UNL     1      -2.801   9.521  15.160  0.00  0.00    +0.000 OA
ENDBRANCH  19  30
ENDBRANCH  17  25
ENDBRANCH   1  17
TORSDOF 4
ENDMDL
MODEL 8
REMARK VINA RESULT:      -7.6      1.832      3.794
REMARK  Name = 
REMARK  5 active torsions:
REMARK  status: ('A' for Active; 'I' for Inactive)
REMARK    1  A    between atoms: C_1  and  O_2
REMARK    2  A    between atoms: O_2  and  C_3
REMARK    3  A    between atoms: C_9  and  C_10
REMARK    4  A    between atoms: C_10  and  C_12
REMARK    5  A    between atoms: C_18  and  C_20
REMARK                            x       y       z     vdW  Elec       q    Type
REMARK                         _______ _______ _______ _____ _____    ______ ____
ROOT
ATOM      1  C   UNL     1       1.120  11.089  19.224  0.00  0.00    +0.000 C 
ATOM      2  O   UNL     1       1.551  11.977  18.499  0.00  0.00    +0.000 OA
ATOM      3  N   UNL     1       1.149   9.730  18.909  0.00  0.00    +0.000 N 
ATOM      4  C   UNL     1       1.777   9.275  17.660  0.00  0.00    +0.000 C 
ATOM      5  C   UNL     1       2.922   8.280  17.936  0.00  0.00    +0.000 C 
ATOM      6  N   UNL     1       2.497   7.232  18.882  0.00  0.00    +0.000 N 
ATOM      7  C   UNL     1       2.658   5.893  18.528  0.00  0.00    +0.000 C 
ATOM      8  O   UNL     1       3.238   5.557  17.493  0.00  0.00    +0.000 OA
ATOM      9  C   UNL     1       1.952   7.774  20.137  0.00  0.00    +0.000 C 
ATOM     10  C   UNL     1       0.734   8.652  19.816  0.00  0.00    +0.000 C 
ENDROOT
BRANCH   7  11
ATOM     11  C   UNL     1       2.152   4.798  19.404  0.00  0.00    +0.000 A 
ATOM     12  C   UNL     1       1.237   3.836  18.962  0.00  0.00    +0.000 A 
ATOM     13  C   UNL     1       0.722   2.889  19.849  0.00  0.00    +0.000 A 
ATOM     14  C   UNL     1       1.191   2.835  21.159  0.00  0.00    +0.000 A 
ATOM     15  C   UNL     1       2.186   3.718  21.579  0.00  0.00    +0.000 A 
ATOM     16  C   UNL     1       2.661   4.701  20.707  0.00  0.00    +0.000 A 
ENDBRANCH   7  11
BRANCH   1  17
ATOM     17  C   UNL     1       0.476  11.484  20.551  0.00  0.00    +0.000 C 
ATOM     18  O   UNL     1       1.134  11.258  21.567  0.00  0.00    +0.000 OA
BRANCH  17  25
ATOM     19  C   UNL     1      -1.834  14.423  23.559  0.00  0.00    +0.000 A 
ATOM     20  C   UNL     1      -3.111  14.711  23.086  0.00  0.00    +0.000 A 
ATOM     21  C   UNL     1      -3.560  14.186  21.872  0.00  0.00    +0.000 A 
ATOM     22  C   UNL     1      -2.688  13.360  21.153  0.00  0.00    +0.000 A 
ATOM     23  N   UNL     1      -2.883  12.736  19.946  0.00  0.00    +0.000 N 
ATOM     24  C   UNL     1      -1.777  12.010  19.613  0.00  0.00    +0.000 A 
ATOM     25  C   UNL     1      -0.822  12.163  20.606  0.00  0.00    +0.000 A 
ATOM     26  C   UNL     1      -1.397  13.043  21.589  0.00  0.00    +0.000 A 
ATOM     27  C   UNL     1      -0.968  13.611  22.809  0.00  0.00    +0.000 A 
ATOM     28  H   UNL     1      -3.726  12.806  19.393  0.00  0.00    +0.000 HD
BRANCH  19  30
ATOM     29  C   UNL     1      -2.255  15.272  25.728  0.00  0.00    +0.000 C 
ATOM     30  O   UNL     1      -1.308  14.905  24.729  0.00  0.00    +0.000 OA
ENDBRANCH  19  30
ENDBRANCH  17  25
ENDBRANCH   1  17
TORSDOF 4
ENDMDL
MODEL 9
REMARK VINA RESULT:      -7.4      2.144      3.425
REMARK  Name = 
REMARK  5 active torsions:
REMARK  status: ('A' for Active; 'I' for Inactive)
REMARK    1  A    between atoms: C_1  and  O_2
REMARK    2  A    between atoms: O_2  and  C_3
REMARK    3  A    between atoms: C_9  and  C_10
REMARK    4  A    between atoms: C_10  and  C_12
REMARK    5  A    between atoms: C_18  and  C_20
REMARK                            x       y       z     vdW  Elec       q    Type
REMARK                         _______ _______ _______ _____ _____    ______ ____
ROOT
ATOM      1  C   UNL     1       0.625   8.864  20.351  0.00  0.00    +0.000 C 
ATOM      2  O   UNL     1      -0.137   8.739  21.301  0.00  0.00    +0.000 OA
ATOM      3  N   UNL     1       1.713   8.029  20.096  0.00  0.00    +0.000 N 
ATOM      4  C   UNL     1       1.976   6.873  20.966  0.00  0.00    +0.000 C 
ATOM      5  C   UNL     1       1.970   5.555  20.166  0.00  0.00    +0.000 C 
ATOM      6  N   UNL     1       2.796   5.668  18.950  0.00  0.00    +0.000 N 
ATOM      7  C   UNL     1       3.799   4.726  18.721  0.00  0.00    +0.000 C 
ATOM      8  O   UNL     1       3.949   3.743  19.450  0.00  0.00    +0.000 OA
ATOM      9  C   UNL     1       2.416   6.806  18.098  0.00  0.00    +0.000 C 
ATOM     10  C   UNL     1       2.566   8.106  18.903  0.00  0.00    +0.000 C 
ENDROOT
BRANCH   7  11
ATOM     11  C   UNL     1       4.726   4.855  17.561  0.00  0.00    +0.000 A 
ATOM     12  C   UNL     1       4.531   4.170  16.356  0.00  0.00    +0.000 A 
ATOM     13  C   UNL     1       5.480   4.252  15.335  0.00  0.00    +0.000 A 
ATOM     14  C   UNL     1       6.579   5.095  15.472  0.00  0.00    +0.000 A 
ATOM     15  C   UNL     1       6.724   5.868  16.623  0.00  0.00    +0.000 A 
ATOM     16  C   UNL     1       5.804   5.744  17.668  0.00  0.00    +0.000 A 
ENDBRANCH   7  11
BRANCH   1  17
ATOM     17  C   UNL     1       0.399  10.029  19.389  0.00  0.00    +0.000 C 
ATOM     18  O   UNL     1       1.324  10.288  18.618  0.00  0.00    +0.000 OA
BRANCH  17  25
ATOM     19  C   UNL     1      -3.391  10.265  16.457  0.00  0.00    +0.000 A 
ATOM     20  C   UNL     1      -4.314  11.200  16.916  0.00  0.00    +0.000 A 
ATOM     21  C   UNL     1      -4.089  11.907  18.099  0.00  0.00    +0.000 A 
ATOM     22  C   UNL     1      -2.905  11.649  18.801  0.00  0.00    +0.000 A 
ATOM     23  N   UNL     1      -2.459  12.196  19.978  0.00  0.00    +0.000 N 
ATOM     24  C   UNL     1      -1.242  11.672  20.303  0.00  0.00    +0.000 A 
ATOM     25  C   UNL     1      -0.876  10.749  19.336  0.00  0.00    +0.000 A 
ATOM     26  C   UNL     1      -1.949  10.719  18.378  0.00  0.00    +0.000 A 
ATOM     27  C   UNL     1      -2.222  10.004  17.190  0.00  0.00    +0.000 A 
ATOM     28  H   UNL     1      -2.961  12.887  20.517  0.00  0.00    +0.000 HD
BRANCH  19  30
ATOM     29  C   UNL     1      -2.941  10.056  14.143  0.00  0.00    +0.000 C 
ATOM     30  O   UNL     1      -3.539   9.517  15.318  0.00  0.00    +0.000 OA
ENDBRANCH  19  30
ENDBRANCH  17  25
ENDBRANCH   1  17
TORSDOF 4
ENDMDL
