MODEL 1
REMARK VINA RESULT:      -9.1      0.000      0.000
REMARK  Name = 
REMARK  8 active torsions:
REMARK  status: ('A' for Active; 'I' for Inactive)
REMARK    1  A    between atoms: C_2  and  C_3
REMARK    2  A    between atoms: C_3  and  N_4
REMARK    3  A    between atoms: N_4  and  C_5
REMARK    4  A    between atoms: C_5  and  C_6
REMARK    5  A    between atoms: C_17  and  C_19
REMARK    6  A    between atoms: C_19  and  N_20
REMARK    7  A    between atoms: C_23  and  C_24
REMARK    8  A    between atoms: C_24  and  C_26
REMARK                            x       y       z     vdW  Elec       q    Type
REMARK                         _______ _______ _______ _____ _____    ______ ____
ROOT
ATOM      1  N   UNL     1       1.569   5.064  19.823  0.00  0.00    +0.000 N 
ATOM      2  C   UNL     1       1.815   4.395  18.615  0.00  0.00    +0.000 C 
ATOM      3  O   UNL     1       1.324   3.282  18.394  0.00  0.00    +0.000 OA
ENDROOT
BRANCH   1   4
ATOM      4  C   UNL     1       0.986   4.177  20.851  0.00  0.00    +0.000 C 
BRANCH   4   6
ATOM      5  N   UNL     1       2.939   2.508  21.916  0.00  0.00    +0.000 NA
ATOM      6  C   UNL     1       2.053   3.265  21.433  0.00  0.00    +0.000 C 
ENDBRANCH   4   6
ENDBRANCH   1   4
BRANCH   1   7
ATOM      7  C   UNL     1       2.372   6.243  20.222  0.00  0.00    +0.000 C 
BRANCH   7   8
ATOM      8  C   UNL     1       1.836   7.683  20.383  0.00  0.00    +0.000 A 
ATOM      9  N   UNL     1       1.492   8.431  19.385  0.00  0.00    +0.000 NA
ATOM     10  C   UNL     1       0.802   9.592  19.667  0.00  0.00    +0.000 A 
ATOM     11  C   UNL     1       0.523  10.042  20.902  0.00  0.00    +0.000 A 
ATOM     12  C   UNL     1       1.070   9.279  22.032  0.00  0.00    +0.000 A 
ATOM     13  O   UNL     1       0.964   9.649  23.195  0.00  0.00    +0.000 OA
ATOM     14  N   UNL     1       1.650   8.083  21.692  0.00  0.00    +0.000 N 
ATOM     15  C   UNL     1      -0.453  11.142  21.200  0.00  0.00    +0.000 C 
ATOM     16  O   UNL     1      -0.994  11.754  20.015  0.00  0.00    +0.000 OA
ATOM     17  C   UNL     1      -1.232  10.801  18.975  0.00  0.00    +0.000 C 
ATOM     18  C   UNL     1       0.108  10.250  18.501  0.00  0.00    +0.000 C 
ATOM     19  H   UNL     1       1.974   7.527  22.468  0.00  0.00    +0.000 HD
ENDBRANCH   7   8
ENDBRANCH   1   7
BRANCH   2  20
ATOM     20  C   UNL     1       2.701   5.033  17.538  0.00  0.00    +0.000 C 
BRANCH  20  21
ATOM     21  N   UNL     1       3.945   5.656  18.073  0.00  0.00    +0.000 NA
ATOM     22  C   UNL     1       4.766   4.666  18.801  0.00  0.00    +0.000 C 
ATOM     23  C   UNL     1       6.077   5.285  19.302  0.00  0.00    +0.000 C 
ATOM     24  C   UNL     1       6.917   5.858  18.158  0.00  0.00    +0.000 C 
ATOM     25  C   UNL     1       6.044   6.806  17.324  0.00  0.00    +0.000 C 
ATOM     26  C   UNL     1       4.707   6.181  16.918  0.00  0.00    +0.000 C 
BRANCH  24  27
ATOM     27  C   UNL     1       7.535   4.745  17.301  0.00  0.00    +0.000 C 
ATOM     28  O   UNL     1       8.442   4.024  17.717  0.00  0.00    +0.000 OA
BRANCH  27  29
ATOM     29  C   UNL     1       7.044   4.516  15.909  0.00  0.00    +0.000 A 
ATOM     30  C   UNL     1       7.689   5.195  14.862  0.00  0.00    +0.000 A 
ATOM     31  C   UNL     1       7.297   4.987  13.538  0.00  0.00    +0.000 A 
ATOM     32  C   UNL     1       6.268   4.095  13.264  0.00  0.00    +0.000 A 
ATOM     33  F   UNL     1       5.904   3.878  11.994  0.00  0.00    +0.000 F 
ATOM     34  C   UNL     1       5.619   3.415  14.289  0.00  0.00    +0.000 A 
ATOM     35  C   UNL     1       6.002   3.626  15.617  0.00  0.00    +0.000 A 
ENDBRANCH  27  29
ENDBRANCH  24  27
ENDBRANCH  20  21
ENDBRANCH   2  20
TORSDOF 8
ENDMDL
MODEL 2
REMARK VINA RESULT:      -8.9      3.814      8.829
REMARK  Name = 
REMARK  8 active torsions:
REMARK  status: ('A' for Active; 'I' for Inactive)
REMARK    1  A    between atoms: C_2  and  C_3
REMARK    2  A    between atoms: C_3  and  N_4
REMARK    3  A    between atoms: N_4  and  C_5
REMARK    4  A    between atoms: C_5  and  C_6
REMARK    5  A    between atoms: C_17  and  C_19
REMARK    6  A    between atoms: C_19  and  N_20
REMARK    7  A    between atoms: C_23  and  C_24
REMARK    8  A    between atoms: C_24  and  C_26
REMARK                            x       y       z     vdW  Elec       q    Type
REMARK                         _______ _______ _______ _____ _____    ______ ____
ROOT
ATOM      1  N   UNL     1       1.900   6.200  20.110  0.00  0.00    +0.000 N 
ATOM      2  C   UNL     1       1.456   7.480  20.476  0.00  0.00    +0.000 C 
ATOM      3  O   UNL     1       0.878   7.668  21.553  0.00  0.00    +0.000 OA
ENDROOT
BRANCH   1   4
ATOM      4  C   UNL     1       1.314   5.138  20.954  0.00  0.00    +0.000 C 
BRANCH   4   6
ATOM      5  N   UNL     1       0.788   2.868  19.436  0.00  0.00    +0.000 NA
ATOM      6  C   UNL     1       1.027   3.898  20.125  0.00  0.00    +0.000 C 
ENDBRANCH   4   6
ENDBRANCH   1   4
BRANCH   1   7
ATOM      7  C   UNL     1       2.321   5.905  18.721  0.00  0.00    +0.000 C 
BRANCH   7   8
ATOM      8  C   UNL     1       3.683   5.308  18.303  0.00  0.00    +0.000 A 
ATOM      9  N   UNL     1       3.912   4.803  17.134  0.00  0.00    +0.000 NA
ATOM     10  C   UNL     1       5.223   4.532  16.802  0.00  0.00    +0.000 A 
ATOM     11  C   UNL     1       6.274   4.684  17.625  0.00  0.00    +0.000 A 
ATOM     12  C   UNL     1       5.987   5.091  19.008  0.00  0.00    +0.000 A 
ATOM     13  O   UNL     1       6.855   5.164  19.870  0.00  0.00    +0.000 OA
ATOM     14  N   UNL     1       4.685   5.448  19.245  0.00  0.00    +0.000 N 
ATOM     15  C   UNL     1       7.706   4.655  17.180  0.00  0.00    +0.000 C 
ATOM     16  O   UNL     1       7.859   4.337  15.785  0.00  0.00    +0.000 OA
ATOM     17  C   UNL     1       6.836   4.931  14.981  0.00  0.00    +0.000 C 
ATOM     18  C   UNL     1       5.499   4.291  15.339  0.00  0.00    +0.000 C 
ATOM     19  H   UNL     1       4.494   5.785  20.176  0.00  0.00    +0.000 HD
ENDBRANCH   7   8
ENDBRANCH   1   7
BRANCH   2  20
ATOM     20  C   UNL     1       1.680   8.678  19.544  0.00  0.00    +0.000 C 
BRANCH  20  21
ATOM     21  N   UNL     1       0.749   9.815  19.792  0.00  0.00    +0.000 NA
ATOM     22  C   UNL     1       1.015  10.445  21.103  0.00  0.00    +0.000 C 
ATOM     23  C   UNL     1       0.103  11.655  21.339  0.00  0.00    +0.000 C 
ATOM     24  C   UNL     1       0.268  12.720  20.253  0.00  0.00    +0.000 C 
ATOM     25  C   UNL     1       0.105  12.060  18.876  0.00  0.00    +0.000 C 
ATOM     26  C   UNL     1       0.967  10.805  18.713  0.00  0.00    +0.000 C 
BRANCH  24  27
ATOM     27  C   UNL     1       1.610  13.453  20.382  0.00  0.00    +0.000 C 
ATOM     28  O   UNL     1       2.386  13.242  21.314  0.00  0.00    +0.000 OA
BRANCH  27  29
ATOM     29  C   UNL     1       2.007  14.467  19.360  0.00  0.00    +0.000 A 
ATOM     30  C   UNL     1       1.260  15.655  19.285  0.00  0.00    +0.000 A 
ATOM     31  C   UNL     1       1.611  16.655  18.377  0.00  0.00    +0.000 A 
ATOM     32  C   UNL     1       2.713  16.468  17.551  0.00  0.00    +0.000 A 
ATOM     33  F   UNL     1       3.065  17.434  16.693  0.00  0.00    +0.000 F 
ATOM     34  C   UNL     1       3.463  15.299  17.612  0.00  0.00    +0.000 A 
ATOM     35  C   UNL     1       3.110  14.292  18.515  0.00  0.00    +0.000 A 
ENDBRANCH  27  29
ENDBRANCH  24  27
ENDBRANCH  20  21
ENDBRANCH   2  20
TORSDOF 8
ENDMDL
MODEL 3
REMARK VINA RESULT:      -8.8      3.293      9.246
REMARK  Name = 
REMARK  8 active torsions:
REMARK  status: ('A' for Active; 'I' for Inactive)
REMARK    1  A    between atoms: C_2  and  C_3
REMARK    2  A    between atoms: C_3  and  N_4
REMARK    3  A    between atoms: N_4  and  C_5
REMARK    4  A    between atoms: C_5  and  C_6
REMARK    5  A    between atoms: C_17  and  C_19
REMARK    6  A    between atoms: C_19  and  N_20
REMARK    7  A    between atoms: C_23  and  C_24
REMARK    8  A    between atoms: C_24  and  C_26
REMARK                            x       y       z     vdW  Elec       q    Type
REMARK                         _______ _______ _______ _____ _____    ______ ____
ROOT
ATOM      1  N   UNL     1       2.057   6.256  20.227  0.00  0.00    +0.000 N 
ATOM      2  C   UNL     1       1.468   7.473  20.602  0.00  0.00    +0.000 C 
ATOM      3  O   UNL     1       0.942   7.609  21.712  0.00  0.00    +0.000 OA
ENDROOT
BRANCH   1   4
ATOM      4  C   UNL     1       1.677   5.146  21.125  0.00  0.00    +0.000 C 
BRANCH   4   6
ATOM      5  N   UNL     1       0.652   3.016  19.660  0.00  0.00    +0.000 NA
ATOM      6  C   UNL     1       1.117   3.982  20.325  0.00  0.00    +0.000 C 
ENDBRANCH   4   6
ENDBRANCH   1   4
BRANCH   1   7
ATOM      7  C   UNL     1       2.423   5.985  18.817  0.00  0.00    +0.000 C 
BRANCH   7   8
ATOM      8  C   UNL     1       3.757   5.371  18.338  0.00  0.00    +0.000 A 
ATOM      9  N   UNL     1       3.941   4.913  17.142  0.00  0.00    +0.000 NA
ATOM     10  C   UNL     1       5.235   4.620  16.764  0.00  0.00    +0.000 A 
ATOM     11  C   UNL     1       6.310   4.705  17.566  0.00  0.00    +0.000 A 
ATOM     12  C   UNL     1       6.070   5.056  18.972  0.00  0.00    +0.000 A 
ATOM     13  O   UNL     1       6.960   5.065  19.813  0.00  0.00    +0.000 OA
ATOM     14  N   UNL     1       4.784   5.439  19.258  0.00  0.00    +0.000 N 
ATOM     15  C   UNL     1       7.730   4.656  17.083  0.00  0.00    +0.000 C 
ATOM     16  O   UNL     1       7.838   4.398  15.671  0.00  0.00    +0.000 OA
ATOM     17  C   UNL     1       6.813   5.057  14.921  0.00  0.00    +0.000 C 
ATOM     18  C   UNL     1       5.468   4.438  15.285  0.00  0.00    +0.000 C 
ATOM     19  H   UNL     1       4.627   5.738  20.208  0.00  0.00    +0.000 HD
ENDBRANCH   7   8
ENDBRANCH   1   7
BRANCH   2  20
ATOM     20  C   UNL     1       1.466   8.666  19.638  0.00  0.00    +0.000 C 
BRANCH  20  21
ATOM     21  N   UNL     1       1.018   9.944  20.263  0.00  0.00    +0.000 NA
ATOM     22  C   UNL     1       1.406  11.106  19.434  0.00  0.00    +0.000 C 
ATOM     23  C   UNL     1       0.895  12.420  20.038  0.00  0.00    +0.000 C 
ATOM     24  C   UNL     1      -0.627  12.427  20.194  0.00  0.00    +0.000 C 
ATOM     25  C   UNL     1      -1.058  11.167  20.958  0.00  0.00    +0.000 C 
ATOM     26  C   UNL     1      -0.456   9.885  20.376  0.00  0.00    +0.000 C 
BRANCH  24  27
ATOM     27  C   UNL     1      -1.331  12.544  18.836  0.00  0.00    +0.000 C 
ATOM     28  O   UNL     1      -0.811  13.106  17.872  0.00  0.00    +0.000 OA
BRANCH  27  29
ATOM     29  C   UNL     1      -2.700  11.973  18.654  0.00  0.00    +0.000 A 
ATOM     30  C   UNL     1      -3.743  12.496  19.438  0.00  0.00    +0.000 A 
ATOM     31  C   UNL     1      -5.048  12.028  19.281  0.00  0.00    +0.000 A 
ATOM     32  C   UNL     1      -5.309  11.043  18.336  0.00  0.00    +0.000 A 
ATOM     33  F   UNL     1      -6.564  10.606  18.168  0.00  0.00    +0.000 F 
ATOM     34  C   UNL     1      -4.289  10.514  17.553  0.00  0.00    +0.000 A 
ATOM     35  C   UNL     1      -2.979  10.975  17.712  0.00  0.00    +0.000 A 
ENDBRANCH  27  29
ENDBRANCH  24  27
ENDBRANCH  20  21
ENDBRANCH   2  20
TORSDOF 8
ENDMDL
MODEL 4
REMARK VINA RESULT:      -8.8      2.691      4.500
REMARK  Name = 
REMARK  8 active torsions:
REMARK  status: ('A' for Active; 'I' for Inactive)
REMARK    1  A    between atoms: C_2  and  C_3
REMARK    2  A    between atoms: C_3  and  N_4
REMARK    3  A    between atoms: N_4  and  C_5
REMARK    4  A    between atoms: C_5  and  C_6
REMARK    5  A    between atoms: C_17  and  C_19
REMARK    6  A    between atoms: C_19  and  N_20
REMARK    7  A    between atoms: C_23  and  C_24
REMARK    8  A    between atoms: C_24  and  C_26
REMARK                            x       y       z     vdW  Elec       q    Type
REMARK                         _______ _______ _______ _____ _____    ______ ____
ROOT
ATOM      1  N   UNL     1       1.112   8.762  20.908  0.00  0.00    +0.000 N 
ATOM      2  C   UNL     1       1.602   7.477  20.629  0.00  0.00    +0.000 C 
ATOM      3  O   UNL     1       1.791   6.658  21.536  0.00  0.00    +0.000 OA
ENDROOT
BRANCH   1   4
ATOM      4  C   UNL     1       1.187   9.093  22.346  0.00  0.00    +0.000 C 
BRANCH   4   6
ATOM      5  N   UNL     1      -1.118  10.421  23.160  0.00  0.00    +0.000 NA
ATOM      6  C   UNL     1      -0.072   9.818  22.791  0.00  0.00    +0.000 C 
ENDBRANCH   4   6
ENDBRANCH   1   4
BRANCH   1   7
ATOM      7  C   UNL     1       1.159   9.837  19.890  0.00  0.00    +0.000 C 
BRANCH   7   8
ATOM      8  C   UNL     1      -0.067  10.488  19.214  0.00  0.00    +0.000 A 
ATOM      9  N   UNL     1      -0.468  10.184  18.022  0.00  0.00    +0.000 NA
ATOM     10  C   UNL     1      -1.707  10.647  17.629  0.00  0.00    +0.000 A 
ATOM     11  C   UNL     1      -2.498  11.449  18.362  0.00  0.00    +0.000 A 
ATOM     12  C   UNL     1      -1.960  11.933  19.640  0.00  0.00    +0.000 A 
ATOM     13  O   UNL     1      -2.550  12.745  20.342  0.00  0.00    +0.000 OA
ATOM     14  N   UNL     1      -0.777  11.354  20.023  0.00  0.00    +0.000 N 
ATOM     15  C   UNL     1      -3.941  11.721  18.055  0.00  0.00    +0.000 C 
ATOM     16  O   UNL     1      -4.381  11.119  16.823  0.00  0.00    +0.000 OA
ATOM     17  C   UNL     1      -3.800   9.829  16.616  0.00  0.00    +0.000 C 
ATOM     18  C   UNL     1      -2.299   9.997  16.404  0.00  0.00    +0.000 C 
ATOM     19  H   UNL     1      -0.433  11.637  20.927  0.00  0.00    +0.000 HD
ENDBRANCH   7   8
ENDBRANCH   1   7
BRANCH   2  20
ATOM     20  C   UNL     1       1.915   7.060  19.186  0.00  0.00    +0.000 C 
BRANCH  20  21
ATOM     21  N   UNL     1       2.346   5.639  19.050  0.00  0.00    +0.000 NA
ATOM     22  C   UNL     1       2.234   5.181  17.649  0.00  0.00    +0.000 C 
ATOM     23  C   UNL     1       2.735   3.739  17.490  0.00  0.00    +0.000 C 
ATOM     24  C   UNL     1       4.192   3.584  17.932  0.00  0.00    +0.000 C 
ATOM     25  C   UNL     1       4.349   4.159  19.347  0.00  0.00    +0.000 C 
ATOM     26  C   UNL     1       3.759   5.564  19.486  0.00  0.00    +0.000 C 
BRANCH  24  27
ATOM     27  C   UNL     1       5.155   4.242  16.935  0.00  0.00    +0.000 C 
ATOM     28  O   UNL     1       5.136   3.980  15.733  0.00  0.00    +0.000 OA
BRANCH  27  29
ATOM     29  C   UNL     1       6.166   5.232  17.417  0.00  0.00    +0.000 A 
ATOM     30  C   UNL     1       6.096   6.543  16.916  0.00  0.00    +0.000 A 
ATOM     31  C   UNL     1       6.990   7.518  17.363  0.00  0.00    +0.000 A 
ATOM     32  C   UNL     1       7.945   7.182  18.314  0.00  0.00    +0.000 A 
ATOM     33  F   UNL     1       8.790   8.121  18.761  0.00  0.00    +0.000 F 
ATOM     34  C   UNL     1       8.027   5.890  18.820  0.00  0.00    +0.000 A 
ATOM     35  C   UNL     1       7.139   4.908  18.370  0.00  0.00    +0.000 A 
ENDBRANCH  27  29
ENDBRANCH  24  27
ENDBRANCH  20  21
ENDBRANCH   2  20
TORSDOF 8
ENDMDL
MODEL 5
REMARK VINA RESULT:      -8.7      1.497      2.390
REMARK  Name = 
REMARK  8 active torsions:
REMARK  status: ('A' for Active; 'I' for Inactive)
REMARK    1  A    between atoms: C_2  and  C_3
REMARK    2  A    between atoms: C_3  and  N_4
REMARK    3  A    between atoms: N_4  and  C_5
REMARK    4  A    between atoms: C_5  and  C_6
REMARK    5  A    between atoms: C_17  and  C_19
REMARK    6  A    between atoms: C_19  and  N_20
REMARK    7  A    between atoms: C_23  and  C_24
REMARK    8  A    between atoms: C_24  and  C_26
REMARK                            x       y       z     vdW  Elec       q    Type
REMARK                         _______ _______ _______ _____ _____    ______ ____
ROOT
ATOM      1  N   UNL     1       2.300   4.867  19.831  0.00  0.00    +0.000 N 
ATOM      2  C   UNL     1       3.546   4.286  19.549  0.00  0.00    +0.000 C 
ATOM      3  O   UNL     1       3.623   3.138  19.097  0.00  0.00    +0.000 OA
ENDROOT
BRANCH   1   4
ATOM      4  C   UNL     1       1.206   3.874  19.849  0.00  0.00    +0.000 C 
BRANCH   4   6
ATOM      5  N   UNL     1       1.304   2.360  22.180  0.00  0.00    +0.000 NA
ATOM      6  C   UNL     1       1.260   3.047  21.122  0.00  0.00    +0.000 C 
ENDBRANCH   4   6
ENDBRANCH   1   4
BRANCH   1   7
ATOM      7  C   UNL     1       2.199   6.107  20.636  0.00  0.00    +0.000 C 
BRANCH   7   8
ATOM      8  C   UNL     1       1.645   7.459  20.136  0.00  0.00    +0.000 A 
ATOM      9  N   UNL     1       0.878   8.221  20.847  0.00  0.00    +0.000 NA
ATOM     10  C   UNL     1       0.654   9.504  20.390  0.00  0.00    +0.000 A 
ATOM     11  C   UNL     1       1.112   9.999  19.228  0.00  0.00    +0.000 A 
ATOM     12  C   UNL     1       1.833   9.073  18.344  0.00  0.00    +0.000 A 
ATOM     13  O   UNL     1       2.207   9.387  17.221  0.00  0.00    +0.000 OA
ATOM     14  N   UNL     1       2.116   7.851  18.898  0.00  0.00    +0.000 N 
ATOM     15  C   UNL     1       1.102  11.456  18.869  0.00  0.00    +0.000 C 
ATOM     16  O   UNL     1       0.450  12.277  19.854  0.00  0.00    +0.000 OA
ATOM     17  C   UNL     1       0.718  11.836  21.188  0.00  0.00    +0.000 C 
ATOM     18  C   UNL     1       0.070  10.470  21.390  0.00  0.00    +0.000 C 
ATOM     19  H   UNL     1       2.662   7.233  18.319  0.00  0.00    +0.000 HD
ENDBRANCH   7   8
ENDBRANCH   1   7
BRANCH   2  20
ATOM     20  C   UNL     1       4.843   5.067  19.796  0.00  0.00    +0.000 C 
BRANCH  20  21
ATOM     21  N   UNL     1       5.240   5.950  18.663  0.00  0.00    +0.000 NA
ATOM     22  C   UNL     1       6.705   5.938  18.466  0.00  0.00    +0.000 C 
ATOM     23  C   UNL     1       7.116   6.796  17.263  0.00  0.00    +0.000 C 
ATOM     24  C   UNL     1       6.453   6.323  15.967  0.00  0.00    +0.000 C 
ATOM     25  C   UNL     1       4.937   6.223  16.188  0.00  0.00    +0.000 C 
ATOM     26  C   UNL     1       4.571   5.433  17.447  0.00  0.00    +0.000 C 
BRANCH  24  27
ATOM     27  C   UNL     1       7.051   4.997  15.481  0.00  0.00    +0.000 C 
ATOM     28  O   UNL     1       7.937   4.409  16.101  0.00  0.00    +0.000 OA
BRANCH  27  29
ATOM     29  C   UNL     1       6.565   4.382  14.209  0.00  0.00    +0.000 A 
ATOM     30  C   UNL     1       5.273   3.827  14.196  0.00  0.00    +0.000 A 
ATOM     31  C   UNL     1       4.752   3.276  13.024  0.00  0.00    +0.000 A 
ATOM     32  C   UNL     1       5.521   3.287  11.867  0.00  0.00    +0.000 A 
ATOM     33  F   UNL     1       5.016   2.778  10.735  0.00  0.00    +0.000 F 
ATOM     34  C   UNL     1       6.800   3.831  11.862  0.00  0.00    +0.000 A 
ATOM     35  C   UNL     1       7.329   4.378  13.035  0.00  0.00    +0.000 A 
ENDBRANCH  27  29
ENDBRANCH  24  27
ENDBRANCH  20  21
ENDBRANCH   2  20
TORSDOF 8
ENDMDL
MODEL 6
REMARK VINA RESULT:      -8.6      1.658      2.172
REMARK  Name = 
REMARK  8 active torsions:
REMARK  status: ('A' for Active; 'I' for Inactive)
REMARK    1  A    between atoms: C_2  and  C_3
REMARK    2  A    between atoms: C_3  and  N_4
REMARK    3  A    between atoms: N_4  and  C_5
REMARK    4  A    between atoms: C_5  and  C_6
REMARK    5  A    between atoms: C_17  and  C_19
REMARK    6  A    between atoms: C_19  and  N_20
REMARK    7  A    between atoms: C_23  and  C_24
REMARK    8  A    between atoms: C_24  and  C_26
REMARK                            x       y       z     vdW  Elec       q    Type
REMARK                         _______ _______ _______ _____ _____    ______ ____
ROOT
ATOM      1  N   UNL     1       2.629   4.745  18.801  0.00  0.00    +0.000 N 
ATOM      2  C   UNL     1       3.665   3.815  18.618  0.00  0.00    +0.000 C 
ATOM      3  O   UNL     1       3.587   2.943  17.746  0.00  0.00    +0.000 OA
ENDROOT
BRANCH   1   4
ATOM      4  C   UNL     1       1.387   4.349  18.106  0.00  0.00    +0.000 C 
BRANCH   4   6
ATOM      5  N   UNL     1       0.292   2.082  19.289  0.00  0.00    +0.000 NA
ATOM      6  C   UNL     1       0.789   3.110  18.752  0.00  0.00    +0.000 C 
ENDBRANCH   4   6
ENDBRANCH   1   4
BRANCH   1   7
ATOM      7  C   UNL     1       2.571   5.596  20.012  0.00  0.00    +0.000 C 
BRANCH   7   8
ATOM      8  C   UNL     1       2.093   7.064  20.056  0.00  0.00    +0.000 A 
ATOM      9  N   UNL     1       1.988   7.811  19.004  0.00  0.00    +0.000 NA
ATOM     10  C   UNL     1       1.322   9.012  19.139  0.00  0.00    +0.000 A 
ATOM     11  C   UNL     1       0.837   9.499  20.294  0.00  0.00    +0.000 A 
ATOM     12  C   UNL     1       1.115   8.729  21.514  0.00  0.00    +0.000 A 
ATOM     13  O   UNL     1       0.809   9.126  22.632  0.00  0.00    +0.000 OA
ATOM     14  N   UNL     1       1.682   7.498  21.301  0.00  0.00    +0.000 N 
ATOM     15  C   UNL     1      -0.116  10.654  20.389  0.00  0.00    +0.000 C 
ATOM     16  O   UNL     1      -0.385  11.271  19.118  0.00  0.00    +0.000 OA
ATOM     17  C   UNL     1      -0.471  10.313  18.059  0.00  0.00    +0.000 C 
ATOM     18  C   UNL     1       0.903   9.683  17.856  0.00  0.00    +0.000 C 
ATOM     19  H   UNL     1       1.820   6.940  22.129  0.00  0.00    +0.000 HD
ENDBRANCH   7   8
ENDBRANCH   1   7
BRANCH   2  20
ATOM     20  C   UNL     1       4.918   3.863  19.500  0.00  0.00    +0.000 C 
BRANCH  20  21
ATOM     21  N   UNL     1       6.085   4.527  18.852  0.00  0.00    +0.000 NA
ATOM     22  C   UNL     1       6.470   3.830  17.606  0.00  0.00    +0.000 C 
ATOM     23  C   UNL     1       7.631   4.543  16.901  0.00  0.00    +0.000 C 
ATOM     24  C   UNL     1       7.289   5.994  16.555  0.00  0.00    +0.000 C 
ATOM     25  C   UNL     1       6.781   6.703  17.818  0.00  0.00    +0.000 C 
ATOM     26  C   UNL     1       5.684   5.917  18.541  0.00  0.00    +0.000 C 
BRANCH  24  27
ATOM     27  C   UNL     1       6.277   6.075  15.405  0.00  0.00    +0.000 C 
ATOM     28  O   UNL     1       5.383   6.920  15.375  0.00  0.00    +0.000 OA
BRANCH  27  29
ATOM     29  C   UNL     1       6.352   5.099  14.276  0.00  0.00    +0.000 A 
ATOM     30  C   UNL     1       5.279   4.207  14.103  0.00  0.00    +0.000 A 
ATOM     31  C   UNL     1       5.278   3.301  13.041  0.00  0.00    +0.000 A 
ATOM     32  C   UNL     1       6.345   3.295  12.150  0.00  0.00    +0.000 A 
ATOM     33  F   UNL     1       6.337   2.442  11.118  0.00  0.00    +0.000 F 
ATOM     34  C   UNL     1       7.414   4.170  12.307  0.00  0.00    +0.000 A 
ATOM     35  C   UNL     1       7.422   5.074  13.374  0.00  0.00    +0.000 A 
ENDBRANCH  27  29
ENDBRANCH  24  27
ENDBRANCH  20  21
ENDBRANCH   2  20
TORSDOF 8
ENDMDL
MODEL 7
REMARK VINA RESULT:      -8.5      3.978      9.489
REMARK  Name = 
REMARK  8 active torsions:
REMARK  status: ('A' for Active; 'I' for Inactive)
REMARK    1  A    between atoms: C_2  and  C_3
REMARK    2  A    between atoms: C_3  and  N_4
REMARK    3  A    between atoms: N_4  and  C_5
REMARK    4  A    between atoms: C_5  and  C_6
REMARK    5  A    between atoms: C_17  and  C_19
REMARK    6  A    between atoms: C_19  and  N_20
REMARK    7  A    between atoms: C_23  and  C_24
REMARK    8  A    between atoms: C_24  and  C_26
REMARK                            x       y       z     vdW  Elec       q    Type
REMARK                         _______ _______ _______ _____ _____    ______ ____
ROOT
ATOM      1  N   UNL     1       2.021   6.763  20.227  0.00  0.00    +0.000 N 
ATOM      2  C   UNL     1       1.244   7.857  20.638  0.00  0.00    +0.000 C 
ATOM      3  O   UNL     1       0.601   7.819  21.692  0.00  0.00    +0.000 OA
ENDROOT
BRANCH   1   4
ATOM      4  C   UNL     1       1.708   5.533  20.984  0.00  0.00    +0.000 C 
BRANCH   4   6
ATOM      5  N   UNL     1       0.946   3.492  19.255  0.00  0.00    +0.000 NA
ATOM      6  C   UNL     1       1.291   4.419  20.039  0.00  0.00    +0.000 C 
ENDBRANCH   4   6
ENDBRANCH   1   4
BRANCH   1   7
ATOM      7  C   UNL     1       2.552   6.676  18.847  0.00  0.00    +0.000 C 
BRANCH   7   8
ATOM      8  C   UNL     1       3.800   5.877  18.413  0.00  0.00    +0.000 A 
ATOM      9  N   UNL     1       3.941   5.359  17.236  0.00  0.00    +0.000 NA
ATOM     10  C   UNL     1       5.191   4.887  16.893  0.00  0.00    +0.000 A 
ATOM     11  C   UNL     1       6.256   4.858  17.712  0.00  0.00    +0.000 A 
ATOM     12  C   UNL     1       6.042   5.284  19.102  0.00  0.00    +0.000 A 
ATOM     13  O   UNL     1       6.913   5.205  19.960  0.00  0.00    +0.000 OA
ATOM     14  N   UNL     1       4.814   5.841  19.351  0.00  0.00    +0.000 N 
ATOM     15  C   UNL     1       7.664   4.607  17.259  0.00  0.00    +0.000 C 
ATOM     16  O   UNL     1       7.759   4.290  15.858  0.00  0.00    +0.000 OA
ATOM     17  C   UNL     1       6.842   5.051  15.068  0.00  0.00    +0.000 C 
ATOM     18  C   UNL     1       5.421   4.627  15.425  0.00  0.00    +0.000 C 
ATOM     19  H   UNL     1       4.683   6.190  20.287  0.00  0.00    +0.000 HD
ENDBRANCH   7   8
ENDBRANCH   1   7
BRANCH   2  20
ATOM     20  C   UNL     1       1.176   9.128  19.782  0.00  0.00    +0.000 C 
BRANCH  20  21
ATOM     21  N   UNL     1       0.195  10.135  20.277  0.00  0.00    +0.000 NA
ATOM     22  C   UNL     1       0.875  11.376  20.705  0.00  0.00    +0.000 C 
ATOM     23  C   UNL     1      -0.133  12.440  21.158  0.00  0.00    +0.000 C 
ATOM     24  C   UNL     1      -1.129  12.796  20.052  0.00  0.00    +0.000 C 
ATOM     25  C   UNL     1      -1.764  11.505  19.517  0.00  0.00    +0.000 C 
ATOM     26  C   UNL     1      -0.728  10.436  19.159  0.00  0.00    +0.000 C 
BRANCH  24  27
ATOM     27  C   UNL     1      -0.462  13.612  18.936  0.00  0.00    +0.000 C 
ATOM     28  O   UNL     1      -0.532  13.286  17.752  0.00  0.00    +0.000 OA
BRANCH  27  29
ATOM     29  C   UNL     1       0.311  14.845  19.275  0.00  0.00    +0.000 A 
ATOM     30  C   UNL     1       1.674  14.883  18.933  0.00  0.00    +0.000 A 
ATOM     31  C   UNL     1       2.435  16.025  19.190  0.00  0.00    +0.000 A 
ATOM     32  C   UNL     1       1.830  17.128  19.780  0.00  0.00    +0.000 A 
ATOM     33  F   UNL     1       2.552  18.233  20.008  0.00  0.00    +0.000 F 
ATOM     34  C   UNL     1       0.482  17.107  20.124  0.00  0.00    +0.000 A 
ATOM     35  C   UNL     1      -0.281  15.963  19.876  0.00  0.00    +0.000 A 
ENDBRANCH  27  29
ENDBRANCH  24  27
ENDBRANCH  20  21
ENDBRANCH   2  20
TORSDOF 8
ENDMDL
MODEL 8
REMARK VINA RESULT:      -8.5      1.413      1.746
REMARK  Name = 
REMARK  8 active torsions:
REMARK  status: ('A' for Active; 'I' for Inactive)
REMARK    1  A    between atoms: C_2  and  C_3
REMARK    2  A    between atoms: C_3  and  N_4
REMARK    3  A    between atoms: N_4  and  C_5
REMARK    4  A    between atoms: C_5  and  C_6
REMARK    5  A    between atoms: C_17  and  C_19
REMARK    6  A    between atoms: C_19  and  N_20
REMARK    7  A    between atoms: C_23  and  C_24
REMARK    8  A    between atoms: C_24  and  C_26
REMARK                            x       y       z     vdW  Elec       q    Type
REMARK                         _______ _______ _______ _____ _____    ______ ____
ROOT
ATOM      1  N   UNL     1       1.404   4.570  20.256  0.00  0.00    +0.000 N 
ATOM      2  C   UNL     1       1.416   4.122  18.926  0.00  0.00    +0.000 C 
ATOM      3  O   UNL     1       0.908   3.039  18.617  0.00  0.00    +0.000 OA
ENDROOT
BRANCH   1   4
ATOM      4  C   UNL     1       1.050   3.498  21.209  0.00  0.00    +0.000 C 
BRANCH   4   6
ATOM      5  N   UNL     1       3.310   2.043  21.923  0.00  0.00    +0.000 NA
ATOM      6  C   UNL     1       2.284   2.703  21.599  0.00  0.00    +0.000 C 
ENDBRANCH   4   6
ENDBRANCH   1   4
BRANCH   1   7
ATOM      7  C   UNL     1       2.253   5.705  20.689  0.00  0.00    +0.000 C 
BRANCH   7   8
ATOM      8  C   UNL     1       1.883   7.200  20.570  0.00  0.00    +0.000 A 
ATOM      9  N   UNL     1       1.775   7.819  19.439  0.00  0.00    +0.000 NA
ATOM     10  C   UNL     1       1.203   9.074  19.452  0.00  0.00    +0.000 A 
ATOM     11  C   UNL     1       0.815   9.733  20.557  0.00  0.00    +0.000 A 
ATOM     12  C   UNL     1       1.102   9.098  21.850  0.00  0.00    +0.000 A 
ATOM     13  O   UNL     1       0.885   9.650  22.922  0.00  0.00    +0.000 OA
ATOM     14  N   UNL     1       1.570   7.811  21.768  0.00  0.00    +0.000 N 
ATOM     15  C   UNL     1      -0.048  10.961  20.549  0.00  0.00    +0.000 C 
ATOM     16  O   UNL     1      -0.339  11.439  19.224  0.00  0.00    +0.000 OA
ATOM     17  C   UNL     1      -0.549  10.368  18.298  0.00  0.00    +0.000 C 
ATOM     18  C   UNL     1       0.765   9.616  18.115  0.00  0.00    +0.000 C 
ATOM     19  H   UNL     1       1.712   7.349  22.652  0.00  0.00    +0.000 HD
ENDBRANCH   7   8
ENDBRANCH   1   7
BRANCH   2  20
ATOM     20  C   UNL     1       2.062   4.971  17.824  0.00  0.00    +0.000 C 
BRANCH  20  21
ATOM     21  N   UNL     1       3.545   4.837  17.753  0.00  0.00    +0.000 NA
ATOM     22  C   UNL     1       3.942   3.876  16.702  0.00  0.00    +0.000 C 
ATOM     23  C   UNL     1       5.468   3.779  16.579  0.00  0.00    +0.000 C 
ATOM     24  C   UNL     1       6.107   5.132  16.259  0.00  0.00    +0.000 C 
ATOM     25  C   UNL     1       5.616   6.170  17.278  0.00  0.00    +0.000 C 
ATOM     26  C   UNL     1       4.093   6.175  17.435  0.00  0.00    +0.000 C 
BRANCH  24  27
ATOM     27  C   UNL     1       5.818   5.564  14.816  0.00  0.00    +0.000 C 
ATOM     28  O   UNL     1       5.343   6.666  14.542  0.00  0.00    +0.000 OA
BRANCH  27  29
ATOM     29  C   UNL     1       6.105   4.628  13.686  0.00  0.00    +0.000 A 
ATOM     30  C   UNL     1       7.391   4.653  13.120  0.00  0.00    +0.000 A 
ATOM     31  C   UNL     1       7.727   3.773  12.090  0.00  0.00    +0.000 A 
ATOM     32  C   UNL     1       6.779   2.865  11.634  0.00  0.00    +0.000 A 
ATOM     33  F   UNL     1       7.104   2.005  10.661  0.00  0.00    +0.000 F 
ATOM     34  C   UNL     1       5.502   2.827  12.183  0.00  0.00    +0.000 A 
ATOM     35  C   UNL     1       5.159   3.712  13.210  0.00  0.00    +0.000 A 
ENDBRANCH  27  29
ENDBRANCH  24  27
ENDBRANCH  20  21
ENDBRANCH   2  20
TORSDOF 8
ENDMDL
MODEL 9
REMARK VINA RESULT:      -8.4      2.729      4.995
REMARK  Name = 
REMARK  8 active torsions:
REMARK  status: ('A' for Active; 'I' for Inactive)
REMARK    1  A    between atoms: C_2  and  C_3
REMARK    2  A    between atoms: C_3  and  N_4
REMARK    3  A    between atoms: N_4  and  C_5
REMARK    4  A    between atoms: C_5  and  C_6
REMARK    5  A    between atoms: C_17  and  C_19
REMARK    6  A    between atoms: C_19  and  N_20
REMARK    7  A    between atoms: C_23  and  C_24
REMARK    8  A    between atoms: C_24  and  C_26
REMARK                            x       y       z     vdW  Elec       q    Type
REMARK                         _______ _______ _______ _____ _____    ______ ____
ROOT
ATOM      1  N   UNL     1       0.842  10.104  19.573  0.00  0.00    +0.000 N 
ATOM      2  C   UNL     1       1.554   9.034  19.009  0.00  0.00    +0.000 C 
ATOM      3  O   UNL     1       1.784   8.994  17.795  0.00  0.00    +0.000 OA
ENDROOT
BRANCH   1   4
ATOM      4  C   UNL     1       0.156  10.924  18.553  0.00  0.00    +0.000 C 
BRANCH   4   6
ATOM      5  N   UNL     1      -2.395   9.932  18.061  0.00  0.00    +0.000 NA
ATOM      6  C   UNL     1      -1.237  10.382  18.284  0.00  0.00    +0.000 C 
ENDBRANCH   4   6
ENDBRANCH   1   4
BRANCH   1   7
ATOM      7  C   UNL     1       0.309  10.025  20.953  0.00  0.00    +0.000 C 
BRANCH   7   8
ATOM      8  C   UNL     1      -0.222  11.217  21.780  0.00  0.00    +0.000 A 
ATOM      9  N   UNL     1       0.348  12.378  21.803  0.00  0.00    +0.000 NA
ATOM     10  C   UNL     1      -0.351  13.420  22.375  0.00  0.00    +0.000 A 
ATOM     11  C   UNL     1      -1.548  13.307  22.976  0.00  0.00    +0.000 A 
ATOM     12  C   UNL     1      -2.109  11.955  23.102  0.00  0.00    +0.000 A 
ATOM     13  O   UNL     1      -3.142  11.721  23.716  0.00  0.00    +0.000 OA
ATOM     14  N   UNL     1      -1.423  10.982  22.421  0.00  0.00    +0.000 N 
ATOM     15  C   UNL     1      -2.421  14.471  23.345  0.00  0.00    +0.000 C 
ATOM     16  O   UNL     1      -1.802  15.745  23.091  0.00  0.00    +0.000 OA
ATOM     17  C   UNL     1      -1.029  15.740  21.887  0.00  0.00    +0.000 C 
ATOM     18  C   UNL     1       0.162  14.806  22.075  0.00  0.00    +0.000 C 
ATOM     19  H   UNL     1      -1.835  10.063  22.454  0.00  0.00    +0.000 HD
ENDBRANCH   7   8
ENDBRANCH   1   7
BRANCH   2  20
ATOM     20  C   UNL     1       2.063   7.887  19.891  0.00  0.00    +0.000 C 
BRANCH  20  21
ATOM     21  N   UNL     1       1.589   6.541  19.461  0.00  0.00    +0.000 NA
ATOM     22  C   UNL     1       2.340   6.065  18.279  0.00  0.00    +0.000 C 
ATOM     23  C   UNL     1       1.901   4.653  17.868  0.00  0.00    +0.000 C 
ATOM     24  C   UNL     1       2.090   3.640  18.999  0.00  0.00    +0.000 C 
ATOM     25  C   UNL     1       1.410   4.173  20.267  0.00  0.00    +0.000 C 
ATOM     26  C   UNL     1       1.807   5.614  20.594  0.00  0.00    +0.000 C 
BRANCH  24  27
ATOM     27  C   UNL     1       3.575   3.328  19.232  0.00  0.00    +0.000 C 
ATOM     28  O   UNL     1       3.970   2.721  20.226  0.00  0.00    +0.000 OA
BRANCH  27  29
ATOM     29  C   UNL     1       4.595   3.773  18.235  0.00  0.00    +0.000 A 
ATOM     30  C   UNL     1       5.666   4.560  18.695  0.00  0.00    +0.000 A 
ATOM     31  C   UNL     1       6.669   4.970  17.815  0.00  0.00    +0.000 A 
ATOM     32  C   UNL     1       6.604   4.586  16.481  0.00  0.00    +0.000 A 
ATOM     33  F   UNL     1       7.576   4.960  15.639  0.00  0.00    +0.000 F 
ATOM     34  C   UNL     1       5.552   3.809  16.010  0.00  0.00    +0.000 A 
ATOM     35  C   UNL     1       4.541   3.402  16.886  0.00  0.00    +0.000 A 
ENDBRANCH  27  29
ENDBRANCH  24  27
ENDBRANCH  20  21
ENDBRANCH   2  20
TORSDOF 8
ENDMDL
