MODEL 1
REMARK VINA RESULT:      -6.4      0.000      0.000
REMARK  Name = 
REMARK  4 active torsions:
REMARK  status: ('A' for Active; 'I' for Inactive)
REMARK    1  A    between atoms: C_1  and  N_2
REMARK    2  A    between atoms: N_5  and  C_6
REMARK    3  A    between atoms: C_13  and  C_14
REMARK    4  A    between atoms: N_21  and  C_22
REMARK                            x       y       z     vdW  Elec       q    Type
REMARK                         _______ _______ _______ _____ _____    ______ ____
ROOT
ATOM      1  C   UNL     1       2.457  15.271  20.157  0.00  0.00    +0.000 A 
ATOM      2  N   UNL     1       1.993  16.300  19.387  0.00  0.00    +0.000 NA
ATOM      3  C   UNL     1       0.812  16.194  18.757  0.00  0.00    +0.000 A 
ATOM      4  N   UNL     1      -0.041  15.165  18.783  0.00  0.00    +0.000 NA
ATOM      5  C   UNL     1       0.421  14.155  19.548  0.00  0.00    +0.000 A 
ATOM      6  C   UNL     1       1.614  14.129  20.250  0.00  0.00    +0.000 A 
ATOM      7  N   UNL     1       1.732  12.931  20.919  0.00  0.00    +0.000 NA
ATOM      8  C   UNL     1       0.634  12.231  20.676  0.00  0.00    +0.000 A 
ATOM      9  N   UNL     1      -0.229  12.962  19.839  0.00  0.00    +0.000 N 
ENDROOT
BRANCH   1  14
ATOM     10  C   UNL     1       7.713  15.072  22.074  0.00  0.00    +0.000 C 
ATOM     11  N   UNL     1       6.429  15.688  21.744  0.00  0.00    +0.000 NA
ATOM     12  C   UNL     1       5.339  15.060  22.527  0.00  0.00    +0.000 C 
ATOM     13  C   UNL     1       3.922  15.571  22.154  0.00  0.00    +0.000 C 
ATOM     14  N   UNL     1       3.720  15.412  20.711  0.00  0.00    +0.000 N 
ATOM     15  C   UNL     1       4.753  16.060  19.891  0.00  0.00    +0.000 C 
ATOM     16  C   UNL     1       6.147  15.532  20.298  0.00  0.00    +0.000 C 
ENDBRANCH   1  14
BRANCH   8  17
ATOM     17  C   UNL     1       0.434  10.841  21.164  0.00  0.00    +0.000 A 
ATOM     18  C   UNL     1       1.099   9.764  20.542  0.00  0.00    +0.000 A 
ATOM     19  C   UNL     1       0.834   8.436  20.890  0.00  0.00    +0.000 A 
ATOM     20  C   UNL     1      -0.033   8.153  21.937  0.00  0.00    +0.000 A 
ATOM     21  C   UNL     1      -0.629   9.202  22.634  0.00  0.00    +0.000 A 
ATOM     22  C   UNL     1      -0.410  10.534  22.249  0.00  0.00    +0.000 A 
ATOM     23 CL   UNL     1      -1.261  11.739  23.160  0.00  0.00    +0.000 Cl
ENDBRANCH   8  17
BRANCH   9  24
ATOM     24  C   UNL     1      -1.515  12.592  19.338  0.00  0.00    +0.000 A 
ATOM     25  C   UNL     1      -2.680  12.865  20.066  0.00  0.00    +0.000 A 
ATOM     26  C   UNL     1      -3.911  12.357  19.635  0.00  0.00    +0.000 A 
ATOM     27  C   UNL     1      -3.983  11.611  18.460  0.00  0.00    +0.000 A 
ATOM     28 CL   UNL     1      -5.487  10.943  17.961  0.00  0.00    +0.000 Cl
ATOM     29  C   UNL     1      -2.841  11.392  17.695  0.00  0.00    +0.000 A 
ATOM     30  C   UNL     1      -1.607  11.884  18.129  0.00  0.00    +0.000 A 
ENDBRANCH   9  24
TORSDOF 3
ENDMDL
MODEL 2
REMARK VINA RESULT:      -6.4      1.405      1.879
REMARK  Name = 
REMARK  4 active torsions:
REMARK  status: ('A' for Active; 'I' for Inactive)
REMARK    1  A    between atoms: C_1  and  N_2
REMARK    2  A    between atoms: N_5  and  C_6
REMARK    3  A    between atoms: C_13  and  C_14
REMARK    4  A    between atoms: N_21  and  C_22
REMARK                            x       y       z     vdW  Elec       q    Type
REMARK                         _______ _______ _______ _____ _____    ______ ____
ROOT
ATOM      1  C   UNL     1       2.261  15.372  19.551  0.00  0.00    +0.000 A 
ATOM      2  N   UNL     1       1.574  16.401  18.972  0.00  0.00    +0.000 NA
ATOM      3  C   UNL     1       0.319  16.215  18.534  0.00  0.00    +0.000 A 
ATOM      4  N   UNL     1      -0.413  15.098  18.594  0.00  0.00    +0.000 NA
ATOM      5  C   UNL     1       0.269  14.088  19.171  0.00  0.00    +0.000 A 
ATOM      6  C   UNL     1       1.561  14.138  19.665  0.00  0.00    +0.000 A 
ATOM      7  N   UNL     1       1.908  12.911  20.184  0.00  0.00    +0.000 NA
ATOM      8  C   UNL     1       0.857  12.114  20.053  0.00  0.00    +0.000 A 
ATOM      9  N   UNL     1      -0.202  12.810  19.443  0.00  0.00    +0.000 N 
ENDROOT
BRANCH   1  14
ATOM     10  C   UNL     1       7.757  15.592  20.594  0.00  0.00    +0.000 C 
ATOM     11  N   UNL     1       6.387  16.096  20.509  0.00  0.00    +0.000 NA
ATOM     12  C   UNL     1       5.499  15.330  21.416  0.00  0.00    +0.000 C 
ATOM     13  C   UNL     1       4.002  15.719  21.305  0.00  0.00    +0.000 C 
ATOM     14  N   UNL     1       3.580  15.608  19.905  0.00  0.00    +0.000 N 
ATOM     15  C   UNL     1       4.405  16.390  18.972  0.00  0.00    +0.000 C 
ATOM     16  C   UNL     1       5.887  15.981  19.120  0.00  0.00    +0.000 C 
ENDBRANCH   1  14
BRANCH   8  17
ATOM     17  C   UNL     1       0.880  10.676  20.426  0.00  0.00    +0.000 A 
ATOM     18  C   UNL     1       0.462  10.264  21.709  0.00  0.00    +0.000 A 
ATOM     19  C   UNL     1       0.592   8.939  22.136  0.00  0.00    +0.000 A 
ATOM     20  C   UNL     1       1.056   7.970  21.257  0.00  0.00    +0.000 A 
ATOM     21  C   UNL     1       1.384   8.330  19.952  0.00  0.00    +0.000 A 
ATOM     22  C   UNL     1       1.309   9.670  19.538  0.00  0.00    +0.000 A 
ATOM     23 CL   UNL     1       1.805   9.992  17.909  0.00  0.00    +0.000 Cl
ENDBRANCH   8  17
BRANCH   9  24
ATOM     24  C   UNL     1      -1.513  12.340  19.122  0.00  0.00    +0.000 A 
ATOM     25  C   UNL     1      -1.761  11.652  17.926  0.00  0.00    +0.000 A 
ATOM     26  C   UNL     1      -3.075  11.340  17.558  0.00  0.00    +0.000 A 
ATOM     27  C   UNL     1      -4.133  11.679  18.399  0.00  0.00    +0.000 A 
ATOM     28 CL   UNL     1      -5.750  11.341  17.919  0.00  0.00    +0.000 Cl
ATOM     29  C   UNL     1      -3.890  12.303  19.619  0.00  0.00    +0.000 A 
ATOM     30  C   UNL     1      -2.582  12.630  19.985  0.00  0.00    +0.000 A 
ENDBRANCH   9  24
TORSDOF 3
ENDMDL
MODEL 3
REMARK VINA RESULT:      -6.4      1.434      1.695
REMARK  Name = 
REMARK  4 active torsions:
REMARK  status: ('A' for Active; 'I' for Inactive)
REMARK    1  A    between atoms: C_1  and  N_2
REMARK    2  A    between atoms: N_5  and  C_6
REMARK    3  A    between atoms: C_13  and  C_14
REMARK    4  A    between atoms: N_21  and  C_22
REMARK                            x       y       z     vdW  Elec       q    Type
REMARK                         _______ _______ _______ _____ _____    ______ ____
ROOT
ATOM      1  C   UNL     1       2.453  15.345  19.374  0.00  0.00    +0.000 A 
ATOM      2  N   UNL     1       1.838  16.423  18.802  0.00  0.00    +0.000 NA
ATOM      3  C   UNL     1       0.536  16.368  18.479  0.00  0.00    +0.000 A 
ATOM      4  N   UNL     1      -0.309  15.347  18.657  0.00  0.00    +0.000 NA
ATOM      5  C   UNL     1       0.303  14.288  19.225  0.00  0.00    +0.000 A 
ATOM      6  C   UNL     1       1.630  14.207  19.607  0.00  0.00    +0.000 A 
ATOM      7  N   UNL     1       1.881  12.970  20.156  0.00  0.00    +0.000 NA
ATOM      8  C   UNL     1       0.740  12.296  20.154  0.00  0.00    +0.000 A 
ATOM      9  N   UNL     1      -0.284  13.086  19.599  0.00  0.00    +0.000 N 
ENDROOT
BRANCH   1  14
ATOM     10  C   UNL     1       8.014  14.987  19.901  0.00  0.00    +0.000 C 
ATOM     11  N   UNL     1       6.702  15.630  19.949  0.00  0.00    +0.000 NA
ATOM     12  C   UNL     1       5.827  14.942  20.929  0.00  0.00    +0.000 C 
ATOM     13  C   UNL     1       4.373  15.483  20.960  0.00  0.00    +0.000 C 
ATOM     14  N   UNL     1       3.816  15.440  19.605  0.00  0.00    +0.000 N 
ATOM     15  C   UNL     1       4.627  16.150  18.606  0.00  0.00    +0.000 C 
ATOM     16  C   UNL     1       6.066  15.590  18.611  0.00  0.00    +0.000 C 
ENDBRANCH   1  14
BRANCH   8  17
ATOM     17  C   UNL     1       0.633  10.881  20.596  0.00  0.00    +0.000 A 
ATOM     18  C   UNL     1       0.090  10.567  21.859  0.00  0.00    +0.000 A 
ATOM     19  C   UNL     1       0.093   9.261  22.357  0.00  0.00    +0.000 A 
ATOM     20  C   UNL     1       0.555   8.218  21.565  0.00  0.00    +0.000 A 
ATOM     21  C   UNL     1       1.007   8.486  20.275  0.00  0.00    +0.000 A 
ATOM     22  C   UNL     1       1.057   9.804  19.793  0.00  0.00    +0.000 A 
ATOM     23 CL   UNL     1       1.699  10.006  18.196  0.00  0.00    +0.000 Cl
ENDBRANCH   8  17
BRANCH   9  24
ATOM     24  C   UNL     1      -1.663  12.759  19.412  0.00  0.00    +0.000 A 
ATOM     25  C   UNL     1      -2.631  13.147  20.347  0.00  0.00    +0.000 A 
ATOM     26  C   UNL     1      -3.946  12.684  20.226  0.00  0.00    +0.000 A 
ATOM     27  C   UNL     1      -4.302  11.868  19.154  0.00  0.00    +0.000 A 
ATOM     28 CL   UNL     1      -5.905  11.258  19.038  0.00  0.00    +0.000 Cl
ATOM     29  C   UNL     1      -3.362  11.532  18.184  0.00  0.00    +0.000 A 
ATOM     30  C   UNL     1      -2.044  11.980  18.308  0.00  0.00    +0.000 A 
ENDBRANCH   9  24
TORSDOF 3
ENDMDL
MODEL 4
REMARK VINA RESULT:      -6.3      1.715      2.154
REMARK  Name = 
REMARK  4 active torsions:
REMARK  status: ('A' for Active; 'I' for Inactive)
REMARK    1  A    between atoms: C_1  and  N_2
REMARK    2  A    between atoms: N_5  and  C_6
REMARK    3  A    between atoms: C_13  and  C_14
REMARK    4  A    between atoms: N_21  and  C_22
REMARK                            x       y       z     vdW  Elec       q    Type
REMARK                         _______ _______ _______ _____ _____    ______ ____
ROOT
ATOM      1  C   UNL     1       2.073  15.439  19.188  0.00  0.00    +0.000 A 
ATOM      2  N   UNL     1       1.454  16.536  18.659  0.00  0.00    +0.000 NA
ATOM      3  C   UNL     1       0.114  16.601  18.613  0.00  0.00    +0.000 A 
ATOM      4  N   UNL     1      -0.766  15.692  19.048  0.00  0.00    +0.000 NA
ATOM      5  C   UNL     1      -0.148  14.614  19.572  0.00  0.00    +0.000 A 
ATOM      6  C   UNL     1       1.217  14.416  19.683  0.00  0.00    +0.000 A 
ATOM      7  N   UNL     1       1.462  13.199  20.279  0.00  0.00    +0.000 NA
ATOM      8  C   UNL     1       0.289  12.655  20.567  0.00  0.00    +0.000 A 
ATOM      9  N   UNL     1      -0.751  13.511  20.163  0.00  0.00    +0.000 N 
ENDROOT
BRANCH   1  14
ATOM     10  C   UNL     1       7.576  14.441  18.947  0.00  0.00    +0.000 C 
ATOM     11  N   UNL     1       6.355  15.243  18.883  0.00  0.00    +0.000 NA
ATOM     12  C   UNL     1       5.666  15.238  20.196  0.00  0.00    +0.000 C 
ATOM     13  C   UNL     1       4.296  15.967  20.188  0.00  0.00    +0.000 C 
ATOM     14  N   UNL     1       3.457  15.400  19.129  0.00  0.00    +0.000 N 
ATOM     15  C   UNL     1       4.081  15.426  17.798  0.00  0.00    +0.000 C 
ATOM     16  C   UNL     1       5.444  14.700  17.849  0.00  0.00    +0.000 C 
ENDBRANCH   1  14
BRANCH   8  17
ATOM     17  C   UNL     1       0.147  11.293  21.146  0.00  0.00    +0.000 A 
ATOM     18  C   UNL     1      -0.391  11.119  22.438  0.00  0.00    +0.000 A 
ATOM     19  C   UNL     1      -0.418   9.868  23.061  0.00  0.00    +0.000 A 
ATOM     20  C   UNL     1       0.005   8.740  22.371  0.00  0.00    +0.000 A 
ATOM     21  C   UNL     1       0.450   8.868  21.058  0.00  0.00    +0.000 A 
ATOM     22  C   UNL     1       0.532  10.131  20.449  0.00  0.00    +0.000 A 
ATOM     23 CL   UNL     1       1.162  10.158  18.834  0.00  0.00    +0.000 Cl
ENDBRANCH   8  17
BRANCH   9  24
ATOM     24  C   UNL     1      -2.163  13.325  20.289  0.00  0.00    +0.000 A 
ATOM     25  C   UNL     1      -2.880  13.920  21.335  0.00  0.00    +0.000 A 
ATOM     26  C   UNL     1      -4.229  13.599  21.531  0.00  0.00    +0.000 A 
ATOM     27  C   UNL     1      -4.867  12.716  20.662  0.00  0.00    +0.000 A 
ATOM     28 CL   UNL     1      -6.509  12.282  20.937  0.00  0.00    +0.000 Cl
ATOM     29  C   UNL     1      -4.180  12.172  19.581  0.00  0.00    +0.000 A 
ATOM     30  C   UNL     1      -2.830  12.478  19.389  0.00  0.00    +0.000 A 
ENDBRANCH   9  24
TORSDOF 3
ENDMDL
MODEL 5
REMARK VINA RESULT:      -6.3      3.225      7.071
REMARK  Name = 
REMARK  4 active torsions:
REMARK  status: ('A' for Active; 'I' for Inactive)
REMARK    1  A    between atoms: C_1  and  N_2
REMARK    2  A    between atoms: N_5  and  C_6
REMARK    3  A    between atoms: C_13  and  C_14
REMARK    4  A    between atoms: N_21  and  C_22
REMARK                            x       y       z     vdW  Elec       q    Type
REMARK                         _______ _______ _______ _____ _____    ______ ____
ROOT
ATOM      1  C   UNL     1      -2.726  14.008  21.730  0.00  0.00    +0.000 A 
ATOM      2  N   UNL     1      -2.630  15.362  21.888  0.00  0.00    +0.000 NA
ATOM      3  C   UNL     1      -1.496  16.002  21.565  0.00  0.00    +0.000 A 
ATOM      4  N   UNL     1      -0.371  15.477  21.068  0.00  0.00    +0.000 NA
ATOM      5  C   UNL     1      -0.473  14.142  20.911  0.00  0.00    +0.000 A 
ATOM      6  C   UNL     1      -1.576  13.357  21.200  0.00  0.00    +0.000 A 
ATOM      7  N   UNL     1      -1.301  12.042  20.900  0.00  0.00    +0.000 NA
ATOM      8  C   UNL     1      -0.074  11.996  20.404  0.00  0.00    +0.000 A 
ATOM      9  N   UNL     1       0.480  13.288  20.370  0.00  0.00    +0.000 N 
ENDROOT
BRANCH   1  14
ATOM     10  C   UNL     1      -7.802  12.305  23.362  0.00  0.00    +0.000 C 
ATOM     11  N   UNL     1      -6.411  12.157  22.941  0.00  0.00    +0.000 NA
ATOM     12  C   UNL     1      -5.504  12.804  23.920  0.00  0.00    +0.000 C 
ATOM     13  C   UNL     1      -4.013  12.800  23.493  0.00  0.00    +0.000 C 
ATOM     14  N   UNL     1      -3.894  13.398  22.160  0.00  0.00    +0.000 N 
ATOM     15  C   UNL     1      -4.741  12.758  21.144  0.00  0.00    +0.000 C 
ATOM     16  C   UNL     1      -6.213  12.774  21.609  0.00  0.00    +0.000 C 
ENDBRANCH   1  14
BRANCH   8  17
ATOM     17  C   UNL     1       0.607  10.726  20.041  0.00  0.00    +0.000 A 
ATOM     18  C   UNL     1       1.078  10.519  18.728  0.00  0.00    +0.000 A 
ATOM     19  C   UNL     1       1.605   9.290  18.320  0.00  0.00    +0.000 A 
ATOM     20  C   UNL     1       1.762   8.263  19.241  0.00  0.00    +0.000 A 
ATOM     21  C   UNL     1       1.395   8.472  20.568  0.00  0.00    +0.000 A 
ATOM     22  C   UNL     1       0.813   9.685  20.968  0.00  0.00    +0.000 A 
ATOM     23 CL   UNL     1       0.344   9.792  22.633  0.00  0.00    +0.000 Cl
ENDBRANCH   8  17
BRANCH   9  24
ATOM     24  C   UNL     1       1.770  13.697  19.907  0.00  0.00    +0.000 A 
ATOM     25  C   UNL     1       2.843  13.846  20.796  0.00  0.00    +0.000 A 
ATOM     26  C   UNL     1       4.050  14.395  20.350  0.00  0.00    +0.000 A 
ATOM     27  C   UNL     1       4.197  14.760  19.013  0.00  0.00    +0.000 A 
ATOM     28 CL   UNL     1       5.663  15.485  18.480  0.00  0.00    +0.000 Cl
ATOM     29  C   UNL     1       3.158  14.555  18.110  0.00  0.00    +0.000 A 
ATOM     30  C   UNL     1       1.946  14.019  18.552  0.00  0.00    +0.000 A 
ENDBRANCH   9  24
TORSDOF 3
ENDMDL
MODEL 6
REMARK VINA RESULT:      -6.2      0.559      1.008
REMARK  Name = 
REMARK  4 active torsions:
REMARK  status: ('A' for Active; 'I' for Inactive)
REMARK    1  A    between atoms: C_1  and  N_2
REMARK    2  A    between atoms: N_5  and  C_6
REMARK    3  A    between atoms: C_13  and  C_14
REMARK    4  A    between atoms: N_21  and  C_22
REMARK                            x       y       z     vdW  Elec       q    Type
REMARK                         _______ _______ _______ _____ _____    ______ ____
ROOT
ATOM      1  C   UNL     1       2.258  15.447  20.109  0.00  0.00    +0.000 A 
ATOM      2  N   UNL     1       1.766  16.445  19.316  0.00  0.00    +0.000 NA
ATOM      3  C   UNL     1       0.581  16.301  18.703  0.00  0.00    +0.000 A 
ATOM      4  N   UNL     1      -0.253  15.257  18.766  0.00  0.00    +0.000 NA
ATOM      5  C   UNL     1       0.236  14.278  19.554  0.00  0.00    +0.000 A 
ATOM      6  C   UNL     1       1.436  14.292  20.243  0.00  0.00    +0.000 A 
ATOM      7  N   UNL     1       1.583  13.116  20.944  0.00  0.00    +0.000 NA
ATOM      8  C   UNL     1       0.495  12.390  20.733  0.00  0.00    +0.000 A 
ATOM      9  N   UNL     1      -0.389  13.082  19.886  0.00  0.00    +0.000 N 
ENDROOT
BRANCH   1  14
ATOM     10  C   UNL     1       7.226  16.995  22.172  0.00  0.00    +0.000 C 
ATOM     11  N   UNL     1       6.125  16.081  21.873  0.00  0.00    +0.000 NA
ATOM     12  C   UNL     1       5.949  15.949  20.406  0.00  0.00    +0.000 C 
ATOM     13  C   UNL     1       4.724  15.090  19.996  0.00  0.00    +0.000 C 
ATOM     14  N   UNL     1       3.523  15.625  20.645  0.00  0.00    +0.000 N 
ATOM     15  C   UNL     1       3.635  15.730  22.106  0.00  0.00    +0.000 C 
ATOM     16  C   UNL     1       4.868  16.584  22.474  0.00  0.00    +0.000 C 
ENDBRANCH   1  14
BRANCH   8  17
ATOM     17  C   UNL     1       0.326  11.011  21.261  0.00  0.00    +0.000 A 
ATOM     18  C   UNL     1       1.010   9.930  20.667  0.00  0.00    +0.000 A 
ATOM     19  C   UNL     1       0.774   8.608  21.055  0.00  0.00    +0.000 A 
ATOM     20  C   UNL     1      -0.082   8.338  22.114  0.00  0.00    +0.000 A 
ATOM     21  C   UNL     1      -0.697   9.394  22.783  0.00  0.00    +0.000 A 
ATOM     22  C   UNL     1      -0.507  10.719  22.359  0.00  0.00    +0.000 A 
ATOM     23 CL   UNL     1      -1.378  11.932  23.239  0.00  0.00    +0.000 Cl
ENDBRANCH   8  17
BRANCH   9  24
ATOM     24  C   UNL     1      -1.674  12.675  19.409  0.00  0.00    +0.000 A 
ATOM     25  C   UNL     1      -2.841  12.993  20.116  0.00  0.00    +0.000 A 
ATOM     26  C   UNL     1      -4.069  12.454  19.719  0.00  0.00    +0.000 A 
ATOM     27  C   UNL     1      -4.138  11.630  18.597  0.00  0.00    +0.000 A 
ATOM     28 CL   UNL     1      -5.639  10.925  18.143  0.00  0.00    +0.000 Cl
ATOM     29  C   UNL     1      -2.994  11.362  17.851  0.00  0.00    +0.000 A 
ATOM     30  C   UNL     1      -1.762  11.887  18.251  0.00  0.00    +0.000 A 
ENDBRANCH   9  24
TORSDOF 3
ENDMDL
MODEL 7
REMARK VINA RESULT:      -6.2      1.053      1.472
REMARK  Name = 
REMARK  4 active torsions:
REMARK  status: ('A' for Active; 'I' for Inactive)
REMARK    1  A    between atoms: C_1  and  N_2
REMARK    2  A    between atoms: N_5  and  C_6
REMARK    3  A    between atoms: C_13  and  C_14
REMARK    4  A    between atoms: N_21  and  C_22
REMARK                            x       y       z     vdW  Elec       q    Type
REMARK                         _______ _______ _______ _____ _____    ______ ____
ROOT
ATOM      1  C   UNL     1       2.074  15.263  19.254  0.00  0.00    +0.000 A 
ATOM      2  N   UNL     1       1.414  16.307  18.671  0.00  0.00    +0.000 NA
ATOM      3  C   UNL     1       0.093  16.232  18.446  0.00  0.00    +0.000 A 
ATOM      4  N   UNL     1      -0.732  15.220  18.739  0.00  0.00    +0.000 NA
ATOM      5  C   UNL     1      -0.075  14.195  19.318  0.00  0.00    +0.000 A 
ATOM      6  C   UNL     1       1.277  14.138  19.607  0.00  0.00    +0.000 A 
ATOM      7  N   UNL     1       1.573  12.932  20.204  0.00  0.00    +0.000 NA
ATOM      8  C   UNL     1       0.439  12.258  20.320  0.00  0.00    +0.000 A 
ATOM      9  N   UNL     1      -0.626  13.014  19.798  0.00  0.00    +0.000 N 
ENDROOT
BRANCH   1  14
ATOM     10  C   UNL     1       7.635  14.859  19.758  0.00  0.00    +0.000 C 
ATOM     11  N   UNL     1       6.355  15.526  19.527  0.00  0.00    +0.000 NA
ATOM     12  C   UNL     1       5.501  15.435  20.736  0.00  0.00    +0.000 C 
ATOM     13  C   UNL     1       4.075  16.014  20.542  0.00  0.00    +0.000 C 
ATOM     14  N   UNL     1       3.450  15.372  19.381  0.00  0.00    +0.000 N 
ATOM     15  C   UNL     1       4.240  15.478  18.147  0.00  0.00    +0.000 C 
ATOM     16  C   UNL     1       5.653  14.900  18.383  0.00  0.00    +0.000 C 
ENDBRANCH   1  14
BRANCH   8  17
ATOM     17  C   UNL     1       0.372  10.869  20.844  0.00  0.00    +0.000 A 
ATOM     18  C   UNL     1       0.992   9.812  20.146  0.00  0.00    +0.000 A 
ATOM     19  C   UNL     1       0.839   8.479  20.542  0.00  0.00    +0.000 A 
ATOM     20  C   UNL     1       0.139   8.176  21.702  0.00  0.00    +0.000 A 
ATOM     21  C   UNL     1      -0.402   9.209  22.464  0.00  0.00    +0.000 A 
ATOM     22  C   UNL     1      -0.299  10.543  22.040  0.00  0.00    +0.000 A 
ATOM     23 CL   UNL     1      -1.069  11.724  23.048  0.00  0.00    +0.000 Cl
ENDBRANCH   8  17
BRANCH   9  24
ATOM     24  C   UNL     1      -2.013  12.675  19.728  0.00  0.00    +0.000 A 
ATOM     25  C   UNL     1      -2.502  11.836  18.718  0.00  0.00    +0.000 A 
ATOM     26  C   UNL     1      -3.881  11.643  18.574  0.00  0.00    +0.000 A 
ATOM     27  C   UNL     1      -4.766  12.257  19.457  0.00  0.00    +0.000 A 
ATOM     28 CL   UNL     1      -6.461  12.061  19.244  0.00  0.00    +0.000 Cl
ATOM     29  C   UNL     1      -4.285  13.039  20.504  0.00  0.00    +0.000 A 
ATOM     30  C   UNL     1      -2.911  13.247  20.644  0.00  0.00    +0.000 A 
ENDBRANCH   9  24
TORSDOF 3
ENDMDL
MODEL 8
REMARK VINA RESULT:      -6.1      2.180      2.893
REMARK  Name = 
REMARK  4 active torsions:
REMARK  status: ('A' for Active; 'I' for Inactive)
REMARK    1  A    between atoms: C_1  and  N_2
REMARK    2  A    between atoms: N_5  and  C_6
REMARK    3  A    between atoms: C_13  and  C_14
REMARK    4  A    between atoms: N_21  and  C_22
REMARK                            x       y       z     vdW  Elec       q    Type
REMARK                         _______ _______ _______ _____ _____    ______ ____
ROOT
ATOM      1  C   UNL     1       1.150  15.703  19.634  0.00  0.00    +0.000 A 
ATOM      2  N   UNL     1       0.452  16.850  19.376  0.00  0.00    +0.000 NA
ATOM      3  C   UNL     1      -0.870  16.901  19.598  0.00  0.00    +0.000 A 
ATOM      4  N   UNL     1      -1.659  15.934  20.078  0.00  0.00    +0.000 NA
ATOM      5  C   UNL     1      -0.964  14.807  20.334  0.00  0.00    +0.000 A 
ATOM      6  C   UNL     1       0.395  14.615  20.153  0.00  0.00    +0.000 A 
ATOM      7  N   UNL     1       0.737  13.336  20.533  0.00  0.00    +0.000 NA
ATOM      8  C   UNL     1      -0.364  12.745  20.973  0.00  0.00    +0.000 A 
ATOM      9  N   UNL     1      -1.453  13.631  20.888  0.00  0.00    +0.000 N 
ENDROOT
BRANCH   1  14
ATOM     10  C   UNL     1       6.443  14.871  18.013  0.00  0.00    +0.000 C 
ATOM     11  N   UNL     1       5.288  15.638  18.474  0.00  0.00    +0.000 NA
ATOM     12  C   UNL     1       4.842  15.152  19.802  0.00  0.00    +0.000 C 
ATOM     13  C   UNL     1       3.546  15.831  20.317  0.00  0.00    +0.000 C 
ATOM     14  N   UNL     1       2.496  15.691  19.303  0.00  0.00    +0.000 N 
ATOM     15  C   UNL     1       2.876  16.204  17.979  0.00  0.00    +0.000 C 
ATOM     16  C   UNL     1       4.173  15.511  17.506  0.00  0.00    +0.000 C 
ENDBRANCH   1  14
BRANCH   8  17
ATOM     17  C   UNL     1      -0.406  11.320  21.393  0.00  0.00    +0.000 A 
ATOM     18  C   UNL     1      -0.611  10.981  22.747  0.00  0.00    +0.000 A 
ATOM     19  C   UNL     1      -0.528   9.660  23.195  0.00  0.00    +0.000 A 
ATOM     20  C   UNL     1      -0.330   8.630  22.285  0.00  0.00    +0.000 A 
ATOM     21  C   UNL     1      -0.221   8.926  20.929  0.00  0.00    +0.000 A 
ATOM     22  C   UNL     1      -0.247  10.257  20.482  0.00  0.00    +0.000 A 
ATOM     23 CL   UNL     1      -0.039  10.492  18.778  0.00  0.00    +0.000 Cl
ENDBRANCH   8  17
BRANCH   9  24
ATOM     24  C   UNL     1      -2.816  13.411  21.260  0.00  0.00    +0.000 A 
ATOM     25  C   UNL     1      -3.726  12.838  20.362  0.00  0.00    +0.000 A 
ATOM     26  C   UNL     1      -5.086  12.775  20.688  0.00  0.00    +0.000 A 
ATOM     27  C   UNL     1      -5.529  13.250  21.920  0.00  0.00    +0.000 A 
ATOM     28 CL   UNL     1      -7.207  13.221  22.295  0.00  0.00    +0.000 Cl
ATOM     29  C   UNL     1      -4.622  13.761  22.845  0.00  0.00    +0.000 A 
ATOM     30  C   UNL     1      -3.265  13.838  22.519  0.00  0.00    +0.000 A 
ENDBRANCH   9  24
TORSDOF 3
ENDMDL
MODEL 9
REMARK VINA RESULT:      -6.1      1.452      1.988
REMARK  Name = 
REMARK  4 active torsions:
REMARK  status: ('A' for Active; 'I' for Inactive)
REMARK    1  A    between atoms: C_1  and  N_2
REMARK    2  A    between atoms: N_5  and  C_6
REMARK    3  A    between atoms: C_13  and  C_14
REMARK    4  A    between atoms: N_21  and  C_22
REMARK                            x       y       z     vdW  Elec       q    Type
REMARK                         _______ _______ _______ _____ _____    ______ ____
ROOT
ATOM      1  C   UNL     1       2.281  15.572  19.354  0.00  0.00    +0.000 A 
ATOM      2  N   UNL     1       1.419  16.621  19.193  0.00  0.00    +0.000 NA
ATOM      3  C   UNL     1       0.124  16.398  18.920  0.00  0.00    +0.000 A 
ATOM      4  N   UNL     1      -0.493  15.219  18.785  0.00  0.00    +0.000 NA
ATOM      5  C   UNL     1       0.361  14.189  18.949  0.00  0.00    +0.000 A 
ATOM      6  C   UNL     1       1.713  14.273  19.232  0.00  0.00    +0.000 A 
ATOM      7  N   UNL     1       2.245  13.007  19.334  0.00  0.00    +0.000 NA
ATOM      8  C   UNL     1       1.256  12.145  19.155  0.00  0.00    +0.000 A 
ATOM      9  N   UNL     1       0.051  12.835  18.930  0.00  0.00    +0.000 N 
ENDROOT
BRANCH   1  14
ATOM     10  C   UNL     1       7.834  15.989  19.916  0.00  0.00    +0.000 C 
ATOM     11  N   UNL     1       6.457  16.469  19.827  0.00  0.00    +0.000 NA
ATOM     12  C   UNL     1       5.646  15.919  20.941  0.00  0.00    +0.000 C 
ATOM     13  C   UNL     1       4.140  16.281  20.859  0.00  0.00    +0.000 C 
ATOM     14  N   UNL     1       3.619  15.874  19.551  0.00  0.00    +0.000 N 
ATOM     15  C   UNL     1       4.364  16.434  18.414  0.00  0.00    +0.000 C 
ATOM     16  C   UNL     1       5.857  16.060  18.536  0.00  0.00    +0.000 C 
ENDBRANCH   1  14
BRANCH   8  17
ATOM     17  C   UNL     1       1.461  10.674  19.111  0.00  0.00    +0.000 A 
ATOM     18  C   UNL     1       2.012  10.063  17.965  0.00  0.00    +0.000 A 
ATOM     19  C   UNL     1       2.098   8.674  17.841  0.00  0.00    +0.000 A 
ATOM     20  C   UNL     1       1.721   7.858  18.899  0.00  0.00    +0.000 A 
ATOM     21  C   UNL     1       1.265   8.437  20.081  0.00  0.00    +0.000 A 
ATOM     22  C   UNL     1       1.124   9.830  20.188  0.00  0.00    +0.000 A 
ATOM     23 CL   UNL     1       0.486  10.417  21.688  0.00  0.00    +0.000 Cl
ENDBRANCH   8  17
BRANCH   9  24
ATOM     24  C   UNL     1      -1.255  12.302  18.699  0.00  0.00    +0.000 A 
ATOM     25  C   UNL     1      -1.588  11.713  17.472  0.00  0.00    +0.000 A 
ATOM     26  C   UNL     1      -2.912  11.341  17.211  0.00  0.00    +0.000 A 
ATOM     27  C   UNL     1      -3.891  11.521  18.185  0.00  0.00    +0.000 A 
ATOM     28 CL   UNL     1      -5.526  11.112  17.841  0.00  0.00    +0.000 Cl
ATOM     29  C   UNL     1      -3.556  12.045  19.430  0.00  0.00    +0.000 A 
ATOM     30  C   UNL     1      -2.239  12.431  19.692  0.00  0.00    +0.000 A 
ENDBRANCH   9  24
TORSDOF 3
ENDMDL
