MODEL 1
REMARK VINA RESULT:      -7.9      0.000      0.000
REMARK  Name = 
REMARK  6 active torsions:
REMARK  status: ('A' for Active; 'I' for Inactive)
REMARK    1  A    between atoms: C_5  and  S_6
REMARK    2  A    between atoms: S_6  and  C_7
REMARK    3  A    between atoms: C_9  and  C_10
REMARK    4  A    between atoms: C_17  and  C_18
REMARK    5  A    between atoms: N_21  and  C_22
REMARK    6  A    between atoms: C_22  and  C_23
REMARK                            x       y       z     vdW  Elec       q    Type
REMARK                         _______ _______ _______ _____ _____    ______ ____
ROOT
ATOM      1  C   UNL     1       1.395   9.481  19.352  0.00  0.00    +0.000 A 
ATOM      2  O   UNL     1       2.026   8.376  18.819  0.00  0.00    +0.000 OA
ATOM      3  C   UNL     1       1.986   7.440  19.816  0.00  0.00    +0.000 A 
ATOM      4  N   UNL     1       1.420   7.855  20.927  0.00  0.00    +0.000 NA
ATOM      5  C   UNL     1       1.005   9.135  20.634  0.00  0.00    +0.000 A 
ENDROOT
BRANCH   3   6
ATOM      6  C   UNL     1       2.570   6.096  19.533  0.00  0.00    +0.000 C 
ATOM      7  C   UNL     1       2.277   5.669  18.085  0.00  0.00    +0.000 C 
ATOM      8  C   UNL     1       2.676   4.218  17.854  0.00  0.00    +0.000 C 
ATOM      9  O   UNL     1       2.046   3.362  18.802  0.00  0.00    +0.000 OA
ATOM     10  C   UNL     1       2.434   3.660  20.142  0.00  0.00    +0.000 C 
ATOM     11  C   UNL     1       2.011   5.069  20.522  0.00  0.00    +0.000 C 
ENDBRANCH   3   6
BRANCH   5  12
ATOM     12  C   UNL     1       0.238   9.841  21.648  0.00  0.00    +0.000 A 
ATOM     13  C   UNL     1      -0.295   9.356  22.860  0.00  0.00    +0.000 A 
ATOM     14  N   UNL     1      -0.940  10.304  23.550  0.00  0.00    +0.000 NA
ATOM     15  N   UNL     1      -0.804  11.404  22.780  0.00  0.00    +0.000 N 
ATOM     16  C   UNL     1      -0.111  11.168  21.629  0.00  0.00    +0.000 A 
BRANCH  15  17
ATOM     17  C   UNL     1      -1.425  12.652  23.168  0.00  0.00    +0.000 C 
BRANCH  17  18
ATOM     18  C   UNL     1      -2.922  12.680  22.879  0.00  0.00    +0.000 C 
ATOM     19  O   UNL     1      -3.665  12.110  23.964  0.00  0.00    +0.000 OA
ATOM     20  C   UNL     1      -4.900  12.817  23.959  0.00  0.00    +0.000 C 
ATOM     21  C   UNL     1      -4.517  14.202  23.509  0.00  0.00    +0.000 C 
ATOM     22  O   UNL     1      -3.364  14.035  22.680  0.00  0.00    +0.000 OA
ENDBRANCH  17  18
ENDBRANCH  15  17
ENDBRANCH   5  12
BRANCH   1  23
ATOM     23  S   UNL     1       1.095  10.912  18.407  0.00  0.00    +0.000 S 
BRANCH  23  28
ATOM     24 CL   UNL     1      -5.164  10.883  17.649  0.00  0.00    +0.000 Cl
ATOM     25  C   UNL     1      -3.457  10.861  17.859  0.00  0.00    +0.000 A 
ATOM     26  C   UNL     1      -2.835  11.889  18.561  0.00  0.00    +0.000 A 
ATOM     27  C   UNL     1      -1.447  11.869  18.732  0.00  0.00    +0.000 A 
ATOM     28  C   UNL     1      -0.677  10.818  18.223  0.00  0.00    +0.000 A 
ATOM     29  C   UNL     1      -1.314   9.796  17.505  0.00  0.00    +0.000 A 
ATOM     30  C   UNL     1      -2.704   9.819  17.323  0.00  0.00    +0.000 A 
ENDBRANCH  23  28
ENDBRANCH   1  23
TORSDOF 6
ENDMDL
MODEL 2
REMARK VINA RESULT:      -7.8      0.521      1.085
REMARK  Name = 
REMARK  6 active torsions:
REMARK  status: ('A' for Active; 'I' for Inactive)
REMARK    1  A    between atoms: C_5  and  S_6
REMARK    2  A    between atoms: S_6  and  C_7
REMARK    3  A    between atoms: C_9  and  C_10
REMARK    4  A    between atoms: C_17  and  C_18
REMARK    5  A    between atoms: N_21  and  C_22
REMARK    6  A    between atoms: C_22  and  C_23
REMARK                            x       y       z     vdW  Elec       q    Type
REMARK                         _______ _______ _______ _____ _____    ______ ____
ROOT
ATOM      1  C   UNL     1       1.382   9.625  19.398  0.00  0.00    +0.000 A 
ATOM      2  O   UNL     1       2.010   8.509  18.885  0.00  0.00    +0.000 OA
ATOM      3  C   UNL     1       1.920   7.574  19.879  0.00  0.00    +0.000 A 
ATOM      4  N   UNL     1       1.326   7.998  20.971  0.00  0.00    +0.000 NA
ATOM      5  C   UNL     1       0.945   9.286  20.666  0.00  0.00    +0.000 A 
ENDROOT
BRANCH   3   6
ATOM      6  C   UNL     1       2.488   6.219  19.613  0.00  0.00    +0.000 C 
ATOM      7  C   UNL     1       2.307   5.832  18.137  0.00  0.00    +0.000 C 
ATOM      8  C   UNL     1       2.684   4.376  17.905  0.00  0.00    +0.000 C 
ATOM      9  O   UNL     1       1.951   3.518  18.776  0.00  0.00    +0.000 OA
ATOM     10  C   UNL     1       2.232   3.776  20.151  0.00  0.00    +0.000 C 
ATOM     11  C   UNL     1       1.818   5.188  20.527  0.00  0.00    +0.000 C 
ENDBRANCH   3   6
BRANCH   5  12
ATOM     12  C   UNL     1       0.158  10.006  21.655  0.00  0.00    +0.000 A 
ATOM     13  C   UNL     1      -0.459   9.521  22.827  0.00  0.00    +0.000 A 
ATOM     14  N   UNL     1      -1.096  10.483  23.504  0.00  0.00    +0.000 NA
ATOM     15  N   UNL     1      -0.871  11.592  22.768  0.00  0.00    +0.000 N 
ATOM     16  C   UNL     1      -0.130  11.347  21.649  0.00  0.00    +0.000 A 
BRANCH  15  17
ATOM     17  C   UNL     1      -1.454  12.859  23.151  0.00  0.00    +0.000 C 
BRANCH  17  18
ATOM     18  C   UNL     1      -2.918  12.734  23.559  0.00  0.00    +0.000 C 
ATOM     19  O   UNL     1      -3.433  13.992  24.016  0.00  0.00    +0.000 OA
ATOM     20  C   UNL     1      -4.809  13.964  23.653  0.00  0.00    +0.000 C 
ATOM     21  C   UNL     1      -4.825  13.183  22.367  0.00  0.00    +0.000 C 
ATOM     22  O   UNL     1      -3.710  12.291  22.443  0.00  0.00    +0.000 OA
ENDBRANCH  17  18
ENDBRANCH  15  17
ENDBRANCH   5  12
BRANCH   1  23
ATOM     23  S   UNL     1       1.139  11.062  18.445  0.00  0.00    +0.000 S 
BRANCH  23  28
ATOM     24 CL   UNL     1      -5.124  10.641  17.857  0.00  0.00    +0.000 Cl
ATOM     25  C   UNL     1      -3.417  10.786  18.013  0.00  0.00    +0.000 A 
ATOM     26  C   UNL     1      -2.590   9.792  17.499  0.00  0.00    +0.000 A 
ATOM     27  C   UNL     1      -1.203   9.911  17.625  0.00  0.00    +0.000 A 
ATOM     28  C   UNL     1      -0.633  11.028  18.246  0.00  0.00    +0.000 A 
ATOM     29  C   UNL     1      -1.477  12.016  18.772  0.00  0.00    +0.000 A 
ATOM     30  C   UNL     1      -2.869  11.894  18.657  0.00  0.00    +0.000 A 
ENDBRANCH  23  28
ENDBRANCH   1  23
TORSDOF 6
ENDMDL
MODEL 3
REMARK VINA RESULT:      -7.7      1.240      1.578
REMARK  Name = 
REMARK  6 active torsions:
REMARK  status: ('A' for Active; 'I' for Inactive)
REMARK    1  A    between atoms: C_5  and  S_6
REMARK    2  A    between atoms: S_6  and  C_7
REMARK    3  A    between atoms: C_9  and  C_10
REMARK    4  A    between atoms: C_17  and  C_18
REMARK    5  A    between atoms: N_21  and  C_22
REMARK    6  A    between atoms: C_22  and  C_23
REMARK                            x       y       z     vdW  Elec       q    Type
REMARK                         _______ _______ _______ _____ _____    ______ ____
ROOT
ATOM      1  C   UNL     1       1.250   9.920  18.970  0.00  0.00    +0.000 A 
ATOM      2  O   UNL     1       1.882   8.997  18.161  0.00  0.00    +0.000 OA
ATOM      3  C   UNL     1       2.075   7.908  18.965  0.00  0.00    +0.000 A 
ATOM      4  N   UNL     1       1.656   8.063  20.200  0.00  0.00    +0.000 NA
ATOM      5  C   UNL     1       1.095   9.321  20.207  0.00  0.00    +0.000 A 
ENDROOT
BRANCH   3   6
ATOM      6  C   UNL     1       2.720   6.704  18.361  0.00  0.00    +0.000 C 
ATOM      7  C   UNL     1       3.143   5.708  19.453  0.00  0.00    +0.000 C 
ATOM      8  C   UNL     1       3.990   4.587  18.869  0.00  0.00    +0.000 C 
ATOM      9  O   UNL     1       5.110   5.112  18.162  0.00  0.00    +0.000 OA
ATOM     10  C   UNL     1       4.719   5.919  17.053  0.00  0.00    +0.000 C 
ATOM     11  C   UNL     1       3.928   7.129  17.521  0.00  0.00    +0.000 C 
ENDBRANCH   3   6
BRANCH   5  12
ATOM     12  C   UNL     1       0.438   9.756  21.430  0.00  0.00    +0.000 A 
ATOM     13  C   UNL     1       0.627   9.303  22.752  0.00  0.00    +0.000 A 
ATOM     14  N   UNL     1      -0.153   9.947  23.629  0.00  0.00    +0.000 NA
ATOM     15  N   UNL     1      -0.832  10.827  22.862  0.00  0.00    +0.000 N 
ATOM     16  C   UNL     1      -0.512  10.740  21.539  0.00  0.00    +0.000 A 
BRANCH  15  17
ATOM     17  C   UNL     1      -1.836  11.688  23.448  0.00  0.00    +0.000 C 
BRANCH  17  18
ATOM     18  C   UNL     1      -2.644  12.448  22.402  0.00  0.00    +0.000 C 
ATOM     19  O   UNL     1      -4.051  12.292  22.628  0.00  0.00    +0.000 OA
ATOM     20  C   UNL     1      -4.621  13.511  22.167  0.00  0.00    +0.000 C 
ATOM     21  C   UNL     1      -3.574  14.542  22.493  0.00  0.00    +0.000 C 
ATOM     22  O   UNL     1      -2.324  13.850  22.449  0.00  0.00    +0.000 OA
ENDBRANCH  17  18
ENDBRANCH  15  17
ENDBRANCH   5  12
BRANCH   1  23
ATOM     23  S   UNL     1       0.687  11.448  18.355  0.00  0.00    +0.000 S 
BRANCH  23  28
ATOM     24 CL   UNL     1      -5.544  10.631  17.849  0.00  0.00    +0.000 Cl
ATOM     25  C   UNL     1      -3.840  10.824  17.989  0.00  0.00    +0.000 A 
ATOM     26  C   UNL     1      -3.324  11.910  18.688  0.00  0.00    +0.000 A 
ATOM     27  C   UNL     1      -1.939  12.066  18.803  0.00  0.00    +0.000 A 
ATOM     28  C   UNL     1      -1.064  11.131  18.240  0.00  0.00    +0.000 A 
ATOM     29  C   UNL     1      -1.596  10.047  17.526  0.00  0.00    +0.000 A 
ATOM     30  C   UNL     1      -2.984   9.895  17.400  0.00  0.00    +0.000 A 
ENDBRANCH  23  28
ENDBRANCH   1  23
TORSDOF 6
ENDMDL
MODEL 4
REMARK VINA RESULT:      -7.7      8.234     10.111
REMARK  Name = 
REMARK  6 active torsions:
REMARK  status: ('A' for Active; 'I' for Inactive)
REMARK    1  A    between atoms: C_5  and  S_6
REMARK    2  A    between atoms: S_6  and  C_7
REMARK    3  A    between atoms: C_9  and  C_10
REMARK    4  A    between atoms: C_17  and  C_18
REMARK    5  A    between atoms: N_21  and  C_22
REMARK    6  A    between atoms: C_22  and  C_23
REMARK                            x       y       z     vdW  Elec       q    Type
REMARK                         _______ _______ _______ _____ _____    ______ ____
ROOT
ATOM      1  C   UNL     1       6.404   5.459  17.796  0.00  0.00    +0.000 A 
ATOM      2  O   UNL     1       6.187   4.534  16.796  0.00  0.00    +0.000 OA
ATOM      3  C   UNL     1       6.845   5.039  15.709  0.00  0.00    +0.000 A 
ATOM      4  N   UNL     1       7.428   6.198  15.917  0.00  0.00    +0.000 NA
ATOM      5  C   UNL     1       7.190   6.457  17.249  0.00  0.00    +0.000 A 
ENDROOT
BRANCH   3   6
ATOM      6  C   UNL     1       6.827   4.237  14.450  0.00  0.00    +0.000 C 
ATOM      7  C   UNL     1       7.565   4.977  13.322  0.00  0.00    +0.000 C 
ATOM      8  C   UNL     1       7.365   4.274  11.987  0.00  0.00    +0.000 C 
ATOM      9  O   UNL     1       5.979   4.111  11.702  0.00  0.00    +0.000 OA
ATOM     10  C   UNL     1       5.319   3.297  12.670  0.00  0.00    +0.000 C 
ATOM     11  C   UNL     1       5.380   3.942  14.044  0.00  0.00    +0.000 C 
ENDBRANCH   3   6
BRANCH   5  12
ATOM     12  C   UNL     1       7.805   7.645  17.823  0.00  0.00    +0.000 A 
ATOM     13  C   UNL     1       8.592   7.764  18.987  0.00  0.00    +0.000 A 
ATOM     14  N   UNL     1       8.997   9.022  19.202  0.00  0.00    +0.000 NA
ATOM     15  N   UNL     1       8.480   9.704  18.158  0.00  0.00    +0.000 N 
ATOM     16  C   UNL     1       7.754   8.917  17.313  0.00  0.00    +0.000 A 
BRANCH  15  17
ATOM     17  C   UNL     1       8.657  11.136  18.058  0.00  0.00    +0.000 C 
BRANCH  17  18
ATOM     18  C   UNL     1      10.036  11.593  18.523  0.00  0.00    +0.000 C 
ATOM     19  O   UNL     1      10.886  11.880  17.404  0.00  0.00    +0.000 OA
ATOM     20  C   UNL     1      11.742  12.918  17.866  0.00  0.00    +0.000 C 
ATOM     21  C   UNL     1      10.871  13.710  18.803  0.00  0.00    +0.000 C 
ATOM     22  O   UNL     1       9.921  12.779  19.329  0.00  0.00    +0.000 OA
ENDBRANCH  17  18
ENDBRANCH  15  17
ENDBRANCH   5  12
BRANCH   1  23
ATOM     23  S   UNL     1       5.849   5.198  19.426  0.00  0.00    +0.000 S 
BRANCH  23  28
ATOM     24 CL   UNL     1       0.387   2.148  18.644  0.00  0.00    +0.000 Cl
ATOM     25  C   UNL     1       1.873   2.993  18.830  0.00  0.00    +0.000 A 
ATOM     26  C   UNL     1       2.951   2.366  19.446  0.00  0.00    +0.000 A 
ATOM     27  C   UNL     1       4.160   3.053  19.596  0.00  0.00    +0.000 A 
ATOM     28  C   UNL     1       4.305   4.359  19.117  0.00  0.00    +0.000 A 
ATOM     29  C   UNL     1       3.207   4.986  18.510  0.00  0.00    +0.000 A 
ATOM     30  C   UNL     1       1.992   4.303  18.368  0.00  0.00    +0.000 A 
ENDBRANCH  23  28
ENDBRANCH   1  23
TORSDOF 6
ENDMDL
MODEL 5
REMARK VINA RESULT:      -7.6      1.158      1.416
REMARK  Name = 
REMARK  6 active torsions:
REMARK  status: ('A' for Active; 'I' for Inactive)
REMARK    1  A    between atoms: C_5  and  S_6
REMARK    2  A    between atoms: S_6  and  C_7
REMARK    3  A    between atoms: C_9  and  C_10
REMARK    4  A    between atoms: C_17  and  C_18
REMARK    5  A    between atoms: N_21  and  C_22
REMARK    6  A    between atoms: C_22  and  C_23
REMARK                            x       y       z     vdW  Elec       q    Type
REMARK                         _______ _______ _______ _____ _____    ______ ____
ROOT
ATOM      1  C   UNL     1       1.712   9.088  19.010  0.00  0.00    +0.000 A 
ATOM      2  O   UNL     1       2.183   8.033  18.257  0.00  0.00    +0.000 OA
ATOM      3  C   UNL     1       2.145   6.959  19.103  0.00  0.00    +0.000 A 
ATOM      4  N   UNL     1       1.725   7.239  20.316  0.00  0.00    +0.000 NA
ATOM      5  C   UNL     1       1.410   8.578  20.260  0.00  0.00    +0.000 A 
ENDROOT
BRANCH   3   6
ATOM      6  C   UNL     1       2.569   5.633  18.564  0.00  0.00    +0.000 C 
ATOM      7  C   UNL     1       1.960   4.489  19.390  0.00  0.00    +0.000 C 
ATOM      8  C   UNL     1       2.557   3.149  18.987  0.00  0.00    +0.000 C 
ATOM      9  O   UNL     1       3.978   3.177  19.081  0.00  0.00    +0.000 OA
ATOM     10  C   UNL     1       4.559   4.138  18.201  0.00  0.00    +0.000 C 
ATOM     11  C   UNL     1       4.098   5.541  18.560  0.00  0.00    +0.000 C 
ENDBRANCH   3   6
BRANCH   5  12
ATOM     12  C   UNL     1       0.810   9.177  21.443  0.00  0.00    +0.000 A 
ATOM     13  C   UNL     1       1.241   9.122  22.785  0.00  0.00    +0.000 A 
ATOM     14  N   UNL     1       0.437   9.806  23.608  0.00  0.00    +0.000 NA
ATOM     15  N   UNL     1      -0.504  10.312  22.783  0.00  0.00    +0.000 N 
ATOM     16  C   UNL     1      -0.320   9.953  21.480  0.00  0.00    +0.000 A 
BRANCH  15  17
ATOM     17  C   UNL     1      -1.606  11.084  23.314  0.00  0.00    +0.000 C 
BRANCH  17  18
ATOM     18  C   UNL     1      -2.229  12.013  22.277  0.00  0.00    +0.000 C 
ATOM     19  O   UNL     1      -3.619  12.231  22.553  0.00  0.00    +0.000 OA
ATOM     20  C   UNL     1      -3.871  13.550  22.082  0.00  0.00    +0.000 C 
ATOM     21  C   UNL     1      -2.580  14.277  22.349  0.00  0.00    +0.000 C 
ATOM     22  O   UNL     1      -1.555  13.284  22.279  0.00  0.00    +0.000 OA
ENDBRANCH  17  18
ENDBRANCH  15  17
ENDBRANCH   5  12
BRANCH   1  23
ATOM     23  S   UNL     1       1.466  10.670  18.325  0.00  0.00    +0.000 S 
BRANCH  23  28
ATOM     24 CL   UNL     1      -4.804  11.096  17.816  0.00  0.00    +0.000 Cl
ATOM     25  C   UNL     1      -3.096  10.949  17.958  0.00  0.00    +0.000 A 
ATOM     26  C   UNL     1      -2.370  11.946  18.602  0.00  0.00    +0.000 A 
ATOM     27  C   UNL     1      -0.982  11.827  18.719  0.00  0.00    +0.000 A 
ATOM     28  C   UNL     1      -0.314  10.705  18.214  0.00  0.00    +0.000 A 
ATOM     29  C   UNL     1      -1.055   9.714  17.555  0.00  0.00    +0.000 A 
ATOM     30  C   UNL     1      -2.446   9.837  17.427  0.00  0.00    +0.000 A 
ENDBRANCH  23  28
ENDBRANCH   1  23
TORSDOF 6
ENDMDL
MODEL 6
REMARK VINA RESULT:      -7.6      0.967      1.245
REMARK  Name = 
REMARK  6 active torsions:
REMARK  status: ('A' for Active; 'I' for Inactive)
REMARK    1  A    between atoms: C_5  and  S_6
REMARK    2  A    between atoms: S_6  and  C_7
REMARK    3  A    between atoms: C_9  and  C_10
REMARK    4  A    between atoms: C_17  and  C_18
REMARK    5  A    between atoms: N_21  and  C_22
REMARK    6  A    between atoms: C_22  and  C_23
REMARK                            x       y       z     vdW  Elec       q    Type
REMARK                         _______ _______ _______ _____ _____    ______ ____
ROOT
ATOM      1  C   UNL     1       1.532   9.268  19.430  0.00  0.00    +0.000 A 
ATOM      2  O   UNL     1       2.114   8.163  18.845  0.00  0.00    +0.000 OA
ATOM      3  C   UNL     1       2.001   7.174  19.783  0.00  0.00    +0.000 A 
ATOM      4  N   UNL     1       1.434   7.553  20.905  0.00  0.00    +0.000 NA
ATOM      5  C   UNL     1       1.095   8.869  20.681  0.00  0.00    +0.000 A 
ENDROOT
BRANCH   3   6
ATOM      6  C   UNL     1       2.519   5.819  19.431  0.00  0.00    +0.000 C 
ATOM      7  C   UNL     1       2.183   5.469  17.972  0.00  0.00    +0.000 C 
ATOM      8  C   UNL     1       2.511   4.014  17.672  0.00  0.00    +0.000 C 
ATOM      9  O   UNL     1       1.858   3.145  18.594  0.00  0.00    +0.000 OA
ATOM     10  C   UNL     1       2.282   3.367  19.938  0.00  0.00    +0.000 C 
ATOM     11  C   UNL     1       1.930   4.775  20.385  0.00  0.00    +0.000 C 
ENDBRANCH   3   6
BRANCH   5  12
ATOM     12  C   UNL     1       0.344   9.556  21.721  0.00  0.00    +0.000 A 
ATOM     13  C   UNL     1       0.443   9.429  23.122  0.00  0.00    +0.000 A 
ATOM     14  N   UNL     1      -0.409  10.234  23.769  0.00  0.00    +0.000 NA
ATOM     15  N   UNL     1      -1.043  10.890  22.774  0.00  0.00    +0.000 N 
ATOM     16  C   UNL     1      -0.625  10.508  21.532  0.00  0.00    +0.000 A 
BRANCH  15  17
ATOM     17  C   UNL     1      -2.099  11.831  23.073  0.00  0.00    +0.000 C 
BRANCH  17  18
ATOM     18  C   UNL     1      -1.710  13.272  22.762  0.00  0.00    +0.000 C 
ATOM     19  O   UNL     1      -2.855  14.133  22.800  0.00  0.00    +0.000 OA
ATOM     20  C   UNL     1      -2.343  15.387  23.237  0.00  0.00    +0.000 C 
ATOM     21  C   UNL     1      -1.231  15.010  24.179  0.00  0.00    +0.000 C 
ATOM     22  O   UNL     1      -0.746  13.746  23.719  0.00  0.00    +0.000 OA
ENDBRANCH  17  18
ENDBRANCH  15  17
ENDBRANCH   5  12
BRANCH   1  23
ATOM     23  S   UNL     1       1.330  10.766  18.567  0.00  0.00    +0.000 S 
BRANCH  23  28
ATOM     24 CL   UNL     1      -4.869  10.996  17.440  0.00  0.00    +0.000 Cl
ATOM     25  C   UNL     1      -3.180  10.903  17.752  0.00  0.00    +0.000 A 
ATOM     26  C   UNL     1      -2.545  11.944  18.423  0.00  0.00    +0.000 A 
ATOM     27  C   UNL     1      -1.172  11.868  18.677  0.00  0.00    +0.000 A 
ATOM     28  C   UNL     1      -0.431  10.747  18.284  0.00  0.00    +0.000 A 
ATOM     29  C   UNL     1      -1.080   9.712  17.597  0.00  0.00    +0.000 A 
ATOM     30  C   UNL     1      -2.454   9.791  17.331  0.00  0.00    +0.000 A 
ENDBRANCH  23  28
ENDBRANCH   1  23
TORSDOF 6
ENDMDL
MODEL 7
REMARK VINA RESULT:      -7.6      1.269      1.867
REMARK  Name = 
REMARK  6 active torsions:
REMARK  status: ('A' for Active; 'I' for Inactive)
REMARK    1  A    between atoms: C_5  and  S_6
REMARK    2  A    between atoms: S_6  and  C_7
REMARK    3  A    between atoms: C_9  and  C_10
REMARK    4  A    between atoms: C_17  and  C_18
REMARK    5  A    between atoms: N_21  and  C_22
REMARK    6  A    between atoms: C_22  and  C_23
REMARK                            x       y       z     vdW  Elec       q    Type
REMARK                         _______ _______ _______ _____ _____    ______ ____
ROOT
ATOM      1  C   UNL     1       1.852   9.149  18.753  0.00  0.00    +0.000 A 
ATOM      2  O   UNL     1       2.268   8.134  17.916  0.00  0.00    +0.000 OA
ATOM      3  C   UNL     1       2.198   7.004  18.682  0.00  0.00    +0.000 A 
ATOM      4  N   UNL     1       1.807   7.209  19.919  0.00  0.00    +0.000 NA
ATOM      5  C   UNL     1       1.546   8.560  19.967  0.00  0.00    +0.000 A 
ENDROOT
BRANCH   3   6
ATOM      6  C   UNL     1       2.560   5.705  18.040  0.00  0.00    +0.000 C 
ATOM      7  C   UNL     1       2.103   4.522  18.909  0.00  0.00    +0.000 C 
ATOM      8  C   UNL     1       2.656   3.209  18.375  0.00  0.00    +0.000 C 
ATOM      9  O   UNL     1       4.075   3.267  18.256  0.00  0.00    +0.000 OA
ATOM     10  C   UNL     1       4.499   4.268  17.332  0.00  0.00    +0.000 C 
ATOM     11  C   UNL     1       4.073   5.648  17.804  0.00  0.00    +0.000 C 
ENDBRANCH   3   6
BRANCH   5  12
ATOM     12  C   UNL     1       0.988   9.093  21.201  0.00  0.00    +0.000 A 
ATOM     13  C   UNL     1       1.521   9.062  22.505  0.00  0.00    +0.000 A 
ATOM     14  N   UNL     1       0.726   9.666  23.397  0.00  0.00    +0.000 NA
ATOM     15  N   UNL     1      -0.314  10.099  22.652  0.00  0.00    +0.000 N 
ATOM     16  C   UNL     1      -0.198   9.770  21.333  0.00  0.00    +0.000 A 
BRANCH  15  17
ATOM     17  C   UNL     1      -1.434  10.768  23.275  0.00  0.00    +0.000 C 
BRANCH  17  18
ATOM     18  C   UNL     1      -1.687  12.156  22.698  0.00  0.00    +0.000 C 
ATOM     19  O   UNL     1      -3.091  12.442  22.644  0.00  0.00    +0.000 OA
ATOM     20  C   UNL     1      -3.174  13.850  22.829  0.00  0.00    +0.000 C 
ATOM     21  C   UNL     1      -2.034  14.156  23.764  0.00  0.00    +0.000 C 
ATOM     22  O   UNL     1      -1.044  13.157  23.507  0.00  0.00    +0.000 OA
ENDBRANCH  17  18
ENDBRANCH  15  17
ENDBRANCH   5  12
BRANCH   1  23
ATOM     23  S   UNL     1       1.660  10.785  18.189  0.00  0.00    +0.000 S 
BRANCH  23  28
ATOM     24 CL   UNL     1      -4.643  10.911  18.097  0.00  0.00    +0.000 Cl
ATOM     25  C   UNL     1      -2.923  10.906  18.118  0.00  0.00    +0.000 A 
ATOM     26  C   UNL     1      -2.229   9.844  17.547  0.00  0.00    +0.000 A 
ATOM     27  C   UNL     1      -0.831   9.842  17.564  0.00  0.00    +0.000 A 
ATOM     28  C   UNL     1      -0.119  10.905  18.130  0.00  0.00    +0.000 A 
ATOM     29  C   UNL     1      -0.830  11.964  18.713  0.00  0.00    +0.000 A 
ATOM     30  C   UNL     1      -2.232  11.963  18.708  0.00  0.00    +0.000 A 
ENDBRANCH  23  28
ENDBRANCH   1  23
TORSDOF 6
ENDMDL
MODEL 8
REMARK VINA RESULT:      -7.6      1.367      1.800
REMARK  Name = 
REMARK  6 active torsions:
REMARK  status: ('A' for Active; 'I' for Inactive)
REMARK    1  A    between atoms: C_5  and  S_6
REMARK    2  A    between atoms: S_6  and  C_7
REMARK    3  A    between atoms: C_9  and  C_10
REMARK    4  A    between atoms: C_17  and  C_18
REMARK    5  A    between atoms: N_21  and  C_22
REMARK    6  A    between atoms: C_22  and  C_23
REMARK                            x       y       z     vdW  Elec       q    Type
REMARK                         _______ _______ _______ _____ _____    ______ ____
ROOT
ATOM      1  C   UNL     1       1.657   9.302  18.925  0.00  0.00    +0.000 A 
ATOM      2  O   UNL     1       2.189   8.285  18.159  0.00  0.00    +0.000 OA
ATOM      3  C   UNL     1       2.215   7.202  18.993  0.00  0.00    +0.000 A 
ATOM      4  N   UNL     1       1.782   7.442  20.210  0.00  0.00    +0.000 NA
ATOM      5  C   UNL     1       1.388   8.761  20.170  0.00  0.00    +0.000 A 
ENDROOT
BRANCH   3   6
ATOM      6  C   UNL     1       2.717   5.909  18.439  0.00  0.00    +0.000 C 
ATOM      7  C   UNL     1       1.810   4.744  18.868  0.00  0.00    +0.000 C 
ATOM      8  C   UNL     1       2.430   3.406  18.494  0.00  0.00    +0.000 C 
ATOM      9  O   UNL     1       3.744   3.286  19.032  0.00  0.00    +0.000 OA
ATOM     10  C   UNL     1       4.630   4.279  18.519  0.00  0.00    +0.000 C 
ATOM     11  C   UNL     1       4.157   5.671  18.903  0.00  0.00    +0.000 C 
ENDBRANCH   3   6
BRANCH   5  12
ATOM     12  C   UNL     1       0.755   9.310  21.360  0.00  0.00    +0.000 A 
ATOM     13  C   UNL     1       1.155   9.208  22.708  0.00  0.00    +0.000 A 
ATOM     14  N   UNL     1       0.326   9.853  23.537  0.00  0.00    +0.000 NA
ATOM     15  N   UNL     1      -0.599  10.383  22.710  0.00  0.00    +0.000 N 
ATOM     16  C   UNL     1      -0.382  10.075  21.399  0.00  0.00    +0.000 A 
BRANCH  15  17
ATOM     17  C   UNL     1      -1.720  11.126  23.243  0.00  0.00    +0.000 C 
BRANCH  17  18
ATOM     18  C   UNL     1      -1.535  12.635  23.130  0.00  0.00    +0.000 C 
ATOM     19  O   UNL     1      -0.145  12.977  23.044  0.00  0.00    +0.000 OA
ATOM     20  C   UNL     1      -0.117  14.152  22.243  0.00  0.00    +0.000 C 
ATOM     21  C   UNL     1      -1.251  13.950  21.273  0.00  0.00    +0.000 C 
ATOM     22  O   UNL     1      -2.203  13.132  21.956  0.00  0.00    +0.000 OA
ENDBRANCH  17  18
ENDBRANCH  15  17
ENDBRANCH   5  12
BRANCH   1  23
ATOM     23  S   UNL     1       1.316  10.873  18.258  0.00  0.00    +0.000 S 
BRANCH  23  28
ATOM     24 CL   UNL     1      -4.956  10.873  17.615  0.00  0.00    +0.000 Cl
ATOM     25  C   UNL     1      -3.246  10.843  17.796  0.00  0.00    +0.000 A 
ATOM     26  C   UNL     1      -2.597  11.918  18.394  0.00  0.00    +0.000 A 
ATOM     27  C   UNL     1      -1.206  11.893  18.542  0.00  0.00    +0.000 A 
ATOM     28  C   UNL     1      -0.460  10.790  18.113  0.00  0.00    +0.000 A 
ATOM     29  C   UNL     1      -1.124   9.719  17.499  0.00  0.00    +0.000 A 
ATOM     30  C   UNL     1      -2.516   9.747  17.340  0.00  0.00    +0.000 A 
ENDBRANCH  23  28
ENDBRANCH   1  23
TORSDOF 6
ENDMDL
MODEL 9
REMARK VINA RESULT:      -7.6      0.893      1.513
REMARK  Name = 
REMARK  6 active torsions:
REMARK  status: ('A' for Active; 'I' for Inactive)
REMARK    1  A    between atoms: C_5  and  S_6
REMARK    2  A    between atoms: S_6  and  C_7
REMARK    3  A    between atoms: C_9  and  C_10
REMARK    4  A    between atoms: C_17  and  C_18
REMARK    5  A    between atoms: N_21  and  C_22
REMARK    6  A    between atoms: C_22  and  C_23
REMARK                            x       y       z     vdW  Elec       q    Type
REMARK                         _______ _______ _______ _____ _____    ______ ____
ROOT
ATOM      1  C   UNL     1       1.397   9.612  19.206  0.00  0.00    +0.000 A 
ATOM      2  O   UNL     1       1.968   8.533  18.564  0.00  0.00    +0.000 OA
ATOM      3  C   UNL     1       1.916   7.518  19.479  0.00  0.00    +0.000 A 
ATOM      4  N   UNL     1       1.397   7.858  20.637  0.00  0.00    +0.000 NA
ATOM      5  C   UNL     1       1.028   9.174  20.465  0.00  0.00    +0.000 A 
ENDROOT
BRANCH   3   6
ATOM      6  C   UNL     1       2.436   6.182  19.066  0.00  0.00    +0.000 C 
ATOM      7  C   UNL     1       2.519   5.233  20.273  0.00  0.00    +0.000 C 
ATOM      8  C   UNL     1       3.248   3.948  19.907  0.00  0.00    +0.000 C 
ATOM      9  O   UNL     1       4.534   4.232  19.362  0.00  0.00    +0.000 OA
ATOM     10  C   UNL     1       4.454   4.988  18.155  0.00  0.00    +0.000 C 
ATOM     11  C   UNL     1       3.812   6.341  18.411  0.00  0.00    +0.000 C 
ENDBRANCH   3   6
BRANCH   5  12
ATOM     12  C   UNL     1       0.318   9.821  21.558  0.00  0.00    +0.000 A 
ATOM     13  C   UNL     1       0.038   9.331  22.851  0.00  0.00    +0.000 A 
ATOM     14  N   UNL     1      -0.634  10.216  23.597  0.00  0.00    +0.000 NA
ATOM     15  N   UNL     1      -0.769  11.282  22.780  0.00  0.00    +0.000 N 
ATOM     16  C   UNL     1      -0.219  11.083  21.548  0.00  0.00    +0.000 A 
BRANCH  15  17
ATOM     17  C   UNL     1      -1.502  12.451  23.214  0.00  0.00    +0.000 C 
BRANCH  17  18
ATOM     18  C   UNL     1      -2.982  12.166  23.446  0.00  0.00    +0.000 C 
ATOM     19  O   UNL     1      -3.554  13.122  24.348  0.00  0.00    +0.000 OA
ATOM     20  C   UNL     1      -4.907  13.243  23.925  0.00  0.00    +0.000 C 
ATOM     21  C   UNL     1      -4.833  13.063  22.432  0.00  0.00    +0.000 C 
ATOM     22  O   UNL     1      -3.701  12.221  22.200  0.00  0.00    +0.000 OA
ENDBRANCH  17  18
ENDBRANCH  15  17
ENDBRANCH   5  12
BRANCH   1  23
ATOM     23  S   UNL     1       1.131  11.130  18.395  0.00  0.00    +0.000 S 
BRANCH  23  28
ATOM     24 CL   UNL     1      -5.138  10.713  17.867  0.00  0.00    +0.000 Cl
ATOM     25  C   UNL     1      -3.430  10.856  18.006  0.00  0.00    +0.000 A 
ATOM     26  C   UNL     1      -2.611   9.838  17.528  0.00  0.00    +0.000 A 
ATOM     27  C   UNL     1      -1.222   9.956  17.640  0.00  0.00    +0.000 A 
ATOM     28  C   UNL     1      -0.643  11.095  18.209  0.00  0.00    +0.000 A 
ATOM     29  C   UNL     1      -1.479  12.109  18.699  0.00  0.00    +0.000 A 
ATOM     30  C   UNL     1      -2.872  11.988  18.598  0.00  0.00    +0.000 A 
ENDBRANCH  23  28
ENDBRANCH   1  23
TORSDOF 6
ENDMDL
