MODEL 1
REMARK VINA RESULT:      -7.9      0.000      0.000
REMARK  Name = 
REMARK  6 active torsions:
REMARK  status: ('A' for Active; 'I' for Inactive)
REMARK    1  A    between atoms: C_1  and  C_2
REMARK    2  A    between atoms: C_2  and  C_3
REMARK    3  A    between atoms: C_2  and  N_11
REMARK    4  A    between atoms: C_5  and  C_6
REMARK    5  A    between atoms: C_15  and  C_16
REMARK    6  A    between atoms: C_16  and  N_17
REMARK                            x       y       z     vdW  Elec       q    Type
REMARK                         _______ _______ _______ _____ _____    ______ ____
ROOT
ATOM      1  N   UNL     1       5.038   4.599  17.549  0.00  0.00    +0.000 NA
ATOM      2  C   UNL     1       3.919   5.469  17.169  0.00  0.00    +0.000 C 
ATOM      3  C   UNL     1       3.693   6.371  18.360  0.00  0.00    +0.000 C 
ATOM      4  C   UNL     1       3.929   5.440  19.531  0.00  0.00    +0.000 C 
ATOM      5  C   UNL     1       4.909   4.369  19.020  0.00  0.00    +0.000 C 
ENDROOT
BRANCH   1   7
ATOM      6  C   UNL     1       7.516   4.619  18.073  0.00  0.00    +0.000 C 
ATOM      7  C   UNL     1       6.389   5.085  17.136  0.00  0.00    +0.000 C 
BRANCH   7   8
ATOM      8  C   UNL     1       6.783   4.903  15.695  0.00  0.00    +0.000 A 
ATOM      9  N   UNL     1       6.261   4.080  14.813  0.00  0.00    +0.000 NA
ATOM     10  C   UNL     1       6.864   4.475  13.651  0.00  0.00    +0.000 A 
ATOM     11  N   UNL     1       7.764   5.457  13.787  0.00  0.00    +0.000 NA
ATOM     12  O   UNL     1       7.717   5.743  15.157  0.00  0.00    +0.000 OA
BRANCH  10  13
ATOM     13  C   UNL     1       6.470   3.896  12.303  0.00  0.00    +0.000 C 
ATOM     14  C   UNL     1       5.990   2.461  12.226  0.00  0.00    +0.000 C 
ATOM     15  C   UNL     1       4.998   3.566  12.104  0.00  0.00    +0.000 C 
ENDBRANCH  10  13
ENDBRANCH   7   8
ENDBRANCH   1   7
BRANCH   5  16
ATOM     16  C   UNL     1       4.425   2.941  19.339  0.00  0.00    +0.000 C 
BRANCH  16  17
ATOM     17  N   UNL     1       3.048   2.913  19.799  0.00  0.00    +0.000 N 
ATOM     18  C   UNL     1       1.918   2.935  19.044  0.00  0.00    +0.000 A 
ATOM     19  N   UNL     1       0.865   2.870  19.829  0.00  0.00    +0.000 NA
ATOM     20  C   UNL     1       1.417   2.825  21.076  0.00  0.00    +0.000 A 
ATOM     21  N   UNL     1       2.753   2.862  21.110  0.00  0.00    +0.000 NA
ENDBRANCH  16  17
ENDBRANCH   5  16
TORSDOF 5
ENDMDL
MODEL 2
REMARK VINA RESULT:      -7.3      2.676      4.833
REMARK  Name = 
REMARK  6 active torsions:
REMARK  status: ('A' for Active; 'I' for Inactive)
REMARK    1  A    between atoms: C_1  and  C_2
REMARK    2  A    between atoms: C_2  and  C_3
REMARK    3  A    between atoms: C_2  and  N_11
REMARK    4  A    between atoms: C_5  and  C_6
REMARK    5  A    between atoms: C_15  and  C_16
REMARK    6  A    between atoms: C_16  and  N_17
REMARK                            x       y       z     vdW  Elec       q    Type
REMARK                         _______ _______ _______ _____ _____    ______ ____
ROOT
ATOM      1  N   UNL     1       3.218   4.026  19.573  0.00  0.00    +0.000 NA
ATOM      2  C   UNL     1       2.958   2.992  20.581  0.00  0.00    +0.000 C 
ATOM      3  C   UNL     1       1.464   2.772  20.549  0.00  0.00    +0.000 C 
ATOM      4  C   UNL     1       0.925   4.171  20.340  0.00  0.00    +0.000 C 
ATOM      5  C   UNL     1       2.031   4.933  19.588  0.00  0.00    +0.000 C 
ENDROOT
BRANCH   1   7
ATOM      6  C   UNL     1       2.343   3.383  17.285  0.00  0.00    +0.000 C 
ATOM      7  C   UNL     1       3.562   3.515  18.212  0.00  0.00    +0.000 C 
BRANCH   7   8
ATOM      8  C   UNL     1       4.711   4.171  17.493  0.00  0.00    +0.000 A 
ATOM      9  N   UNL     1       5.340   5.278  17.818  0.00  0.00    +0.000 NA
ATOM     10  C   UNL     1       6.391   5.285  16.943  0.00  0.00    +0.000 A 
ATOM     11  N   UNL     1       6.405   4.271  16.069  0.00  0.00    +0.000 NA
ATOM     12  O   UNL     1       5.277   3.525  16.430  0.00  0.00    +0.000 OA
BRANCH  10  13
ATOM     13  C   UNL     1       7.499   6.321  17.025  0.00  0.00    +0.000 C 
ATOM     14  C   UNL     1       7.181   7.702  17.563  0.00  0.00    +0.000 C 
ATOM     15  C   UNL     1       7.938   6.745  18.418  0.00  0.00    +0.000 C 
ENDBRANCH  10  13
ENDBRANCH   7   8
ENDBRANCH   1   7
BRANCH   5  16
ATOM     16  C   UNL     1       2.351   6.290  20.247  0.00  0.00    +0.000 C 
BRANCH  16  17
ATOM     17  N   UNL     1       2.178   7.405  19.332  0.00  0.00    +0.000 N 
ATOM     18  C   UNL     1       2.629   7.509  18.053  0.00  0.00    +0.000 A 
ATOM     19  N   UNL     1       2.247   8.660  17.547  0.00  0.00    +0.000 NA
ATOM     20  C   UNL     1       1.568   9.237  18.580  0.00  0.00    +0.000 A 
ATOM     21  N   UNL     1       1.509   8.510  19.700  0.00  0.00    +0.000 NA
ENDBRANCH  16  17
ENDBRANCH   5  16
TORSDOF 5
ENDMDL
MODEL 3
REMARK VINA RESULT:      -7.3      1.032      1.332
REMARK  Name = 
REMARK  6 active torsions:
REMARK  status: ('A' for Active; 'I' for Inactive)
REMARK    1  A    between atoms: C_1  and  C_2
REMARK    2  A    between atoms: C_2  and  C_3
REMARK    3  A    between atoms: C_2  and  N_11
REMARK    4  A    between atoms: C_5  and  C_6
REMARK    5  A    between atoms: C_15  and  C_16
REMARK    6  A    between atoms: C_16  and  N_17
REMARK                            x       y       z     vdW  Elec       q    Type
REMARK                         _______ _______ _______ _____ _____    ______ ____
ROOT
ATOM      1  N   UNL     1       5.099   4.962  17.041  0.00  0.00    +0.000 NA
ATOM      2  C   UNL     1       4.502   6.078  17.783  0.00  0.00    +0.000 C 
ATOM      3  C   UNL     1       4.734   5.756  19.241  0.00  0.00    +0.000 C 
ATOM      4  C   UNL     1       4.531   4.256  19.288  0.00  0.00    +0.000 C 
ATOM      5  C   UNL     1       4.900   3.744  17.884  0.00  0.00    +0.000 C 
ENDROOT
BRANCH   1   7
ATOM      6  C   UNL     1       7.537   4.519  17.563  0.00  0.00    +0.000 C 
ATOM      7  C   UNL     1       6.516   5.168  16.615  0.00  0.00    +0.000 C 
BRANCH   7   8
ATOM      8  C   UNL     1       6.859   4.875  15.178  0.00  0.00    +0.000 A 
ATOM      9  N   UNL     1       6.267   4.031  14.363  0.00  0.00    +0.000 NA
ATOM     10  C   UNL     1       6.859   4.319  13.164  0.00  0.00    +0.000 A 
ATOM     11  N   UNL     1       7.816   5.253  13.217  0.00  0.00    +0.000 NA
ATOM     12  O   UNL     1       7.824   5.625  14.567  0.00  0.00    +0.000 OA
BRANCH  10  13
ATOM     13  C   UNL     1       6.396   3.683  11.865  0.00  0.00    +0.000 C 
ATOM     14  C   UNL     1       6.027   2.213  11.852  0.00  0.00    +0.000 C 
ATOM     15  C   UNL     1       4.943   3.235  11.802  0.00  0.00    +0.000 C 
ENDBRANCH  10  13
ENDBRANCH   7   8
ENDBRANCH   1   7
BRANCH   5  16
ATOM     16  C   UNL     1       3.816   2.813  17.304  0.00  0.00    +0.000 C 
BRANCH  16  17
ATOM     17  N   UNL     1       2.623   2.769  18.132  0.00  0.00    +0.000 N 
ATOM     18  C   UNL     1       2.420   2.036  19.259  0.00  0.00    +0.000 A 
ATOM     19  N   UNL     1       1.222   2.289  19.735  0.00  0.00    +0.000 NA
ATOM     20  C   UNL     1       0.720   3.187  18.839  0.00  0.00    +0.000 A 
ATOM     21  N   UNL     1       1.539   3.503  17.830  0.00  0.00    +0.000 NA
ENDBRANCH  16  17
ENDBRANCH   5  16
TORSDOF 5
ENDMDL
MODEL 4
REMARK VINA RESULT:      -7.2      2.123      4.250
REMARK  Name = 
REMARK  6 active torsions:
REMARK  status: ('A' for Active; 'I' for Inactive)
REMARK    1  A    between atoms: C_1  and  C_2
REMARK    2  A    between atoms: C_2  and  C_3
REMARK    3  A    between atoms: C_2  and  N_11
REMARK    4  A    between atoms: C_5  and  C_6
REMARK    5  A    between atoms: C_15  and  C_16
REMARK    6  A    between atoms: C_16  and  N_17
REMARK                            x       y       z     vdW  Elec       q    Type
REMARK                         _______ _______ _______ _____ _____    ______ ____
ROOT
ATOM      1  N   UNL     1       3.149   3.697  19.972  0.00  0.00    +0.000 NA
ATOM      2  C   UNL     1       2.752   2.913  21.147  0.00  0.00    +0.000 C 
ATOM      3  C   UNL     1       1.245   2.821  21.073  0.00  0.00    +0.000 C 
ATOM      4  C   UNL     1       0.853   4.191  20.562  0.00  0.00    +0.000 C 
ATOM      5  C   UNL     1       2.055   4.688  19.739  0.00  0.00    +0.000 C 
ENDROOT
BRANCH   1   7
ATOM      6  C   UNL     1       2.263   2.398  17.986  0.00  0.00    +0.000 C 
ATOM      7  C   UNL     1       3.495   2.894  18.760  0.00  0.00    +0.000 C 
BRANCH   7   8
ATOM      8  C   UNL     1       4.523   3.465  17.819  0.00  0.00    +0.000 A 
ATOM      9  N   UNL     1       4.413   3.657  16.523  0.00  0.00    +0.000 NA
ATOM     10  C   UNL     1       5.548   4.363  16.235  0.00  0.00    +0.000 A 
ATOM     11  N   UNL     1       6.367   4.566  17.274  0.00  0.00    +0.000 NA
ATOM     12  O   UNL     1       5.686   3.960  18.337  0.00  0.00    +0.000 OA
BRANCH  10  13
ATOM     13  C   UNL     1       5.804   4.945  14.855  0.00  0.00    +0.000 C 
ATOM     14  C   UNL     1       7.205   4.892  14.279  0.00  0.00    +0.000 C 
ATOM     15  C   UNL     1       6.168   3.960  13.754  0.00  0.00    +0.000 C 
ENDBRANCH  10  13
ENDBRANCH   7   8
ENDBRANCH   1   7
BRANCH   5  16
ATOM     16  C   UNL     1       2.479   6.116  20.136  0.00  0.00    +0.000 C 
BRANCH  16  17
ATOM     17  N   UNL     1       2.689   6.972  18.981  0.00  0.00    +0.000 N 
ATOM     18  C   UNL     1       2.008   8.099  18.646  0.00  0.00    +0.000 A 
ATOM     19  N   UNL     1       2.513   8.605  17.543  0.00  0.00    +0.000 NA
ATOM     20  C   UNL     1       3.508   7.725  17.232  0.00  0.00    +0.000 A 
ATOM     21  N   UNL     1       3.646   6.699  18.078  0.00  0.00    +0.000 NA
ENDBRANCH  16  17
ENDBRANCH   5  16
TORSDOF 5
ENDMDL
MODEL 5
REMARK VINA RESULT:      -7.1      2.564      4.191
REMARK  Name = 
REMARK  6 active torsions:
REMARK  status: ('A' for Active; 'I' for Inactive)
REMARK    1  A    between atoms: C_1  and  C_2
REMARK    2  A    between atoms: C_2  and  C_3
REMARK    3  A    between atoms: C_2  and  N_11
REMARK    4  A    between atoms: C_5  and  C_6
REMARK    5  A    between atoms: C_15  and  C_16
REMARK    6  A    between atoms: C_16  and  N_17
REMARK                            x       y       z     vdW  Elec       q    Type
REMARK                         _______ _______ _______ _____ _____    ______ ____
ROOT
ATOM      1  N   UNL     1       2.982   3.981  19.660  0.00  0.00    +0.000 NA
ATOM      2  C   UNL     1       1.745   3.205  19.510  0.00  0.00    +0.000 C 
ATOM      3  C   UNL     1       1.256   3.503  18.111  0.00  0.00    +0.000 C 
ATOM      4  C   UNL     1       1.582   4.973  17.950  0.00  0.00    +0.000 C 
ATOM      5  C   UNL     1       2.790   5.233  18.868  0.00  0.00    +0.000 C 
ENDROOT
BRANCH   1   7
ATOM      6  C   UNL     1       4.037   1.727  19.187  0.00  0.00    +0.000 C 
ATOM      7  C   UNL     1       4.238   3.246  19.321  0.00  0.00    +0.000 C 
BRANCH   7   8
ATOM      8  C   UNL     1       5.067   3.777  18.182  0.00  0.00    +0.000 A 
ATOM      9  N   UNL     1       4.777   3.770  16.900  0.00  0.00    +0.000 NA
ATOM     10  C   UNL     1       5.777   4.539  16.371  0.00  0.00    +0.000 A 
ATOM     11  N   UNL     1       6.688   4.968  17.252  0.00  0.00    +0.000 NA
ATOM     12  O   UNL     1       6.219   4.454  18.468  0.00  0.00    +0.000 OA
BRANCH  10  13
ATOM     13  C   UNL     1       5.791   4.941  14.906  0.00  0.00    +0.000 C 
ATOM     14  C   UNL     1       7.106   4.939  14.151  0.00  0.00    +0.000 C 
ATOM     15  C   UNL     1       6.121   3.849  13.899  0.00  0.00    +0.000 C 
ENDBRANCH  10  13
ENDBRANCH   7   8
ENDBRANCH   1   7
BRANCH   5  16
ATOM     16  C   UNL     1       2.574   6.461  19.776  0.00  0.00    +0.000 C 
BRANCH  16  17
ATOM     17  N   UNL     1       2.306   7.670  19.016  0.00  0.00    +0.000 N 
ATOM     18  C   UNL     1       2.836   8.036  17.820  0.00  0.00    +0.000 A 
ATOM     19  N   UNL     1       2.324   9.187  17.447  0.00  0.00    +0.000 NA
ATOM     20  C   UNL     1       1.482   9.494  18.476  0.00  0.00    +0.000 A 
ATOM     21  N   UNL     1       1.446   8.599  19.469  0.00  0.00    +0.000 NA
ENDBRANCH  16  17
ENDBRANCH   5  16
TORSDOF 5
ENDMDL
MODEL 6
REMARK VINA RESULT:      -7.1      2.220      6.931
REMARK  Name = 
REMARK  6 active torsions:
REMARK  status: ('A' for Active; 'I' for Inactive)
REMARK    1  A    between atoms: C_1  and  C_2
REMARK    2  A    between atoms: C_2  and  C_3
REMARK    3  A    between atoms: C_2  and  N_11
REMARK    4  A    between atoms: C_5  and  C_6
REMARK    5  A    between atoms: C_15  and  C_16
REMARK    6  A    between atoms: C_16  and  N_17
REMARK                            x       y       z     vdW  Elec       q    Type
REMARK                         _______ _______ _______ _____ _____    ______ ____
ROOT
ATOM      1  N   UNL     1       5.556   5.393  18.077  0.00  0.00    +0.000 NA
ATOM      2  C   UNL     1       6.569   5.452  19.136  0.00  0.00    +0.000 C 
ATOM      3  C   UNL     1       7.628   6.401  18.623  0.00  0.00    +0.000 C 
ATOM      4  C   UNL     1       7.690   6.063  17.148  0.00  0.00    +0.000 C 
ATOM      5  C   UNL     1       6.292   5.532  16.784  0.00  0.00    +0.000 C 
ENDROOT
BRANCH   1   7
ATOM      6  C   UNL     1       4.004   7.014  16.900  0.00  0.00    +0.000 C 
ATOM      7  C   UNL     1       4.425   6.358  18.226  0.00  0.00    +0.000 C 
BRANCH   7   8
ATOM      8  C   UNL     1       3.218   5.899  19.001  0.00  0.00    +0.000 A 
ATOM      9  N   UNL     1       2.681   4.699  19.023  0.00  0.00    +0.000 NA
ATOM     10  C   UNL     1       1.754   4.813  20.022  0.00  0.00    +0.000 A 
ATOM     11  N   UNL     1       1.661   6.030  20.572  0.00  0.00    +0.000 NA
ATOM     12  O   UNL     1       2.637   6.763  19.886  0.00  0.00    +0.000 OA
BRANCH  10  13
ATOM     13  C   UNL     1       0.959   3.618  20.520  0.00  0.00    +0.000 C 
ATOM     14  C   UNL     1       1.457   2.219  20.217  0.00  0.00    +0.000 C 
ATOM     15  C   UNL     1       1.611   2.762  21.596  0.00  0.00    +0.000 C 
ENDBRANCH  10  13
ENDBRANCH   7   8
ENDBRANCH   1   7
BRANCH   5  16
ATOM     16  C   UNL     1       6.361   4.197  16.015  0.00  0.00    +0.000 C 
BRANCH  16  17
ATOM     17  N   UNL     1       6.721   4.381  14.619  0.00  0.00    +0.000 N 
ATOM     18  C   UNL     1       6.218   3.728  13.538  0.00  0.00    +0.000 A 
ATOM     19  N   UNL     1       6.779   4.194  12.445  0.00  0.00    +0.000 NA
ATOM     20  C   UNL     1       7.642   5.136  12.923  0.00  0.00    +0.000 A 
ATOM     21  N   UNL     1       7.651   5.278  14.252  0.00  0.00    +0.000 NA
ENDBRANCH  16  17
ENDBRANCH   5  16
TORSDOF 5
ENDMDL
MODEL 7
REMARK VINA RESULT:      -7.1      2.482      4.593
REMARK  Name = 
REMARK  6 active torsions:
REMARK  status: ('A' for Active; 'I' for Inactive)
REMARK    1  A    between atoms: C_1  and  C_2
REMARK    2  A    between atoms: C_2  and  C_3
REMARK    3  A    between atoms: C_2  and  N_11
REMARK    4  A    between atoms: C_5  and  C_6
REMARK    5  A    between atoms: C_15  and  C_16
REMARK    6  A    between atoms: C_16  and  N_17
REMARK                            x       y       z     vdW  Elec       q    Type
REMARK                         _______ _______ _______ _____ _____    ______ ____
ROOT
ATOM      1  N   UNL     1       3.159   3.728  20.722  0.00  0.00    +0.000 NA
ATOM      2  C   UNL     1       2.299   2.837  21.509  0.00  0.00    +0.000 C 
ATOM      3  C   UNL     1       1.054   2.645  20.675  0.00  0.00    +0.000 C 
ATOM      4  C   UNL     1       0.845   4.017  20.069  0.00  0.00    +0.000 C 
ATOM      5  C   UNL     1       2.244   4.653  19.987  0.00  0.00    +0.000 C 
ENDROOT
BRANCH   1   7
ATOM      6  C   UNL     1       3.515   1.954  18.949  0.00  0.00    +0.000 C 
ATOM      7  C   UNL     1       4.147   3.038  19.837  0.00  0.00    +0.000 C 
BRANCH   7   8
ATOM      8  C   UNL     1       5.086   3.902  19.039  0.00  0.00    +0.000 A 
ATOM      9  N   UNL     1       5.170   4.010  17.732  0.00  0.00    +0.000 NA
ATOM     10  C   UNL     1       6.038   5.055  17.580  0.00  0.00    +0.000 A 
ATOM     11  N   UNL     1       6.527   5.555  18.722  0.00  0.00    +0.000 NA
ATOM     12  O   UNL     1       5.896   4.780  19.703  0.00  0.00    +0.000 OA
BRANCH  10  13
ATOM     13  C   UNL     1       6.347   5.653  16.218  0.00  0.00    +0.000 C 
ATOM     14  C   UNL     1       5.604   5.141  15.000  0.00  0.00    +0.000 C 
ATOM     15  C   UNL     1       5.245   6.472  15.564  0.00  0.00    +0.000 C 
ENDBRANCH  10  13
ENDBRANCH   7   8
ENDBRANCH   1   7
BRANCH   5  16
ATOM     16  C   UNL     1       2.269   6.077  20.579  0.00  0.00    +0.000 C 
BRANCH  16  17
ATOM     17  N   UNL     1       2.285   7.103  19.551  0.00  0.00    +0.000 N 
ATOM     18  C   UNL     1       1.644   8.302  19.563  0.00  0.00    +0.000 A 
ATOM     19  N   UNL     1       1.928   8.961  18.462  0.00  0.00    +0.000 NA
ATOM     20  C   UNL     1       2.747   8.099  17.793  0.00  0.00    +0.000 A 
ATOM     21  N   UNL     1       2.985   6.940  18.416  0.00  0.00    +0.000 NA
ENDBRANCH  16  17
ENDBRANCH   5  16
TORSDOF 5
ENDMDL
MODEL 8
REMARK VINA RESULT:      -7.1      1.490      2.119
REMARK  Name = 
REMARK  6 active torsions:
REMARK  status: ('A' for Active; 'I' for Inactive)
REMARK    1  A    between atoms: C_1  and  C_2
REMARK    2  A    between atoms: C_2  and  C_3
REMARK    3  A    between atoms: C_2  and  N_11
REMARK    4  A    between atoms: C_5  and  C_6
REMARK    5  A    between atoms: C_15  and  C_16
REMARK    6  A    between atoms: C_16  and  N_17
REMARK                            x       y       z     vdW  Elec       q    Type
REMARK                         _______ _______ _______ _____ _____    ______ ____
ROOT
ATOM      1  N   UNL     1       3.788   6.040  17.741  0.00  0.00    +0.000 NA
ATOM      2  C   UNL     1       3.162   7.183  17.066  0.00  0.00    +0.000 C 
ATOM      3  C   UNL     1       2.907   8.199  18.156  0.00  0.00    +0.000 C 
ATOM      4  C   UNL     1       2.491   7.333  19.327  0.00  0.00    +0.000 C 
ATOM      5  C   UNL     1       3.180   5.975  19.105  0.00  0.00    +0.000 C 
ENDROOT
BRANCH   1   7
ATOM      6  C   UNL     1       5.884   5.550  19.076  0.00  0.00    +0.000 C 
ATOM      7  C   UNL     1       5.282   6.050  17.752  0.00  0.00    +0.000 C 
BRANCH   7   8
ATOM      8  C   UNL     1       5.989   5.430  16.576  0.00  0.00    +0.000 A 
ATOM      9  N   UNL     1       5.595   4.415  15.840  0.00  0.00    +0.000 NA
ATOM     10  C   UNL     1       6.511   4.418  14.825  0.00  0.00    +0.000 A 
ATOM     11  N   UNL     1       7.472   5.344  14.932  0.00  0.00    +0.000 NA
ATOM     12  O   UNL     1       7.129   6.021  16.109  0.00  0.00    +0.000 OA
BRANCH  10  13
ATOM     13  C   UNL     1       6.386   3.492  13.627  0.00  0.00    +0.000 C 
ATOM     14  C   UNL     1       5.299   3.748  12.604  0.00  0.00    +0.000 C 
ATOM     15  C   UNL     1       6.710   4.087  12.265  0.00  0.00    +0.000 C 
ENDBRANCH  10  13
ENDBRANCH   7   8
ENDBRANCH   1   7
BRANCH   5  16
ATOM     16  C   UNL     1       2.196   4.796  19.240  0.00  0.00    +0.000 C 
BRANCH  16  17
ATOM     17  N   UNL     1       2.829   3.514  18.983  0.00  0.00    +0.000 N 
ATOM     18  C   UNL     1       3.641   2.806  19.813  0.00  0.00    +0.000 A 
ATOM     19  N   UNL     1       3.992   1.683  19.228  0.00  0.00    +0.000 NA
ATOM     20  C   UNL     1       3.368   1.761  18.017  0.00  0.00    +0.000 A 
ATOM     21  N   UNL     1       2.653   2.873  17.815  0.00  0.00    +0.000 NA
ENDBRANCH  16  17
ENDBRANCH   5  16
TORSDOF 5
ENDMDL
MODEL 9
REMARK VINA RESULT:      -7.1      1.378      1.802
REMARK  Name = 
REMARK  6 active torsions:
REMARK  status: ('A' for Active; 'I' for Inactive)
REMARK    1  A    between atoms: C_1  and  C_2
REMARK    2  A    between atoms: C_2  and  C_3
REMARK    3  A    between atoms: C_2  and  N_11
REMARK    4  A    between atoms: C_5  and  C_6
REMARK    5  A    between atoms: C_15  and  C_16
REMARK    6  A    between atoms: C_16  and  N_17
REMARK                            x       y       z     vdW  Elec       q    Type
REMARK                         _______ _______ _______ _____ _____    ______ ____
ROOT
ATOM      1  N   UNL     1       3.860   6.022  17.559  0.00  0.00    +0.000 NA
ATOM      2  C   UNL     1       3.280   7.217  16.935  0.00  0.00    +0.000 C 
ATOM      3  C   UNL     1       3.017   8.173  18.075  0.00  0.00    +0.000 C 
ATOM      4  C   UNL     1       2.548   7.252  19.182  0.00  0.00    +0.000 C 
ATOM      5  C   UNL     1       3.213   5.892  18.899  0.00  0.00    +0.000 C 
ENDROOT
BRANCH   1   7
ATOM      6  C   UNL     1       5.905   5.453  18.941  0.00  0.00    +0.000 C 
ATOM      7  C   UNL     1       5.353   5.994  17.611  0.00  0.00    +0.000 C 
BRANCH   7   8
ATOM      8  C   UNL     1       6.078   5.381  16.443  0.00  0.00    +0.000 A 
ATOM      9  N   UNL     1       5.690   4.379  15.687  0.00  0.00    +0.000 NA
ATOM     10  C   UNL     1       6.626   4.384  14.690  0.00  0.00    +0.000 A 
ATOM     11  N   UNL     1       7.592   5.301  14.827  0.00  0.00    +0.000 NA
ATOM     12  O   UNL     1       7.232   5.968  16.004  0.00  0.00    +0.000 OA
BRANCH  10  13
ATOM     13  C   UNL     1       6.516   3.473  13.480  0.00  0.00    +0.000 C 
ATOM     14  C   UNL     1       5.354   3.649  12.524  0.00  0.00    +0.000 C 
ATOM     15  C   UNL     1       6.707   4.120  12.116  0.00  0.00    +0.000 C 
ENDBRANCH  10  13
ENDBRANCH   7   8
ENDBRANCH   1   7
BRANCH   5  16
ATOM     16  C   UNL     1       2.198   4.732  18.939  0.00  0.00    +0.000 C 
BRANCH  16  17
ATOM     17  N   UNL     1       2.378   3.879  20.101  0.00  0.00    +0.000 N 
ATOM     18  C   UNL     1       2.070   4.160  21.394  0.00  0.00    +0.000 A 
ATOM     19  N   UNL     1       2.358   3.122  22.148  0.00  0.00    +0.000 NA
ATOM     20  C   UNL     1       2.861   2.224  21.252  0.00  0.00    +0.000 A 
ATOM     21  N   UNL     1       2.905   2.648  19.985  0.00  0.00    +0.000 NA
ENDBRANCH  16  17
ENDBRANCH   5  16
TORSDOF 5
ENDMDL
