MODEL 1
REMARK VINA RESULT:      -8.9      0.000      0.000
REMARK  Name = 
REMARK  10 active torsions:
REMARK  status: ('A' for Active; 'I' for Inactive)
REMARK    1  A    between atoms: C_1  and  C_2
REMARK    2  A    between atoms: C_6  and  C_7
REMARK    3  A    between atoms: N_9  and  C_10
REMARK    4  A    between atoms: C_10  and  C_11
REMARK    5  A    between atoms: C_14  and  S_15
REMARK    6  A    between atoms: S_15  and  C_16
REMARK    7  A    between atoms: C_16  and  C_17
REMARK    8  A    between atoms: C_16  and  C_18
REMARK    9  A    between atoms: C_24  and  C_25
REMARK   10  A    between atoms: N_27  and  C_28
REMARK                            x       y       z     vdW  Elec       q    Type
REMARK                         _______ _______ _______ _____ _____    ______ ____
ROOT
ATOM      1  C   UNL     1       2.098   8.697  18.563  0.00  0.00    +0.000 A 
ATOM      2  N   UNL     1       2.573   8.022  17.534  0.00  0.00    +0.000 NA
ATOM      3  N   UNL     1       2.756   6.715  17.923  0.00  0.00    +0.000 NA
ATOM      4  C   UNL     1       2.415   6.617  19.187  0.00  0.00    +0.000 A 
ATOM      5  N   UNL     1       1.996   7.841  19.641  0.00  0.00    +0.000 N 
ATOM      6  C   UNL     1       1.520   8.198  20.953  0.00  0.00    +0.000 C 
ENDROOT
BRANCH   1   7
ATOM      7  C   UNL     1       1.741  10.145  18.569  0.00  0.00    +0.000 C 
BRANCH   7  10
ATOM      8  C   UNL     1      -0.715  10.432  18.628  0.00  0.00    +0.000 C 
ATOM      9  O   UNL     1      -0.775  10.338  19.851  0.00  0.00    +0.000 OA
ATOM     10  N   UNL     1       0.459  10.333  17.923  0.00  0.00    +0.000 N 
ATOM     11  H   UNL     1       0.428  10.205  16.920  0.00  0.00    +0.000 HD
BRANCH   8  17
ATOM     12  C   UNL     1      -3.363   9.895  14.362  0.00  0.00    +0.000 C 
ATOM     13  C   UNL     1      -3.248  10.383  15.778  0.00  0.00    +0.000 A 
ATOM     14  C   UNL     1      -4.302  11.087  16.374  0.00  0.00    +0.000 A 
ATOM     15  C   UNL     1      -4.183  11.570  17.677  0.00  0.00    +0.000 A 
ATOM     16  C   UNL     1      -3.009  11.354  18.400  0.00  0.00    +0.000 A 
ATOM     17  C   UNL     1      -1.955  10.633  17.827  0.00  0.00    +0.000 A 
ATOM     18  C   UNL     1      -2.072  10.156  16.512  0.00  0.00    +0.000 A 
ENDBRANCH   8  17
ENDBRANCH   7  10
ENDBRANCH   1   7
BRANCH   4  19
ATOM     19  S   UNL     1       2.462   5.182  20.159  0.00  0.00    +0.000 S 
BRANCH  19  20
ATOM     20  C   UNL     1       2.853   3.857  18.947  0.00  0.00    +0.000 C 
ATOM     21  C   UNL     1       1.837   3.816  17.803  0.00  0.00    +0.000 C 
BRANCH  20  22
ATOM     22  C   UNL     1       4.254   4.138  18.358  0.00  0.00    +0.000 C 
ATOM     23  O   UNL     1       5.193   4.467  19.081  0.00  0.00    +0.000 OA
ATOM     24  N   UNL     1       4.331   4.035  16.979  0.00  0.00    +0.000 N 
ATOM     25  C   UNL     1       5.519   4.271  16.330  0.00  0.00    +0.000 A 
ATOM     26  N   UNL     1       6.728   4.415  16.815  0.00  0.00    +0.000 NA
ATOM     27  N   UNL     1       7.651   4.724  15.836  0.00  0.00    +0.000 NA
ATOM     28  C   UNL     1       7.093   4.821  14.649  0.00  0.00    +0.000 A 
ATOM     29  C   UNL     1       7.806   5.257  13.421  0.00  0.00    +0.000 C 
ATOM     30  S   UNL     1       5.414   4.435  14.631  0.00  0.00    +0.000 S 
ATOM     31  H   UNL     1       3.509   3.883  16.418  0.00  0.00    +0.000 HD
ENDBRANCH  20  22
ENDBRANCH  19  20
ENDBRANCH   4  19
TORSDOF 6
ENDMDL
MODEL 2
REMARK VINA RESULT:      -8.7      0.341      1.270
REMARK  Name = 
REMARK  10 active torsions:
REMARK  status: ('A' for Active; 'I' for Inactive)
REMARK    1  A    between atoms: C_1  and  C_2
REMARK    2  A    between atoms: C_6  and  C_7
REMARK    3  A    between atoms: N_9  and  C_10
REMARK    4  A    between atoms: C_10  and  C_11
REMARK    5  A    between atoms: C_14  and  S_15
REMARK    6  A    between atoms: S_15  and  C_16
REMARK    7  A    between atoms: C_16  and  C_17
REMARK    8  A    between atoms: C_16  and  C_18
REMARK    9  A    between atoms: C_24  and  C_25
REMARK   10  A    between atoms: N_27  and  C_28
REMARK                            x       y       z     vdW  Elec       q    Type
REMARK                         _______ _______ _______ _____ _____    ______ ____
ROOT
ATOM      1  C   UNL     1       2.080   8.500  18.619  0.00  0.00    +0.000 A 
ATOM      2  N   UNL     1       2.586   7.823  17.605  0.00  0.00    +0.000 NA
ATOM      3  N   UNL     1       2.789   6.525  18.011  0.00  0.00    +0.000 NA
ATOM      4  C   UNL     1       2.430   6.434  19.270  0.00  0.00    +0.000 A 
ATOM      5  N   UNL     1       1.979   7.654  19.704  0.00  0.00    +0.000 N 
ATOM      6  C   UNL     1       1.475   8.015  21.005  0.00  0.00    +0.000 C 
ENDROOT
BRANCH   1   7
ATOM      7  C   UNL     1       1.694   9.940  18.602  0.00  0.00    +0.000 C 
BRANCH   7  10
ATOM      8  C   UNL     1      -0.723  10.467  18.614  0.00  0.00    +0.000 C 
ATOM      9  O   UNL     1      -0.753  10.668  19.825  0.00  0.00    +0.000 OA
ATOM     10  N   UNL     1       0.415  10.093  17.941  0.00  0.00    +0.000 N 
ATOM     11  H   UNL     1       0.342   9.738  16.998  0.00  0.00    +0.000 HD
BRANCH   8  17
ATOM     12  C   UNL     1      -5.406  12.224  17.922  0.00  0.00    +0.000 C 
ATOM     13  C   UNL     1      -4.223  11.431  17.447  0.00  0.00    +0.000 A 
ATOM     14  C   UNL     1      -4.272  10.744  16.227  0.00  0.00    +0.000 A 
ATOM     15  C   UNL     1      -3.187   9.979  15.800  0.00  0.00    +0.000 A 
ATOM     16  C   UNL     1      -2.038   9.894  16.588  0.00  0.00    +0.000 A 
ATOM     17  C   UNL     1      -1.963  10.592  17.798  0.00  0.00    +0.000 A 
ATOM     18  C   UNL     1      -3.060  11.353  18.231  0.00  0.00    +0.000 A 
ENDBRANCH   8  17
ENDBRANCH   7  10
ENDBRANCH   1   7
BRANCH   4  19
ATOM     19  S   UNL     1       2.491   5.010  20.259  0.00  0.00    +0.000 S 
BRANCH  19  20
ATOM     20  C   UNL     1       2.947   3.684  19.072  0.00  0.00    +0.000 C 
ATOM     21  C   UNL     1       1.928   3.565  17.935  0.00  0.00    +0.000 C 
BRANCH  20  22
ATOM     22  C   UNL     1       4.328   4.028  18.468  0.00  0.00    +0.000 C 
ATOM     23  O   UNL     1       5.258   4.401  19.180  0.00  0.00    +0.000 OA
ATOM     24  N   UNL     1       4.396   3.926  17.089  0.00  0.00    +0.000 N 
ATOM     25  C   UNL     1       5.565   4.215  16.427  0.00  0.00    +0.000 A 
ATOM     26  N   UNL     1       6.770   4.415  16.900  0.00  0.00    +0.000 NA
ATOM     27  N   UNL     1       7.668   4.764  15.911  0.00  0.00    +0.000 NA
ATOM     28  C   UNL     1       7.095   4.833  14.729  0.00  0.00    +0.000 A 
ATOM     29  C   UNL     1       7.774   5.299  13.494  0.00  0.00    +0.000 C 
ATOM     30  S   UNL     1       5.435   4.371  14.729  0.00  0.00    +0.000 S 
ATOM     31  H   UNL     1       3.575   3.736  16.536  0.00  0.00    +0.000 HD
ENDBRANCH  20  22
ENDBRANCH  19  20
ENDBRANCH   4  19
TORSDOF 6
ENDMDL
MODEL 3
REMARK VINA RESULT:      -8.4      1.374      1.880
REMARK  Name = 
REMARK  10 active torsions:
REMARK  status: ('A' for Active; 'I' for Inactive)
REMARK    1  A    between atoms: C_1  and  C_2
REMARK    2  A    between atoms: C_6  and  C_7
REMARK    3  A    between atoms: N_9  and  C_10
REMARK    4  A    between atoms: C_10  and  C_11
REMARK    5  A    between atoms: C_14  and  S_15
REMARK    6  A    between atoms: S_15  and  C_16
REMARK    7  A    between atoms: C_16  and  C_17
REMARK    8  A    between atoms: C_16  and  C_18
REMARK    9  A    between atoms: C_24  and  C_25
REMARK   10  A    between atoms: N_27  and  C_28
REMARK                            x       y       z     vdW  Elec       q    Type
REMARK                         _______ _______ _______ _____ _____    ______ ____
ROOT
ATOM      1  C   UNL     1       1.685   7.401  20.364  0.00  0.00    +0.000 A 
ATOM      2  N   UNL     1       1.210   6.538  21.242  0.00  0.00    +0.000 NA
ATOM      3  N   UNL     1       1.496   5.268  20.797  0.00  0.00    +0.000 NA
ATOM      4  C   UNL     1       2.116   5.373  19.645  0.00  0.00    +0.000 A 
ATOM      5  N   UNL     1       2.257   6.699  19.323  0.00  0.00    +0.000 N 
ATOM      6  C   UNL     1       2.885   7.280  18.164  0.00  0.00    +0.000 C 
ENDROOT
BRANCH   1   7
ATOM      7  C   UNL     1       1.606   8.886  20.469  0.00  0.00    +0.000 C 
BRANCH   7  10
ATOM      8  C   UNL     1       0.301  10.080  18.740  0.00  0.00    +0.000 C 
ATOM      9  O   UNL     1       1.299  10.426  18.114  0.00  0.00    +0.000 OA
ATOM     10  N   UNL     1       0.358   9.349  19.902  0.00  0.00    +0.000 N 
ATOM     11  H   UNL     1      -0.466   9.275  20.484  0.00  0.00    +0.000 HD
BRANCH   8  17
ATOM     12  C   UNL     1      -3.407   9.983  15.314  0.00  0.00    +0.000 C 
ATOM     13  C   UNL     1      -2.857  10.443  16.634  0.00  0.00    +0.000 A 
ATOM     14  C   UNL     1      -3.599  11.307  17.450  0.00  0.00    +0.000 A 
ATOM     15  C   UNL     1      -3.075  11.762  18.660  0.00  0.00    +0.000 A 
ATOM     16  C   UNL     1      -1.802  11.359  19.067  0.00  0.00    +0.000 A 
ATOM     17  C   UNL     1      -1.057  10.479  18.274  0.00  0.00    +0.000 A 
ATOM     18  C   UNL     1      -1.581  10.030  17.053  0.00  0.00    +0.000 A 
ENDBRANCH   8  17
ENDBRANCH   7  10
ENDBRANCH   1   7
BRANCH   4  19
ATOM     19  S   UNL     1       2.692   4.066  18.662  0.00  0.00    +0.000 S 
BRANCH  19  20
ATOM     20  C   UNL     1       4.322   3.657  19.404  0.00  0.00    +0.000 C 
ATOM     21  C   UNL     1       4.495   2.148  19.597  0.00  0.00    +0.000 C 
BRANCH  20  22
ATOM     22  C   UNL     1       5.429   4.167  18.455  0.00  0.00    +0.000 C 
ATOM     23  O   UNL     1       6.359   4.855  18.874  0.00  0.00    +0.000 OA
ATOM     24  N   UNL     1       5.250   3.828  17.125  0.00  0.00    +0.000 N 
ATOM     25  C   UNL     1       6.159   4.231  16.176  0.00  0.00    +0.000 A 
ATOM     26  N   UNL     1       7.346   4.765  16.323  0.00  0.00    +0.000 NA
ATOM     27  N   UNL     1       7.919   5.107  15.114  0.00  0.00    +0.000 NA
ATOM     28  C   UNL     1       7.127   4.832  14.100  0.00  0.00    +0.000 A 
ATOM     29  C   UNL     1       7.416   5.194  12.690  0.00  0.00    +0.000 C 
ATOM     30  S   UNL     1       5.666   4.037  14.549  0.00  0.00    +0.000 S 
ATOM     31  H   UNL     1       4.411   3.369  16.809  0.00  0.00    +0.000 HD
ENDBRANCH  20  22
ENDBRANCH  19  20
ENDBRANCH   4  19
TORSDOF 6
ENDMDL
MODEL 4
REMARK VINA RESULT:      -8.4      1.282      2.081
REMARK  Name = 
REMARK  10 active torsions:
REMARK  status: ('A' for Active; 'I' for Inactive)
REMARK    1  A    between atoms: C_1  and  C_2
REMARK    2  A    between atoms: C_6  and  C_7
REMARK    3  A    between atoms: N_9  and  C_10
REMARK    4  A    between atoms: C_10  and  C_11
REMARK    5  A    between atoms: C_14  and  S_15
REMARK    6  A    between atoms: S_15  and  C_16
REMARK    7  A    between atoms: C_16  and  C_17
REMARK    8  A    between atoms: C_16  and  C_18
REMARK    9  A    between atoms: C_24  and  C_25
REMARK   10  A    between atoms: N_27  and  C_28
REMARK                            x       y       z     vdW  Elec       q    Type
REMARK                         _______ _______ _______ _____ _____    ______ ____
ROOT
ATOM      1  C   UNL     1       1.486   8.478  19.846  0.00  0.00    +0.000 A 
ATOM      2  N   UNL     1       1.421   7.724  20.927  0.00  0.00    +0.000 NA
ATOM      3  N   UNL     1       1.901   6.474  20.611  0.00  0.00    +0.000 NA
ATOM      4  C   UNL     1       2.226   6.475  19.339  0.00  0.00    +0.000 A 
ATOM      5  N   UNL     1       1.980   7.715  18.808  0.00  0.00    +0.000 N 
ATOM      6  C   UNL     1       2.198   8.173  17.459  0.00  0.00    +0.000 C 
ENDROOT
BRANCH   1   7
ATOM      7  C   UNL     1       1.082   9.910  19.754  0.00  0.00    +0.000 C 
BRANCH   7  10
ATOM      8  C   UNL     1      -1.141  10.772  19.098  0.00  0.00    +0.000 C 
ATOM      9  O   UNL     1      -1.331  11.328  20.177  0.00  0.00    +0.000 OA
ATOM     10  N   UNL     1      -0.009  10.048  18.813  0.00  0.00    +0.000 N 
ATOM     11  H   UNL     1       0.003   9.442  18.004  0.00  0.00    +0.000 HD
BRANCH   8  17
ATOM     12  C   UNL     1      -5.642  12.278  17.373  0.00  0.00    +0.000 C 
ATOM     13  C   UNL     1      -4.343  11.550  17.178  0.00  0.00    +0.000 A 
ATOM     14  C   UNL     1      -4.087  10.862  15.985  0.00  0.00    +0.000 A 
ATOM     15  C   UNL     1      -2.896  10.157  15.816  0.00  0.00    +0.000 A 
ATOM     16  C   UNL     1      -1.946  10.132  16.838  0.00  0.00    +0.000 A 
ATOM     17  C   UNL     1      -2.177  10.832  18.028  0.00  0.00    +0.000 A 
ATOM     18  C   UNL     1      -3.380  11.533  18.201  0.00  0.00    +0.000 A 
ENDBRANCH   8  17
ENDBRANCH   7  10
ENDBRANCH   1   7
BRANCH   4  19
ATOM     19  S   UNL     1       2.878   5.142  18.441  0.00  0.00    +0.000 S 
BRANCH  19  20
ATOM     20  C   UNL     1       4.578   4.963  19.116  0.00  0.00    +0.000 C 
ATOM     21  C   UNL     1       4.853   3.532  19.587  0.00  0.00    +0.000 C 
BRANCH  20  22
ATOM     22  C   UNL     1       5.583   5.319  17.998  0.00  0.00    +0.000 C 
ATOM     23  O   UNL     1       6.366   6.260  18.123  0.00  0.00    +0.000 OA
ATOM     24  N   UNL     1       5.484   4.535  16.861  0.00  0.00    +0.000 N 
ATOM     25  C   UNL     1       6.315   4.757  15.789  0.00  0.00    +0.000 A 
ATOM     26  N   UNL     1       7.382   5.511  15.694  0.00  0.00    +0.000 NA
ATOM     27  N   UNL     1       7.896   5.532  14.413  0.00  0.00    +0.000 NA
ATOM     28  C   UNL     1       7.180   4.803  13.585  0.00  0.00    +0.000 A 
ATOM     29  C   UNL     1       7.413   4.725  12.121  0.00  0.00    +0.000 C 
ATOM     30  S   UNL     1       5.884   3.954  14.341  0.00  0.00    +0.000 S 
ATOM     31  H   UNL     1       4.748   3.856  16.755  0.00  0.00    +0.000 HD
ENDBRANCH  20  22
ENDBRANCH  19  20
ENDBRANCH   4  19
TORSDOF 6
ENDMDL
MODEL 5
REMARK VINA RESULT:      -8.3      2.143      2.681
REMARK  Name = 
REMARK  10 active torsions:
REMARK  status: ('A' for Active; 'I' for Inactive)
REMARK    1  A    between atoms: C_1  and  C_2
REMARK    2  A    between atoms: C_6  and  C_7
REMARK    3  A    between atoms: N_9  and  C_10
REMARK    4  A    between atoms: C_10  and  C_11
REMARK    5  A    between atoms: C_14  and  S_15
REMARK    6  A    between atoms: S_15  and  C_16
REMARK    7  A    between atoms: C_16  and  C_17
REMARK    8  A    between atoms: C_16  and  C_18
REMARK    9  A    between atoms: C_24  and  C_25
REMARK   10  A    between atoms: N_27  and  C_28
REMARK                            x       y       z     vdW  Elec       q    Type
REMARK                         _______ _______ _______ _____ _____    ______ ____
ROOT
ATOM      1  C   UNL     1       1.788   6.776  20.255  0.00  0.00    +0.000 A 
ATOM      2  N   UNL     1       1.390   5.866  21.124  0.00  0.00    +0.000 NA
ATOM      3  N   UNL     1       1.458   4.633  20.519  0.00  0.00    +0.000 NA
ATOM      4  C   UNL     1       1.872   4.810  19.286  0.00  0.00    +0.000 A 
ATOM      5  N   UNL     1       2.091   6.146  19.066  0.00  0.00    +0.000 N 
ATOM      6  C   UNL     1       2.559   6.794  17.868  0.00  0.00    +0.000 C 
ENDROOT
BRANCH   1   7
ATOM      7  C   UNL     1       1.884   8.243  20.508  0.00  0.00    +0.000 C 
BRANCH   7  10
ATOM      8  C   UNL     1       0.666   9.799  19.022  0.00  0.00    +0.000 C 
ATOM      9  O   UNL     1       1.681  10.149  18.426  0.00  0.00    +0.000 OA
ATOM     10  N   UNL     1       0.674   8.895  20.055  0.00  0.00    +0.000 N 
ATOM     11  H   UNL     1      -0.144   8.804  20.644  0.00  0.00    +0.000 HD
BRANCH   8  17
ATOM     12  C   UNL     1      -3.300  10.196  15.921  0.00  0.00    +0.000 C 
ATOM     13  C   UNL     1      -2.578  10.587  17.179  0.00  0.00    +0.000 A 
ATOM     14  C   UNL     1      -3.118  11.555  18.035  0.00  0.00    +0.000 A 
ATOM     15  C   UNL     1      -2.433  11.944  19.186  0.00  0.00    +0.000 A 
ATOM     16  C   UNL     1      -1.200  11.367  19.495  0.00  0.00    +0.000 A 
ATOM     17  C   UNL     1      -0.657  10.382  18.661  0.00  0.00    +0.000 A 
ATOM     18  C   UNL     1      -1.343  10.000  17.499  0.00  0.00    +0.000 A 
ENDBRANCH   8  17
ENDBRANCH   7  10
ENDBRANCH   1   7
BRANCH   4  19
ATOM     19  S   UNL     1       2.126   3.573  18.096  0.00  0.00    +0.000 S 
BRANCH  19  20
ATOM     20  C   UNL     1       3.399   2.494  18.865  0.00  0.00    +0.000 C 
ATOM     21  C   UNL     1       3.788   1.333  17.946  0.00  0.00    +0.000 C 
BRANCH  20  22
ATOM     22  C   UNL     1       4.655   3.350  19.144  0.00  0.00    +0.000 C 
ATOM     23  O   UNL     1       5.290   3.225  20.190  0.00  0.00    +0.000 OA
ATOM     24  N   UNL     1       4.955   4.274  18.158  0.00  0.00    +0.000 N 
ATOM     25  C   UNL     1       6.041   5.104  18.290  0.00  0.00    +0.000 A 
ATOM     26  N   UNL     1       7.026   5.069  19.154  0.00  0.00    +0.000 NA
ATOM     27  N   UNL     1       7.888   6.138  19.008  0.00  0.00    +0.000 NA
ATOM     28  C   UNL     1       7.505   6.950  18.047  0.00  0.00    +0.000 A 
ATOM     29  C   UNL     1       8.161   8.245  17.734  0.00  0.00    +0.000 C 
ATOM     30  S   UNL     1       6.117   6.406  17.182  0.00  0.00    +0.000 S 
ATOM     31  H   UNL     1       4.338   4.426  17.376  0.00  0.00    +0.000 HD
ENDBRANCH  20  22
ENDBRANCH  19  20
ENDBRANCH   4  19
TORSDOF 6
ENDMDL
MODEL 6
REMARK VINA RESULT:      -8.1      3.472      9.679
REMARK  Name = 
REMARK  10 active torsions:
REMARK  status: ('A' for Active; 'I' for Inactive)
REMARK    1  A    between atoms: C_1  and  C_2
REMARK    2  A    between atoms: C_6  and  C_7
REMARK    3  A    between atoms: N_9  and  C_10
REMARK    4  A    between atoms: C_10  and  C_11
REMARK    5  A    between atoms: C_14  and  S_15
REMARK    6  A    between atoms: S_15  and  C_16
REMARK    7  A    between atoms: C_16  and  C_17
REMARK    8  A    between atoms: C_16  and  C_18
REMARK    9  A    between atoms: C_24  and  C_25
REMARK   10  A    between atoms: N_27  and  C_28
REMARK                            x       y       z     vdW  Elec       q    Type
REMARK                         _______ _______ _______ _____ _____    ______ ____
ROOT
ATOM      1  C   UNL     1       5.753   5.401  16.969  0.00  0.00    +0.000 A 
ATOM      2  N   UNL     1       5.756   6.704  16.764  0.00  0.00    +0.000 NA
ATOM      3  N   UNL     1       4.648   7.241  17.377  0.00  0.00    +0.000 NA
ATOM      4  C   UNL     1       3.973   6.257  17.924  0.00  0.00    +0.000 A 
ATOM      5  N   UNL     1       4.624   5.073  17.693  0.00  0.00    +0.000 N 
ATOM      6  C   UNL     1       4.255   3.747  18.117  0.00  0.00    +0.000 C 
ENDROOT
BRANCH   1   7
ATOM      7  C   UNL     1       6.786   4.438  16.491  0.00  0.00    +0.000 C 
BRANCH   7  10
ATOM      8  C   UNL     1       6.693   4.308  14.023  0.00  0.00    +0.000 C 
ATOM      9  O   UNL     1       7.378   5.315  13.866  0.00  0.00    +0.000 OA
ATOM     10  N   UNL     1       6.343   3.821  15.258  0.00  0.00    +0.000 N 
ATOM     11  H   UNL     1       5.613   3.125  15.331  0.00  0.00    +0.000 HD
BRANCH   8  17
ATOM     12  C   UNL     1       2.988   3.207  10.773  0.00  0.00    +0.000 C 
ATOM     13  C   UNL     1       4.394   3.019  11.267  0.00  0.00    +0.000 A 
ATOM     14  C   UNL     1       5.246   2.093  10.650  0.00  0.00    +0.000 A 
ATOM     15  C   UNL     1       6.540   1.893  11.128  0.00  0.00    +0.000 A 
ATOM     16  C   UNL     1       6.999   2.618  12.230  0.00  0.00    +0.000 A 
ATOM     17  C   UNL     1       6.169   3.562  12.844  0.00  0.00    +0.000 A 
ATOM     18  C   UNL     1       4.863   3.755  12.367  0.00  0.00    +0.000 A 
ENDBRANCH   8  17
ENDBRANCH   7  10
ENDBRANCH   1   7
BRANCH   4  19
ATOM     19  S   UNL     1       2.492   6.396  18.817  0.00  0.00    +0.000 S 
BRANCH  19  20
ATOM     20  C   UNL     1       2.217   8.210  18.911  0.00  0.00    +0.000 C 
ATOM     21  C   UNL     1       1.400   8.722  17.721  0.00  0.00    +0.000 C 
BRANCH  20  22
ATOM     22  C   UNL     1       1.443   8.516  20.213  0.00  0.00    +0.000 C 
ATOM     23  O   UNL     1       1.319   7.666  21.093  0.00  0.00    +0.000 OA
ATOM     24  N   UNL     1       0.881   9.780  20.267  0.00  0.00    +0.000 N 
ATOM     25  C   UNL     1       0.158  10.173  21.367  0.00  0.00    +0.000 A 
ATOM     26  N   UNL     1       0.035   9.602  22.540  0.00  0.00    +0.000 NA
ATOM     27  N   UNL     1      -0.855  10.270  23.356  0.00  0.00    +0.000 NA
ATOM     28  C   UNL     1      -1.385  11.313  22.755  0.00  0.00    +0.000 A 
ATOM     29  C   UNL     1      -2.462  12.156  23.333  0.00  0.00    +0.000 C 
ATOM     30  S   UNL     1      -0.750  11.611  21.180  0.00  0.00    +0.000 S 
ATOM     31  H   UNL     1       0.904  10.399  19.472  0.00  0.00    +0.000 HD
ENDBRANCH  20  22
ENDBRANCH  19  20
ENDBRANCH   4  19
TORSDOF 6
ENDMDL
MODEL 7
REMARK VINA RESULT:      -8.1      3.082      3.946
REMARK  Name = 
REMARK  10 active torsions:
REMARK  status: ('A' for Active; 'I' for Inactive)
REMARK    1  A    between atoms: C_1  and  C_2
REMARK    2  A    between atoms: C_6  and  C_7
REMARK    3  A    between atoms: N_9  and  C_10
REMARK    4  A    between atoms: C_10  and  C_11
REMARK    5  A    between atoms: C_14  and  S_15
REMARK    6  A    between atoms: S_15  and  C_16
REMARK    7  A    between atoms: C_16  and  C_17
REMARK    8  A    between atoms: C_16  and  C_18
REMARK    9  A    between atoms: C_24  and  C_25
REMARK   10  A    between atoms: N_27  and  C_28
REMARK                            x       y       z     vdW  Elec       q    Type
REMARK                         _______ _______ _______ _____ _____    ______ ____
ROOT
ATOM      1  C   UNL     1       2.042   6.876  20.125  0.00  0.00    +0.000 A 
ATOM      2  N   UNL     1       2.476   7.483  19.037  0.00  0.00    +0.000 NA
ATOM      3  N   UNL     1       2.586   6.548  18.035  0.00  0.00    +0.000 NA
ATOM      4  C   UNL     1       2.244   5.382  18.531  0.00  0.00    +0.000 A 
ATOM      5  N   UNL     1       1.896   5.532  19.849  0.00  0.00    +0.000 N 
ATOM      6  C   UNL     1       1.445   4.528  20.779  0.00  0.00    +0.000 C 
ENDROOT
BRANCH   1   7
ATOM      7  C   UNL     1       1.768   7.526  21.439  0.00  0.00    +0.000 C 
BRANCH   7  10
ATOM      8  C   UNL     1       0.575   9.544  22.227  0.00  0.00    +0.000 C 
ATOM      9  O   UNL     1       1.133   9.542  23.321  0.00  0.00    +0.000 OA
ATOM     10  N   UNL     1       0.808   8.595  21.262  0.00  0.00    +0.000 N 
ATOM     11  H   UNL     1       0.177   8.518  20.476  0.00  0.00    +0.000 HD
BRANCH   8  17
ATOM     12  C   UNL     1      -3.065  12.766  23.593  0.00  0.00    +0.000 C 
ATOM     13  C   UNL     1      -2.193  12.149  22.538  0.00  0.00    +0.000 A 
ATOM     14  C   UNL     1      -2.339  12.513  21.193  0.00  0.00    +0.000 A 
ATOM     15  C   UNL     1      -1.554  11.916  20.208  0.00  0.00    +0.000 A 
ATOM     16  C   UNL     1      -0.610  10.948  20.557  0.00  0.00    +0.000 A 
ATOM     17  C   UNL     1      -0.436  10.588  21.898  0.00  0.00    +0.000 A 
ATOM     18  C   UNL     1      -1.234  11.183  22.887  0.00  0.00    +0.000 A 
ENDBRANCH   8  17
ENDBRANCH   7  10
ENDBRANCH   1   7
BRANCH   4  19
ATOM     19  S   UNL     1       2.213   3.870  17.682  0.00  0.00    +0.000 S 
BRANCH  19  20
ATOM     20  C   UNL     1       3.342   2.803  18.665  0.00  0.00    +0.000 C 
ATOM     21  C   UNL     1       3.716   1.525  17.909  0.00  0.00    +0.000 C 
BRANCH  20  22
ATOM     22  C   UNL     1       4.631   3.603  18.958  0.00  0.00    +0.000 C 
ATOM     23  O   UNL     1       5.291   3.394  19.975  0.00  0.00    +0.000 OA
ATOM     24  N   UNL     1       4.932   4.577  18.022  0.00  0.00    +0.000 N 
ATOM     25  C   UNL     1       6.047   5.365  18.172  0.00  0.00    +0.000 A 
ATOM     26  N   UNL     1       7.054   5.247  19.002  0.00  0.00    +0.000 NA
ATOM     27  N   UNL     1       7.945   6.297  18.897  0.00  0.00    +0.000 NA
ATOM     28  C   UNL     1       7.561   7.178  18.000  0.00  0.00    +0.000 A 
ATOM     29  C   UNL     1       8.247   8.470  17.746  0.00  0.00    +0.000 C 
ATOM     30  S   UNL     1       6.133   6.730  17.145  0.00  0.00    +0.000 S 
ATOM     31  H   UNL     1       4.298   4.795  17.270  0.00  0.00    +0.000 HD
ENDBRANCH  20  22
ENDBRANCH  19  20
ENDBRANCH   4  19
TORSDOF 6
ENDMDL
MODEL 8
REMARK VINA RESULT:      -8.1      1.095      1.251
REMARK  Name = 
REMARK  10 active torsions:
REMARK  status: ('A' for Active; 'I' for Inactive)
REMARK    1  A    between atoms: C_1  and  C_2
REMARK    2  A    between atoms: C_6  and  C_7
REMARK    3  A    between atoms: N_9  and  C_10
REMARK    4  A    between atoms: C_10  and  C_11
REMARK    5  A    between atoms: C_14  and  S_15
REMARK    6  A    between atoms: S_15  and  C_16
REMARK    7  A    between atoms: C_16  and  C_17
REMARK    8  A    between atoms: C_16  and  C_18
REMARK    9  A    between atoms: C_24  and  C_25
REMARK   10  A    between atoms: N_27  and  C_28
REMARK                            x       y       z     vdW  Elec       q    Type
REMARK                         _______ _______ _______ _____ _____    ______ ____
ROOT
ATOM      1  C   UNL     1       2.278   7.678  18.620  0.00  0.00    +0.000 A 
ATOM      2  N   UNL     1       2.826   7.385  17.456  0.00  0.00    +0.000 NA
ATOM      3  N   UNL     1       3.007   6.022  17.395  0.00  0.00    +0.000 NA
ATOM      4  C   UNL     1       2.591   5.508  18.529  0.00  0.00    +0.000 A 
ATOM      5  N   UNL     1       2.124   6.510  19.340  0.00  0.00    +0.000 N 
ATOM      6  C   UNL     1       1.563   6.408  20.662  0.00  0.00    +0.000 C 
ENDROOT
BRANCH   1   7
ATOM      7  C   UNL     1       1.897   9.041  19.088  0.00  0.00    +0.000 C 
BRANCH   7  10
ATOM      8  C   UNL     1      -0.136  10.447  19.018  0.00  0.00    +0.000 C 
ATOM      9  O   UNL     1       0.200  11.119  19.989  0.00  0.00    +0.000 OA
ATOM     10  N   UNL     1       0.616   9.409  18.524  0.00  0.00    +0.000 N 
ATOM     11  H   UNL     1       0.200   8.762  17.869  0.00  0.00    +0.000 HD
BRANCH   8  17
ATOM     12  C   UNL     1      -3.196  10.017  15.024  0.00  0.00    +0.000 C 
ATOM     13  C   UNL     1      -2.921  10.517  16.413  0.00  0.00    +0.000 A 
ATOM     14  C   UNL     1      -3.870  11.294  17.089  0.00  0.00    +0.000 A 
ATOM     15  C   UNL     1      -3.602  11.788  18.366  0.00  0.00    +0.000 A 
ATOM     16  C   UNL     1      -2.381  11.508  18.982  0.00  0.00    +0.000 A 
ATOM     17  C   UNL     1      -1.430  10.714  18.329  0.00  0.00    +0.000 A 
ATOM     18  C   UNL     1      -1.698  10.227  17.041  0.00  0.00    +0.000 A 
ENDBRANCH   8  17
ENDBRANCH   7  10
ENDBRANCH   1   7
BRANCH   4  19
ATOM     19  S   UNL     1       2.602   3.829  18.964  0.00  0.00    +0.000 S 
BRANCH  19  20
ATOM     20  C   UNL     1       4.231   3.610  19.784  0.00  0.00    +0.000 C 
ATOM     21  C   UNL     1       4.502   2.142  20.123  0.00  0.00    +0.000 C 
BRANCH  20  22
ATOM     22  C   UNL     1       5.331   4.108  18.819  0.00  0.00    +0.000 C 
ATOM     23  O   UNL     1       6.238   4.839  19.213  0.00  0.00    +0.000 OA
ATOM     24  N   UNL     1       5.170   3.707  17.504  0.00  0.00    +0.000 N 
ATOM     25  C   UNL     1       6.074   4.092  16.544  0.00  0.00    +0.000 A 
ATOM     26  N   UNL     1       7.245   4.666  16.674  0.00  0.00    +0.000 NA
ATOM     27  N   UNL     1       7.817   4.970  15.455  0.00  0.00    +0.000 NA
ATOM     28  C   UNL     1       7.040   4.630  14.450  0.00  0.00    +0.000 A 
ATOM     29  C   UNL     1       7.328   4.938  13.026  0.00  0.00    +0.000 C 
ATOM     30  S   UNL     1       5.598   3.815  14.925  0.00  0.00    +0.000 S 
ATOM     31  H   UNL     1       4.346   3.211  17.204  0.00  0.00    +0.000 HD
ENDBRANCH  20  22
ENDBRANCH  19  20
ENDBRANCH   4  19
TORSDOF 6
ENDMDL
MODEL 9
REMARK VINA RESULT:      -8.0      2.020      2.372
REMARK  Name = 
REMARK  10 active torsions:
REMARK  status: ('A' for Active; 'I' for Inactive)
REMARK    1  A    between atoms: C_1  and  C_2
REMARK    2  A    between atoms: C_6  and  C_7
REMARK    3  A    between atoms: N_9  and  C_10
REMARK    4  A    between atoms: C_10  and  C_11
REMARK    5  A    between atoms: C_14  and  S_15
REMARK    6  A    between atoms: S_15  and  C_16
REMARK    7  A    between atoms: C_16  and  C_17
REMARK    8  A    between atoms: C_16  and  C_18
REMARK    9  A    between atoms: C_24  and  C_25
REMARK   10  A    between atoms: N_27  and  C_28
REMARK                            x       y       z     vdW  Elec       q    Type
REMARK                         _______ _______ _______ _____ _____    ______ ____
ROOT
ATOM      1  C   UNL     1       2.286   6.691  18.756  0.00  0.00    +0.000 A 
ATOM      2  N   UNL     1       2.223   6.156  17.551  0.00  0.00    +0.000 NA
ATOM      3  N   UNL     1       2.027   4.802  17.691  0.00  0.00    +0.000 NA
ATOM      4  C   UNL     1       1.999   4.527  18.974  0.00  0.00    +0.000 A 
ATOM      5  N   UNL     1       2.162   5.684  19.691  0.00  0.00    +0.000 N 
ATOM      6  C   UNL     1       2.183   5.860  21.121  0.00  0.00    +0.000 C 
ENDROOT
BRANCH   1   7
ATOM      7  C   UNL     1       2.473   8.139  19.060  0.00  0.00    +0.000 C 
BRANCH   7  10
ATOM      8  C   UNL     1       0.494   9.542  19.544  0.00  0.00    +0.000 C 
ATOM      9  O   UNL     1       0.687   9.534  20.757  0.00  0.00    +0.000 OA
ATOM     10  N   UNL     1       1.298   8.878  18.649  0.00  0.00    +0.000 N 
ATOM     11  H   UNL     1       0.978   8.740  17.700  0.00  0.00    +0.000 HD
BRANCH   8  17
ATOM     12  C   UNL     1      -2.719  10.473  15.761  0.00  0.00    +0.000 C 
ATOM     13  C   UNL     1      -2.236  10.729  17.160  0.00  0.00    +0.000 A 
ATOM     14  C   UNL     1      -2.854  11.700  17.959  0.00  0.00    +0.000 A 
ATOM     15  C   UNL     1      -2.384  11.962  19.245  0.00  0.00    +0.000 A 
ATOM     16  C   UNL     1      -1.291  11.255  19.749  0.00  0.00    +0.000 A 
ATOM     17  C   UNL     1      -0.676  10.266  18.973  0.00  0.00    +0.000 A 
ATOM     18  C   UNL     1      -1.143  10.011  17.675  0.00  0.00    +0.000 A 
ENDBRANCH   8  17
ENDBRANCH   7  10
ENDBRANCH   1   7
BRANCH   4  19
ATOM     19  S   UNL     1       1.779   2.962  19.688  0.00  0.00    +0.000 S 
BRANCH  19  20
ATOM     20  C   UNL     1       3.294   2.048  19.191  0.00  0.00    +0.000 C 
ATOM     21  C   UNL     1       3.247   1.631  17.719  0.00  0.00    +0.000 C 
BRANCH  20  22
ATOM     22  C   UNL     1       4.512   2.975  19.406  0.00  0.00    +0.000 C 
ATOM     23  O   UNL     1       5.130   2.976  20.470  0.00  0.00    +0.000 OA
ATOM     24  N   UNL     1       4.796   3.811  18.340  0.00  0.00    +0.000 N 
ATOM     25  C   UNL     1       5.848   4.692  18.409  0.00  0.00    +0.000 A 
ATOM     26  N   UNL     1       6.816   4.779  19.288  0.00  0.00    +0.000 NA
ATOM     27  N   UNL     1       7.640   5.861  19.054  0.00  0.00    +0.000 NA
ATOM     28  C   UNL     1       7.247   6.562  18.013  0.00  0.00    +0.000 A 
ATOM     29  C   UNL     1       7.860   7.845  17.586  0.00  0.00    +0.000 C 
ATOM     30  S   UNL     1       5.897   5.883  17.182  0.00  0.00    +0.000 S 
ATOM     31  H   UNL     1       4.190   3.863  17.537  0.00  0.00    +0.000 HD
ENDBRANCH  20  22
ENDBRANCH  19  20
ENDBRANCH   4  19
TORSDOF 6
ENDMDL
