MODEL 1
REMARK VINA RESULT:      -8.2      0.000      0.000
REMARK  Name = 
REMARK  9 active torsions:
REMARK  status: ('A' for Active; 'I' for Inactive)
REMARK    1  A    between atoms: C_1  and  C_2
REMARK    2  A    between atoms: C_2  and  O_3
REMARK    3  A    between atoms: O_3  and  C_4
REMARK    4  A    between atoms: C_4  and  C_6
REMARK    5  A    between atoms: C_9  and  O_10
REMARK    6  A    between atoms: O_10  and  C_11
REMARK    7  A    between atoms: C_18  and  N_19
REMARK    8  A    between atoms: N_19  and  N_20
REMARK    9  A    between atoms: C_24  and  C_25
REMARK                            x       y       z     vdW  Elec       q    Type
REMARK                         _______ _______ _______ _____ _____    ______ ____
ROOT
ATOM      1  C   UNL     1       5.732   5.290  16.968  0.00  0.00    +0.000 A 
ATOM      2  C   UNL     1       6.038   6.621  17.128  0.00  0.00    +0.000 A 
ATOM      3  N   UNL     1       5.135   7.564  17.423  0.00  0.00    +0.000 NA
ATOM      4  C   UNL     1       3.857   7.156  17.461  0.00  0.00    +0.000 A 
ATOM      5  N   UNL     1       3.452   5.881  17.358  0.00  0.00    +0.000 NA
ATOM      6  C   UNL     1       4.406   4.928  17.189  0.00  0.00    +0.000 A 
ENDROOT
BRANCH   1   7
ATOM      7  C   UNL     1       6.821   4.417  16.542  0.00  0.00    +0.000 C 
ATOM      8  O   UNL     1       7.872   4.356  17.162  0.00  0.00    +0.000 OA
BRANCH   7   9
ATOM      9  O   UNL     1       6.480   3.671  15.465  0.00  0.00    +0.000 OA
BRANCH   9  11
ATOM     10  C   UNL     1       5.795   3.711  13.129  0.00  0.00    +0.000 C 
ATOM     11  C   UNL     1       6.644   4.356  14.210  0.00  0.00    +0.000 C 
ENDBRANCH   9  11
ENDBRANCH   7   9
ENDBRANCH   1   7
BRANCH   6  12
ATOM     12  N   UNL     1       4.012   3.560  17.160  0.00  0.00    +0.000 N 
ATOM     13  H   UNL     1       4.827   2.945  17.186  0.00  0.00    +0.000 HD
BRANCH  12  14
ATOM     14  N   UNL     1       3.100   3.223  18.191  0.00  0.00    +0.000 N 
ATOM     15  C   UNL     1       1.750   3.433  18.103  0.00  0.00    +0.000 C 
ATOM     16  O   UNL     1       1.073   3.922  17.214  0.00  0.00    +0.000 OA
ATOM     17  C   UNL     1       1.207   3.080  19.420  0.00  0.00    +0.000 C 
ATOM     18  C   UNL     1       2.235   2.963  20.266  0.00  0.00    +0.000 C 
ATOM     19  C   UNL     1       2.217   2.629  21.706  0.00  0.00    +0.000 C 
ATOM     20  C   UNL     1       3.475   3.233  19.505  0.00  0.00    +0.000 C 
ATOM     21  O   UNL     1       4.545   3.517  20.014  0.00  0.00    +0.000 OA
ENDBRANCH  12  14
ENDBRANCH   6  12
BRANCH   4  22
ATOM     22  O   UNL     1       2.853   8.120  17.528  0.00  0.00    +0.000 OA
BRANCH  22  23
ATOM     23  C   UNL     1       2.184   8.213  18.731  0.00  0.00    +0.000 A 
ATOM     24  C   UNL     1       2.265   7.223  19.719  0.00  0.00    +0.000 A 
ATOM     25  C   UNL     1       1.519   7.331  20.889  0.00  0.00    +0.000 A 
ATOM     26  C   UNL     1       0.733   8.459  21.105  0.00  0.00    +0.000 A 
ATOM     27  C   UNL     1       0.694   9.478  20.152  0.00  0.00    +0.000 A 
ATOM     28  C   UNL     1       1.419   9.360  18.962  0.00  0.00    +0.000 A 
ENDBRANCH  22  23
ENDBRANCH   4  22
TORSDOF 7
ENDMDL
MODEL 2
REMARK VINA RESULT:      -8.0      1.674      5.924
REMARK  Name = 
REMARK  9 active torsions:
REMARK  status: ('A' for Active; 'I' for Inactive)
REMARK    1  A    between atoms: C_1  and  C_2
REMARK    2  A    between atoms: C_2  and  O_3
REMARK    3  A    between atoms: O_3  and  C_4
REMARK    4  A    between atoms: C_4  and  C_6
REMARK    5  A    between atoms: C_9  and  O_10
REMARK    6  A    between atoms: O_10  and  C_11
REMARK    7  A    between atoms: C_18  and  N_19
REMARK    8  A    between atoms: N_19  and  N_20
REMARK    9  A    between atoms: C_24  and  C_25
REMARK                            x       y       z     vdW  Elec       q    Type
REMARK                         _______ _______ _______ _____ _____    ______ ____
ROOT
ATOM      1  C   UNL     1       3.412   6.957  17.582  0.00  0.00    +0.000 A 
ATOM      2  C   UNL     1       4.594   7.456  17.087  0.00  0.00    +0.000 A 
ATOM      3  N   UNL     1       5.526   6.707  16.485  0.00  0.00    +0.000 NA
ATOM      4  C   UNL     1       5.292   5.385  16.471  0.00  0.00    +0.000 A 
ATOM      5  N   UNL     1       4.161   4.799  16.889  0.00  0.00    +0.000 NA
ATOM      6  C   UNL     1       3.178   5.601  17.377  0.00  0.00    +0.000 A 
ENDROOT
BRANCH   1   7
ATOM      7  C   UNL     1       2.559   7.896  18.303  0.00  0.00    +0.000 C 
ATOM      8  O   UNL     1       2.299   7.745  19.487  0.00  0.00    +0.000 OA
BRANCH   7   9
ATOM      9  O   UNL     1       2.185   8.939  17.527  0.00  0.00    +0.000 OA
BRANCH   9  11
ATOM     10  C   UNL     1       0.128  10.060  18.194  0.00  0.00    +0.000 C 
ATOM     11  C   UNL     1       1.646  10.049  18.266  0.00  0.00    +0.000 C 
ENDBRANCH   9  11
ENDBRANCH   7   9
ENDBRANCH   1   7
BRANCH   6  12
ATOM     12  N   UNL     1       1.934   5.013  17.750  0.00  0.00    +0.000 N 
ATOM     13  H   UNL     1       1.423   4.689  16.927  0.00  0.00    +0.000 HD
BRANCH  12  14
ATOM     14  N   UNL     1       2.077   3.966  18.694  0.00  0.00    +0.000 N 
ATOM     15  C   UNL     1       2.138   2.642  18.349  0.00  0.00    +0.000 C 
ATOM     16  O   UNL     1       2.078   2.096  17.260  0.00  0.00    +0.000 OA
ATOM     17  C   UNL     1       2.143   1.903  19.616  0.00  0.00    +0.000 C 
ATOM     18  C   UNL     1       1.810   2.757  20.588  0.00  0.00    +0.000 C 
ATOM     19  C   UNL     1       1.670   2.504  22.038  0.00  0.00    +0.000 C 
ATOM     20  C   UNL     1       1.589   4.081  19.964  0.00  0.00    +0.000 C 
ATOM     21  O   UNL     1       0.981   4.996  20.493  0.00  0.00    +0.000 OA
ENDBRANCH  12  14
ENDBRANCH   6  12
BRANCH   4  22
ATOM     22  O   UNL     1       6.321   4.533  16.075  0.00  0.00    +0.000 OA
BRANCH  22  23
ATOM     23  C   UNL     1       6.527   4.426  14.714  0.00  0.00    +0.000 A 
ATOM     24  C   UNL     1       5.737   3.611  13.893  0.00  0.00    +0.000 A 
ATOM     25  C   UNL     1       6.025   3.485  12.537  0.00  0.00    +0.000 A 
ATOM     26  C   UNL     1       7.069   4.220  11.982  0.00  0.00    +0.000 A 
ATOM     27  C   UNL     1       7.823   5.080  12.784  0.00  0.00    +0.000 A 
ATOM     28  C   UNL     1       7.554   5.187  14.152  0.00  0.00    +0.000 A 
ENDBRANCH  22  23
ENDBRANCH   4  22
TORSDOF 7
ENDMDL
MODEL 3
REMARK VINA RESULT:      -7.9      0.843      1.711
REMARK  Name = 
REMARK  9 active torsions:
REMARK  status: ('A' for Active; 'I' for Inactive)
REMARK    1  A    between atoms: C_1  and  C_2
REMARK    2  A    between atoms: C_2  and  O_3
REMARK    3  A    between atoms: O_3  and  C_4
REMARK    4  A    between atoms: C_4  and  C_6
REMARK    5  A    between atoms: C_9  and  O_10
REMARK    6  A    between atoms: O_10  and  C_11
REMARK    7  A    between atoms: C_18  and  N_19
REMARK    8  A    between atoms: N_19  and  N_20
REMARK    9  A    between atoms: C_24  and  C_25
REMARK                            x       y       z     vdW  Elec       q    Type
REMARK                         _______ _______ _______ _____ _____    ______ ____
ROOT
ATOM      1  C   UNL     1       6.273   5.387  17.318  0.00  0.00    +0.000 A 
ATOM      2  C   UNL     1       6.432   6.751  17.238  0.00  0.00    +0.000 A 
ATOM      3  N   UNL     1       5.416   7.622  17.248  0.00  0.00    +0.000 NA
ATOM      4  C   UNL     1       4.186   7.084  17.242  0.00  0.00    +0.000 A 
ATOM      5  N   UNL     1       3.918   5.775  17.356  0.00  0.00    +0.000 NA
ATOM      6  C   UNL     1       4.971   4.923  17.476  0.00  0.00    +0.000 A 
ENDROOT
BRANCH   1   7
ATOM      7  C   UNL     1       7.483   4.581  17.185  0.00  0.00    +0.000 C 
ATOM      8  O   UNL     1       8.290   4.483  18.097  0.00  0.00    +0.000 OA
BRANCH   7   9
ATOM      9  O   UNL     1       7.532   3.936  15.997  0.00  0.00    +0.000 OA
BRANCH   9  11
ATOM     10  C   UNL     1       6.268   3.943  13.915  0.00  0.00    +0.000 C 
ATOM     11  C   UNL     1       7.126   4.745  14.879  0.00  0.00    +0.000 C 
ENDBRANCH   9  11
ENDBRANCH   7   9
ENDBRANCH   1   7
BRANCH   6  12
ATOM     12  N   UNL     1       4.713   3.538  17.683  0.00  0.00    +0.000 N 
ATOM     13  H   UNL     1       5.582   3.026  17.850  0.00  0.00    +0.000 HD
BRANCH  12  14
ATOM     14  N   UNL     1       3.784   3.296  18.725  0.00  0.00    +0.000 N 
ATOM     15  C   UNL     1       4.106   2.650  19.889  0.00  0.00    +0.000 C 
ATOM     16  O   UNL     1       5.158   2.164  20.268  0.00  0.00    +0.000 OA
ATOM     17  C   UNL     1       2.841   2.490  20.616  0.00  0.00    +0.000 C 
ATOM     18  C   UNL     1       1.846   2.770  19.770  0.00  0.00    +0.000 C 
ATOM     19  C   UNL     1       0.388   2.751  20.014  0.00  0.00    +0.000 C 
ATOM     20  C   UNL     1       2.453   3.129  18.468  0.00  0.00    +0.000 C 
ATOM     21  O   UNL     1       1.851   3.134  17.408  0.00  0.00    +0.000 OA
ENDBRANCH  12  14
ENDBRANCH   6  12
BRANCH   4  22
ATOM     22  O   UNL     1       3.096   7.921  17.015  0.00  0.00    +0.000 OA
BRANCH  22  23
ATOM     23  C   UNL     1       2.396   8.318  18.136  0.00  0.00    +0.000 A 
ATOM     24  C   UNL     1       2.369   7.563  19.316  0.00  0.00    +0.000 A 
ATOM     25  C   UNL     1       1.595   7.973  20.398  0.00  0.00    +0.000 A 
ATOM     26  C   UNL     1       0.890   9.172  20.328  0.00  0.00    +0.000 A 
ATOM     27  C   UNL     1       0.962   9.960  19.178  0.00  0.00    +0.000 A 
ATOM     28  C   UNL     1       1.715   9.537  18.078  0.00  0.00    +0.000 A 
ENDBRANCH  22  23
ENDBRANCH   4  22
TORSDOF 7
ENDMDL
MODEL 4
REMARK VINA RESULT:      -7.9      1.666      5.934
REMARK  Name = 
REMARK  9 active torsions:
REMARK  status: ('A' for Active; 'I' for Inactive)
REMARK    1  A    between atoms: C_1  and  C_2
REMARK    2  A    between atoms: C_2  and  O_3
REMARK    3  A    between atoms: O_3  and  C_4
REMARK    4  A    between atoms: C_4  and  C_6
REMARK    5  A    between atoms: C_9  and  O_10
REMARK    6  A    between atoms: O_10  and  C_11
REMARK    7  A    between atoms: C_18  and  N_19
REMARK    8  A    between atoms: N_19  and  N_20
REMARK    9  A    between atoms: C_24  and  C_25
REMARK                            x       y       z     vdW  Elec       q    Type
REMARK                         _______ _______ _______ _____ _____    ______ ____
ROOT
ATOM      1  C   UNL     1       3.455   6.982  17.579  0.00  0.00    +0.000 A 
ATOM      2  C   UNL     1       4.639   7.485  17.094  0.00  0.00    +0.000 A 
ATOM      3  N   UNL     1       5.584   6.737  16.511  0.00  0.00    +0.000 NA
ATOM      4  C   UNL     1       5.362   5.414  16.508  0.00  0.00    +0.000 A 
ATOM      5  N   UNL     1       4.230   4.822  16.918  0.00  0.00    +0.000 NA
ATOM      6  C   UNL     1       3.234   5.622  17.385  0.00  0.00    +0.000 A 
ENDROOT
BRANCH   1   7
ATOM      7  C   UNL     1       2.586   7.921  18.280  0.00  0.00    +0.000 C 
ATOM      8  O   UNL     1       2.289   7.764  19.454  0.00  0.00    +0.000 OA
BRANCH   7   9
ATOM      9  O   UNL     1       2.241   8.971  17.499  0.00  0.00    +0.000 OA
BRANCH   9  11
ATOM     10  C   UNL     1       2.112  11.290  18.230  0.00  0.00    +0.000 C 
ATOM     11  C   UNL     1       1.414   9.943  18.163  0.00  0.00    +0.000 C 
ENDBRANCH   9  11
ENDBRANCH   7   9
ENDBRANCH   1   7
BRANCH   6  12
ATOM     12  N   UNL     1       1.991   5.028  17.748  0.00  0.00    +0.000 N 
ATOM     13  H   UNL     1       1.486   4.704  16.921  0.00  0.00    +0.000 HD
BRANCH  12  14
ATOM     14  N   UNL     1       2.132   3.979  18.690  0.00  0.00    +0.000 N 
ATOM     15  C   UNL     1       2.200   2.656  18.341  0.00  0.00    +0.000 C 
ATOM     16  O   UNL     1       2.149   2.113  17.251  0.00  0.00    +0.000 OA
ATOM     17  C   UNL     1       2.200   1.913  19.607  0.00  0.00    +0.000 C 
ATOM     18  C   UNL     1       1.857   2.763  20.579  0.00  0.00    +0.000 C 
ATOM     19  C   UNL     1       1.709   2.505  22.027  0.00  0.00    +0.000 C 
ATOM     20  C   UNL     1       1.635   4.088  19.958  0.00  0.00    +0.000 C 
ATOM     21  O   UNL     1       1.020   4.999  20.485  0.00  0.00    +0.000 OA
ENDBRANCH  12  14
ENDBRANCH   6  12
BRANCH   4  22
ATOM     22  O   UNL     1       6.402   4.565  16.134  0.00  0.00    +0.000 OA
BRANCH  22  23
ATOM     23  C   UNL     1       6.648   4.472  14.779  0.00  0.00    +0.000 A 
ATOM     24  C   UNL     1       7.660   5.204  14.144  0.00  0.00    +0.000 A 
ATOM     25  C   UNL     1       7.827   5.125  12.764  0.00  0.00    +0.000 A 
ATOM     26  C   UNL     1       7.021   4.269  12.019  0.00  0.00    +0.000 A 
ATOM     27  C   UNL     1       6.051   3.491  12.654  0.00  0.00    +0.000 A 
ATOM     28  C   UNL     1       5.861   3.589  14.036  0.00  0.00    +0.000 A 
ENDBRANCH  22  23
ENDBRANCH   4  22
TORSDOF 7
ENDMDL
MODEL 5
REMARK VINA RESULT:      -7.9      1.435      6.007
REMARK  Name = 
REMARK  9 active torsions:
REMARK  status: ('A' for Active; 'I' for Inactive)
REMARK    1  A    between atoms: C_1  and  C_2
REMARK    2  A    between atoms: C_2  and  O_3
REMARK    3  A    between atoms: O_3  and  C_4
REMARK    4  A    between atoms: C_4  and  C_6
REMARK    5  A    between atoms: C_9  and  O_10
REMARK    6  A    between atoms: O_10  and  C_11
REMARK    7  A    between atoms: C_18  and  N_19
REMARK    8  A    between atoms: N_19  and  N_20
REMARK    9  A    between atoms: C_24  and  C_25
REMARK                            x       y       z     vdW  Elec       q    Type
REMARK                         _______ _______ _______ _____ _____    ______ ____
ROOT
ATOM      1  C   UNL     1       3.372   7.176  17.492  0.00  0.00    +0.000 A 
ATOM      2  C   UNL     1       4.542   7.629  16.930  0.00  0.00    +0.000 A 
ATOM      3  N   UNL     1       5.461   6.830  16.375  0.00  0.00    +0.000 NA
ATOM      4  C   UNL     1       5.229   5.512  16.481  0.00  0.00    +0.000 A 
ATOM      5  N   UNL     1       4.108   4.965  16.973  0.00  0.00    +0.000 NA
ATOM      6  C   UNL     1       3.134   5.807  17.410  0.00  0.00    +0.000 A 
ENDROOT
BRANCH   1   7
ATOM      7  C   UNL     1       2.533   8.175  18.147  0.00  0.00    +0.000 C 
ATOM      8  O   UNL     1       2.131   9.162  17.552  0.00  0.00    +0.000 OA
BRANCH   7   9
ATOM      9  O   UNL     1       2.225   7.822  19.417  0.00  0.00    +0.000 OA
BRANCH   9  11
ATOM     10  C   UNL     1       1.201   8.402  21.549  0.00  0.00    +0.000 C 
ATOM     11  C   UNL     1       1.331   8.738  20.073  0.00  0.00    +0.000 C 
ENDBRANCH   9  11
ENDBRANCH   7   9
ENDBRANCH   1   7
BRANCH   6  12
ATOM     12  N   UNL     1       1.900   5.255  17.860  0.00  0.00    +0.000 N 
ATOM     13  H   UNL     1       1.305   5.002  17.070  0.00  0.00    +0.000 HD
BRANCH  12  14
ATOM     14  N   UNL     1       2.071   4.150  18.730  0.00  0.00    +0.000 N 
ATOM     15  C   UNL     1       2.132   2.851  18.298  0.00  0.00    +0.000 C 
ATOM     16  O   UNL     1       2.048   2.377  17.178  0.00  0.00    +0.000 OA
ATOM     17  C   UNL     1       2.171   2.031  19.514  0.00  0.00    +0.000 C 
ATOM     18  C   UNL     1       1.857   2.818  20.547  0.00  0.00    +0.000 C 
ATOM     19  C   UNL     1       1.754   2.469  21.980  0.00  0.00    +0.000 C 
ATOM     20  C   UNL     1       1.613   4.177  20.017  0.00  0.00    +0.000 C 
ATOM     21  O   UNL     1       1.014   5.052  20.618  0.00  0.00    +0.000 OA
ENDBRANCH  12  14
ENDBRANCH   6  12
BRANCH   4  22
ATOM     22  O   UNL     1       6.250   4.628  16.139  0.00  0.00    +0.000 OA
BRANCH  22  23
ATOM     23  C   UNL     1       6.490   4.476  14.788  0.00  0.00    +0.000 A 
ATOM     24  C   UNL     1       5.714   3.641  13.973  0.00  0.00    +0.000 A 
ATOM     25  C   UNL     1       6.036   3.470  12.629  0.00  0.00    +0.000 A 
ATOM     26  C   UNL     1       7.100   4.179  12.078  0.00  0.00    +0.000 A 
ATOM     27  C   UNL     1       7.840   5.059  12.871  0.00  0.00    +0.000 A 
ATOM     28  C   UNL     1       7.537   5.211  14.228  0.00  0.00    +0.000 A 
ENDBRANCH  22  23
ENDBRANCH   4  22
TORSDOF 7
ENDMDL
MODEL 6
REMARK VINA RESULT:      -7.8      1.678      6.066
REMARK  Name = 
REMARK  9 active torsions:
REMARK  status: ('A' for Active; 'I' for Inactive)
REMARK    1  A    between atoms: C_1  and  C_2
REMARK    2  A    between atoms: C_2  and  O_3
REMARK    3  A    between atoms: O_3  and  C_4
REMARK    4  A    between atoms: C_4  and  C_6
REMARK    5  A    between atoms: C_9  and  O_10
REMARK    6  A    between atoms: O_10  and  C_11
REMARK    7  A    between atoms: C_18  and  N_19
REMARK    8  A    between atoms: N_19  and  N_20
REMARK    9  A    between atoms: C_24  and  C_25
REMARK                            x       y       z     vdW  Elec       q    Type
REMARK                         _______ _______ _______ _____ _____    ______ ____
ROOT
ATOM      1  C   UNL     1       3.785   7.012  17.710  0.00  0.00    +0.000 A 
ATOM      2  C   UNL     1       4.168   7.302  16.422  0.00  0.00    +0.000 A 
ATOM      3  N   UNL     1       5.171   6.685  15.786  0.00  0.00    +0.000 NA
ATOM      4  C   UNL     1       5.876   5.808  16.518  0.00  0.00    +0.000 A 
ATOM      5  N   UNL     1       5.567   5.424  17.766  0.00  0.00    +0.000 NA
ATOM      6  C   UNL     1       4.463   5.972  18.340  0.00  0.00    +0.000 A 
ENDROOT
BRANCH   1   7
ATOM      7  C   UNL     1       2.742   7.854  18.286  0.00  0.00    +0.000 C 
ATOM      8  O   UNL     1       2.417   7.758  19.459  0.00  0.00    +0.000 OA
BRANCH   7   9
ATOM      9  O   UNL     1       2.271   8.757  17.395  0.00  0.00    +0.000 OA
BRANCH   9  11
ATOM     10  C   UNL     1       0.273   9.976  18.067  0.00  0.00    +0.000 C 
ATOM     11  C   UNL     1       1.791   9.972  17.997  0.00  0.00    +0.000 C 
ENDBRANCH   9  11
ENDBRANCH   7   9
ENDBRANCH   1   7
BRANCH   6  12
ATOM     12  N   UNL     1       4.065   5.521  19.631  0.00  0.00    +0.000 N 
ATOM     13  H   UNL     1       3.479   6.216  20.095  0.00  0.00    +0.000 HD
BRANCH  12  14
ATOM     14  N   UNL     1       3.417   4.261  19.602  0.00  0.00    +0.000 N 
ATOM     15  C   UNL     1       4.084   3.067  19.679  0.00  0.00    +0.000 C 
ATOM     16  O   UNL     1       5.275   2.821  19.768  0.00  0.00    +0.000 OA
ATOM     17  C   UNL     1       3.065   2.031  19.474  0.00  0.00    +0.000 C 
ATOM     18  C   UNL     1       1.960   2.629  19.022  0.00  0.00    +0.000 C 
ATOM     19  C   UNL     1       0.660   2.025  18.660  0.00  0.00    +0.000 C 
ATOM     20  C   UNL     1       2.241   4.080  18.932  0.00  0.00    +0.000 C 
ATOM     21  O   UNL     1       1.581   4.868  18.276  0.00  0.00    +0.000 OA
ENDBRANCH  12  14
ENDBRANCH   6  12
BRANCH   4  22
ATOM     22  O   UNL     1       7.068   5.312  15.995  0.00  0.00    +0.000 OA
BRANCH  22  23
ATOM     23  C   UNL     1       7.021   4.885  14.683  0.00  0.00    +0.000 A 
ATOM     24  C   UNL     1       7.835   5.432  13.682  0.00  0.00    +0.000 A 
ATOM     25  C   UNL     1       7.704   5.014  12.361  0.00  0.00    +0.000 A 
ATOM     26  C   UNL     1       6.800   4.005  12.042  0.00  0.00    +0.000 A 
ATOM     27  C   UNL     1       6.028   3.414  13.045  0.00  0.00    +0.000 A 
ATOM     28  C   UNL     1       6.136   3.851  14.368  0.00  0.00    +0.000 A 
ENDBRANCH  22  23
ENDBRANCH   4  22
TORSDOF 7
ENDMDL
MODEL 7
REMARK VINA RESULT:      -7.7      2.298      5.052
REMARK  Name = 
REMARK  9 active torsions:
REMARK  status: ('A' for Active; 'I' for Inactive)
REMARK    1  A    between atoms: C_1  and  C_2
REMARK    2  A    between atoms: C_2  and  O_3
REMARK    3  A    between atoms: O_3  and  C_4
REMARK    4  A    between atoms: C_4  and  C_6
REMARK    5  A    between atoms: C_9  and  O_10
REMARK    6  A    between atoms: O_10  and  C_11
REMARK    7  A    between atoms: C_18  and  N_19
REMARK    8  A    between atoms: N_19  and  N_20
REMARK    9  A    between atoms: C_24  and  C_25
REMARK                            x       y       z     vdW  Elec       q    Type
REMARK                         _______ _______ _______ _____ _____    ______ ____
ROOT
ATOM      1  C   UNL     1       3.831   2.841  19.806  0.00  0.00    +0.000 A 
ATOM      2  C   UNL     1       2.557   2.933  20.315  0.00  0.00    +0.000 A 
ATOM      3  N   UNL     1       1.922   4.091  20.532  0.00  0.00    +0.000 NA
ATOM      4  C   UNL     1       2.643   5.202  20.315  0.00  0.00    +0.000 A 
ATOM      5  N   UNL     1       3.875   5.228  19.786  0.00  0.00    +0.000 NA
ATOM      6  C   UNL     1       4.445   4.039  19.453  0.00  0.00    +0.000 A 
ENDROOT
BRANCH   1   7
ATOM      7  C   UNL     1       4.410   1.504  19.734  0.00  0.00    +0.000 C 
ATOM      8  O   UNL     1       4.084   0.711  18.864  0.00  0.00    +0.000 OA
BRANCH   7   9
ATOM      9  O   UNL     1       5.363   1.314  20.677  0.00  0.00    +0.000 OA
BRANCH   9  11
ATOM     10  C   UNL     1       6.377  -0.247  22.247  0.00  0.00    +0.000 C 
ATOM     11  C   UNL     1       5.684  -0.070  20.907  0.00  0.00    +0.000 C 
ENDBRANCH   9  11
ENDBRANCH   7   9
ENDBRANCH   1   7
BRANCH   6  12
ATOM     12  N   UNL     1       5.717   4.043  18.813  0.00  0.00    +0.000 N 
ATOM     13  H   UNL     1       5.758   3.332  18.080  0.00  0.00    +0.000 HD
BRANCH  12  14
ATOM     14  N   UNL     1       6.074   5.313  18.295  0.00  0.00    +0.000 N 
ATOM     15  C   UNL     1       5.695   5.757  17.057  0.00  0.00    +0.000 C 
ATOM     16  O   UNL     1       5.038   5.220  16.181  0.00  0.00    +0.000 OA
ATOM     17  C   UNL     1       6.385   7.039  16.868  0.00  0.00    +0.000 C 
ATOM     18  C   UNL     1       7.312   7.148  17.823  0.00  0.00    +0.000 C 
ATOM     19  C   UNL     1       8.271   8.247  18.064  0.00  0.00    +0.000 C 
ATOM     20  C   UNL     1       7.236   5.931  18.662  0.00  0.00    +0.000 C 
ATOM     21  O   UNL     1       8.121   5.558  19.413  0.00  0.00    +0.000 OA
ENDBRANCH  12  14
ENDBRANCH   6  12
BRANCH   4  22
ATOM     22  O   UNL     1       2.128   6.423  20.743  0.00  0.00    +0.000 OA
BRANCH  22  23
ATOM     23  C   UNL     1       2.007   7.400  19.776  0.00  0.00    +0.000 A 
ATOM     24  C   UNL     1       2.539   7.256  18.487  0.00  0.00    +0.000 A 
ATOM     25  C   UNL     1       2.448   8.297  17.567  0.00  0.00    +0.000 A 
ATOM     26  C   UNL     1       1.773   9.466  17.910  0.00  0.00    +0.000 A 
ATOM     27  C   UNL     1       1.189   9.591  19.172  0.00  0.00    +0.000 A 
ATOM     28  C   UNL     1       1.303   8.560  20.109  0.00  0.00    +0.000 A 
ENDBRANCH  22  23
ENDBRANCH   4  22
TORSDOF 7
ENDMDL
MODEL 8
REMARK VINA RESULT:      -7.7      2.140      4.739
REMARK  Name = 
REMARK  9 active torsions:
REMARK  status: ('A' for Active; 'I' for Inactive)
REMARK    1  A    between atoms: C_1  and  C_2
REMARK    2  A    between atoms: C_2  and  O_3
REMARK    3  A    between atoms: O_3  and  C_4
REMARK    4  A    between atoms: C_4  and  C_6
REMARK    5  A    between atoms: C_9  and  O_10
REMARK    6  A    between atoms: O_10  and  C_11
REMARK    7  A    between atoms: C_18  and  N_19
REMARK    8  A    between atoms: N_19  and  N_20
REMARK    9  A    between atoms: C_24  and  C_25
REMARK                            x       y       z     vdW  Elec       q    Type
REMARK                         _______ _______ _______ _____ _____    ______ ____
ROOT
ATOM      1  C   UNL     1       2.093   5.334  19.868  0.00  0.00    +0.000 A 
ATOM      2  C   UNL     1       1.264   5.968  20.764  0.00  0.00    +0.000 A 
ATOM      3  N   UNL     1       1.049   7.289  20.775  0.00  0.00    +0.000 NA
ATOM      4  C   UNL     1       1.778   8.006  19.905  0.00  0.00    +0.000 A 
ATOM      5  N   UNL     1       2.584   7.488  18.966  0.00  0.00    +0.000 NA
ATOM      6  C   UNL     1       2.681   6.134  18.894  0.00  0.00    +0.000 A 
ENDROOT
BRANCH   1   7
ATOM      7  C   UNL     1       2.295   3.902  20.068  0.00  0.00    +0.000 C 
ATOM      8  O   UNL     1       2.829   3.466  21.077  0.00  0.00    +0.000 OA
BRANCH   7   9
ATOM      9  O   UNL     1       1.765   3.171  19.061  0.00  0.00    +0.000 OA
BRANCH   9  11
ATOM     10  C   UNL     1       3.536   1.902  17.973  0.00  0.00    +0.000 C 
ATOM     11  C   UNL     1       2.350   1.864  18.921  0.00  0.00    +0.000 C 
ENDBRANCH   9  11
ENDBRANCH   7   9
ENDBRANCH   1   7
BRANCH   6  12
ATOM     12  N   UNL     1       3.464   5.557  17.853  0.00  0.00    +0.000 N 
ATOM     13  H   UNL     1       3.058   5.758  16.938  0.00  0.00    +0.000 HD
BRANCH  12  14
ATOM     14  N   UNL     1       4.823   5.955  17.895  0.00  0.00    +0.000 N 
ATOM     15  C   UNL     1       5.475   6.523  16.833  0.00  0.00    +0.000 C 
ATOM     16  O   UNL     1       5.091   6.785  15.706  0.00  0.00    +0.000 OA
ATOM     17  C   UNL     1       6.877   6.647  17.251  0.00  0.00    +0.000 C 
ATOM     18  C   UNL     1       7.037   5.924  18.362  0.00  0.00    +0.000 C 
ATOM     19  C   UNL     1       8.260   5.721  19.168  0.00  0.00    +0.000 C 
ATOM     20  C   UNL     1       5.728   5.318  18.694  0.00  0.00    +0.000 C 
ATOM     21  O   UNL     1       5.582   4.368  19.444  0.00  0.00    +0.000 OA
ENDBRANCH  12  14
ENDBRANCH   6  12
BRANCH   4  22
ATOM     22  O   UNL     1       1.778   9.394  20.024  0.00  0.00    +0.000 OA
BRANCH  22  23
ATOM     23  C   UNL     1       0.606  10.031  19.670  0.00  0.00    +0.000 A 
ATOM     24  C   UNL     1      -0.100  10.858  20.553  0.00  0.00    +0.000 A 
ATOM     25  C   UNL     1      -1.312  11.426  20.170  0.00  0.00    +0.000 A 
ATOM     26  C   UNL     1      -1.796  11.219  18.881  0.00  0.00    +0.000 A 
ATOM     27  C   UNL     1      -1.066  10.445  17.976  0.00  0.00    +0.000 A 
ATOM     28  C   UNL     1       0.137   9.849  18.366  0.00  0.00    +0.000 A 
ENDBRANCH  22  23
ENDBRANCH   4  22
TORSDOF 7
ENDMDL
MODEL 9
REMARK VINA RESULT:      -7.6      2.081      4.685
REMARK  Name = 
REMARK  9 active torsions:
REMARK  status: ('A' for Active; 'I' for Inactive)
REMARK    1  A    between atoms: C_1  and  C_2
REMARK    2  A    between atoms: C_2  and  O_3
REMARK    3  A    between atoms: O_3  and  C_4
REMARK    4  A    between atoms: C_4  and  C_6
REMARK    5  A    between atoms: C_9  and  O_10
REMARK    6  A    between atoms: O_10  and  C_11
REMARK    7  A    between atoms: C_18  and  N_19
REMARK    8  A    between atoms: N_19  and  N_20
REMARK    9  A    between atoms: C_24  and  C_25
REMARK                            x       y       z     vdW  Elec       q    Type
REMARK                         _______ _______ _______ _____ _____    ______ ____
ROOT
ATOM      1  C   UNL     1       2.112   4.078  18.810  0.00  0.00    +0.000 A 
ATOM      2  C   UNL     1       1.228   4.254  19.848  0.00  0.00    +0.000 A 
ATOM      3  N   UNL     1       1.109   5.393  20.541  0.00  0.00    +0.000 NA
ATOM      4  C   UNL     1       1.989   6.358  20.233  0.00  0.00    +0.000 A 
ATOM      5  N   UNL     1       2.865   6.306  19.219  0.00  0.00    +0.000 NA
ATOM      6  C   UNL     1       2.873   5.186  18.449  0.00  0.00    +0.000 A 
ENDROOT
BRANCH   1   7
ATOM      7  C   UNL     1       2.184   2.738  18.235  0.00  0.00    +0.000 C 
ATOM      8  O   UNL     1       2.031   2.547  17.039  0.00  0.00    +0.000 OA
BRANCH   7   9
ATOM      9  O   UNL     1       2.504   1.806  19.162  0.00  0.00    +0.000 OA
BRANCH   9  11
ATOM     10  C   UNL     1       4.433   1.934  20.644  0.00  0.00    +0.000 C 
ATOM     11  C   UNL     1       3.916   1.552  19.267  0.00  0.00    +0.000 C 
ENDBRANCH   9  11
ENDBRANCH   7   9
ENDBRANCH   1   7
BRANCH   6  12
ATOM     12  N   UNL     1       3.734   5.138  17.315  0.00  0.00    +0.000 N 
ATOM     13  H   UNL     1       3.256   5.482  16.480  0.00  0.00    +0.000 HD
BRANCH  12  14
ATOM     14  N   UNL     1       4.952   5.834  17.514  0.00  0.00    +0.000 N 
ATOM     15  C   UNL     1       5.524   6.641  16.567  0.00  0.00    +0.000 C 
ATOM     16  O   UNL     1       5.169   6.921  15.435  0.00  0.00    +0.000 OA
ATOM     17  C   UNL     1       6.822   7.043  17.121  0.00  0.00    +0.000 C 
ATOM     18  C   UNL     1       7.071   6.267  18.180  0.00  0.00    +0.000 C 
ATOM     19  C   UNL     1       8.247   6.270  19.076  0.00  0.00    +0.000 C 
ATOM     20  C   UNL     1       5.925   5.344  18.339  0.00  0.00    +0.000 C 
ATOM     21  O   UNL     1       5.957   4.315  18.992  0.00  0.00    +0.000 OA
ENDBRANCH  12  14
ENDBRANCH   6  12
BRANCH   4  22
ATOM     22  O   UNL     1       2.076   7.470  21.068  0.00  0.00    +0.000 OA
BRANCH  22  23
ATOM     23  C   UNL     1       1.220   8.513  20.776  0.00  0.00    +0.000 A 
ATOM     24  C   UNL     1       1.160   9.107  19.508  0.00  0.00    +0.000 A 
ATOM     25  C   UNL     1       0.328  10.199  19.280  0.00  0.00    +0.000 A 
ATOM     26  C   UNL     1      -0.493  10.668  20.302  0.00  0.00    +0.000 A 
ATOM     27  C   UNL     1      -0.482  10.042  21.551  0.00  0.00    +0.000 A 
ATOM     28  C   UNL     1       0.374   8.963  21.792  0.00  0.00    +0.000 A 
ENDBRANCH  22  23
ENDBRANCH   4  22
TORSDOF 7
ENDMDL
