MODEL 1
REMARK VINA RESULT:      -7.3      0.000      0.000
REMARK  Name = 
REMARK  7 active torsions:
REMARK  status: ('A' for Active; 'I' for Inactive)
REMARK    1  A    between atoms: C_2  and  C_17
REMARK    2  A    between atoms: N_3  and  O_4
REMARK    3  A    between atoms: O_4  and  C_5
REMARK    4  A    between atoms: C_5  and  C_7
REMARK    5  A    between atoms: C_7  and  C_8
REMARK    6  A    between atoms: C_11  and  N_12
REMARK    7  A    between atoms: C_20  and  N_21
REMARK                            x       y       z     vdW  Elec       q    Type
REMARK                         _______ _______ _______ _____ _____    ______ ____
ROOT
ATOM      1  N   UNL     1       2.296   4.505  21.347  0.00  0.00    +0.000 N 
ATOM      2  C   UNL     1       2.024   4.895  20.055  0.00  0.00    +0.000 C 
ATOM      3  N   UNL     1       1.831   4.077  19.068  0.00  0.00    +0.000 NA
ATOM      4  H   UNL     1       2.064   3.532  21.510  0.00  0.00    +0.000 HD
ATOM      5  H   UNL     1       1.904   5.105  22.066  0.00  0.00    +0.000 HD
ENDROOT
BRANCH   2   6
ATOM      6  C   UNL     1       1.903   6.358  19.760  0.00  0.00    +0.000 A 
ATOM      7  C   UNL     1       1.438   7.243  20.742  0.00  0.00    +0.000 A 
ATOM      8  C   UNL     1       1.315   8.607  20.453  0.00  0.00    +0.000 A 
ATOM      9  C   UNL     1       1.658   9.080  19.178  0.00  0.00    +0.000 A 
ATOM     10  C   UNL     1       2.144   8.202  18.198  0.00  0.00    +0.000 A 
ATOM     11  C   UNL     1       2.271   6.842  18.497  0.00  0.00    +0.000 A 
BRANCH   9  12
ATOM     12  N   UNL     1       1.498  10.504  18.863  0.00  0.00    +0.000 N 
ATOM     13  O   UNL     1       0.618  11.132  19.469  0.00  0.00    +0.000 OA
ATOM     14  O   UNL     1       2.243  10.993  18.002  0.00  0.00    +0.000 OA
ENDBRANCH   9  12
ENDBRANCH   2   6
BRANCH   3  15
ATOM     15  O   UNL     1       2.046   2.732  19.426  0.00  0.00    +0.000 OA
BRANCH  15  16
ATOM     16  C   UNL     1       3.247   2.322  18.901  0.00  0.00    +0.000 C 
ATOM     17  O   UNL     1       4.019   1.508  19.401  0.00  0.00    +0.000 OA
BRANCH  16  18
ATOM     18  C   UNL     1       3.482   2.975  17.559  0.00  0.00    +0.000 C 
BRANCH  18  19
ATOM     19  C   UNL     1       4.561   4.033  17.617  0.00  0.00    +0.000 A 
ATOM     20  C   UNL     1       5.328   4.209  18.778  0.00  0.00    +0.000 A 
ATOM     21  C   UNL     1       6.296   5.216  18.843  0.00  0.00    +0.000 A 
ATOM     22  C   UNL     1       6.503   6.051  17.738  0.00  0.00    +0.000 A 
ATOM     23  C   UNL     1       5.763   5.872  16.565  0.00  0.00    +0.000 A 
ATOM     24  C   UNL     1       4.803   4.860  16.507  0.00  0.00    +0.000 A 
BRANCH  22  25
ATOM     25  N   UNL     1       7.494   7.133  17.816  0.00  0.00    +0.000 N 
ATOM     26  O   UNL     1       7.420   8.041  16.978  0.00  0.00    +0.000 OA
ATOM     27  O   UNL     1       8.343   7.074  18.716  0.00  0.00    +0.000 OA
ENDBRANCH  22  25
ENDBRANCH  18  19
ENDBRANCH  16  18
ENDBRANCH  15  16
ENDBRANCH   3  15
TORSDOF 7
ENDMDL
MODEL 2
REMARK VINA RESULT:      -7.3      2.763      3.749
REMARK  Name = 
REMARK  7 active torsions:
REMARK  status: ('A' for Active; 'I' for Inactive)
REMARK    1  A    between atoms: C_2  and  C_17
REMARK    2  A    between atoms: N_3  and  O_4
REMARK    3  A    between atoms: O_4  and  C_5
REMARK    4  A    between atoms: C_5  and  C_7
REMARK    5  A    between atoms: C_7  and  C_8
REMARK    6  A    between atoms: C_11  and  N_12
REMARK    7  A    between atoms: C_20  and  N_21
REMARK                            x       y       z     vdW  Elec       q    Type
REMARK                         _______ _______ _______ _____ _____    ______ ____
ROOT
ATOM      1  N   UNL     1       2.134   8.319  19.058  0.00  0.00    +0.000 N 
ATOM      2  C   UNL     1       1.567   7.948  20.255  0.00  0.00    +0.000 C 
ATOM      3  N   UNL     1       1.733   6.792  20.818  0.00  0.00    +0.000 NA
ATOM      4  H   UNL     1       2.904   7.714  18.794  0.00  0.00    +0.000 HD
ATOM      5  H   UNL     1       2.393   9.298  18.992  0.00  0.00    +0.000 HD
ENDROOT
BRANCH   2   6
ATOM      6  C   UNL     1       0.725   8.946  20.988  0.00  0.00    +0.000 A 
ATOM      7  C   UNL     1       0.056   9.958  20.287  0.00  0.00    +0.000 A 
ATOM      8  C   UNL     1      -0.717  10.896  20.981  0.00  0.00    +0.000 A 
ATOM      9  C   UNL     1      -0.815  10.817  22.378  0.00  0.00    +0.000 A 
ATOM     10  C   UNL     1      -0.165   9.794  23.082  0.00  0.00    +0.000 A 
ATOM     11  C   UNL     1       0.599   8.856  22.381  0.00  0.00    +0.000 A 
BRANCH   9  12
ATOM     12  N   UNL     1      -1.598  11.820  23.111  0.00  0.00    +0.000 N 
ATOM     13  O   UNL     1      -1.036  12.884  23.408  0.00  0.00    +0.000 OA
ATOM     14  O   UNL     1      -2.771  11.541  23.398  0.00  0.00    +0.000 OA
ENDBRANCH   9  12
ENDBRANCH   2   6
BRANCH   3  15
ATOM     15  O   UNL     1       2.468   5.898  20.016  0.00  0.00    +0.000 OA
BRANCH  15  16
ATOM     16  C   UNL     1       1.626   4.910  19.570  0.00  0.00    +0.000 C 
ATOM     17  O   UNL     1       0.841   4.258  20.255  0.00  0.00    +0.000 OA
BRANCH  16  18
ATOM     18  C   UNL     1       1.745   4.756  18.071  0.00  0.00    +0.000 C 
BRANCH  18  19
ATOM     19  C   UNL     1       3.184   4.760  17.606  0.00  0.00    +0.000 A 
ATOM     20  C   UNL     1       3.864   5.969  17.396  0.00  0.00    +0.000 A 
ATOM     21  C   UNL     1       5.181   5.970  16.926  0.00  0.00    +0.000 A 
ATOM     22  C   UNL     1       5.825   4.753  16.667  0.00  0.00    +0.000 A 
ATOM     23  C   UNL     1       5.169   3.539  16.895  0.00  0.00    +0.000 A 
ATOM     24  C   UNL     1       3.856   3.548  17.370  0.00  0.00    +0.000 A 
BRANCH  22  25
ATOM     25  N   UNL     1       7.197   4.751  16.139  0.00  0.00    +0.000 N 
ATOM     26  O   UNL     1       7.386   5.268  15.030  0.00  0.00    +0.000 OA
ATOM     27  O   UNL     1       8.082   4.236  16.835  0.00  0.00    +0.000 OA
ENDBRANCH  22  25
ENDBRANCH  18  19
ENDBRANCH  16  18
ENDBRANCH  15  16
ENDBRANCH   3  15
TORSDOF 7
ENDMDL
MODEL 3
REMARK VINA RESULT:      -7.2      1.952      5.143
REMARK  Name = 
REMARK  7 active torsions:
REMARK  status: ('A' for Active; 'I' for Inactive)
REMARK    1  A    between atoms: C_2  and  C_17
REMARK    2  A    between atoms: N_3  and  O_4
REMARK    3  A    between atoms: O_4  and  C_5
REMARK    4  A    between atoms: C_5  and  C_7
REMARK    5  A    between atoms: C_7  and  C_8
REMARK    6  A    between atoms: C_11  and  N_12
REMARK    7  A    between atoms: C_20  and  N_21
REMARK                            x       y       z     vdW  Elec       q    Type
REMARK                         _______ _______ _______ _____ _____    ______ ____
ROOT
ATOM      1  N   UNL     1       3.616   1.202  18.331  0.00  0.00    +0.000 N 
ATOM      2  C   UNL     1       3.877   2.428  18.899  0.00  0.00    +0.000 C 
ATOM      3  N   UNL     1       3.427   2.812  20.053  0.00  0.00    +0.000 NA
ATOM      4  H   UNL     1       3.270   0.531  19.008  0.00  0.00    +0.000 HD
ATOM      5  H   UNL     1       4.376   0.814  17.781  0.00  0.00    +0.000 HD
ENDROOT
BRANCH   2   6
ATOM      6  C   UNL     1       4.768   3.381  18.165  0.00  0.00    +0.000 A 
ATOM      7  C   UNL     1       4.720   3.462  16.767  0.00  0.00    +0.000 A 
ATOM      8  C   UNL     1       5.566   4.346  16.088  0.00  0.00    +0.000 A 
ATOM      9  C   UNL     1       6.462   5.145  16.814  0.00  0.00    +0.000 A 
ATOM     10  C   UNL     1       6.499   5.083  18.214  0.00  0.00    +0.000 A 
ATOM     11  C   UNL     1       5.645   4.204  18.886  0.00  0.00    +0.000 A 
BRANCH   9  12
ATOM     12  N   UNL     1       7.374   6.048  16.101  0.00  0.00    +0.000 N 
ATOM     13  O   UNL     1       7.692   7.106  16.664  0.00  0.00    +0.000 OA
ATOM     14  O   UNL     1       7.764   5.705  14.976  0.00  0.00    +0.000 OA
ENDBRANCH   9  12
ENDBRANCH   2   6
BRANCH   3  15
ATOM     15  O   UNL     1       2.534   1.884  20.624  0.00  0.00    +0.000 OA
BRANCH  15  16
ATOM     16  C   UNL     1       1.542   2.570  21.279  0.00  0.00    +0.000 C 
ATOM     17  O   UNL     1       1.410   2.673  22.496  0.00  0.00    +0.000 OA
BRANCH  16  18
ATOM     18  C   UNL     1       0.634   3.254  20.284  0.00  0.00    +0.000 C 
BRANCH  18  19
ATOM     19  C   UNL     1       1.300   4.436  19.616  0.00  0.00    +0.000 A 
ATOM     20  C   UNL     1       1.836   5.482  20.382  0.00  0.00    +0.000 A 
ATOM     21  C   UNL     1       2.414   6.593  19.761  0.00  0.00    +0.000 A 
ATOM     22  C   UNL     1       2.460   6.659  18.362  0.00  0.00    +0.000 A 
ATOM     23  C   UNL     1       1.952   5.613  17.585  0.00  0.00    +0.000 A 
ATOM     24  C   UNL     1       1.383   4.504  18.214  0.00  0.00    +0.000 A 
BRANCH  22  25
ATOM     25  N   UNL     1       3.035   7.841  17.705  0.00  0.00    +0.000 N 
ATOM     26  O   UNL     1       4.231   7.799  17.390  0.00  0.00    +0.000 OA
ATOM     27  O   UNL     1       2.287   8.808  17.503  0.00  0.00    +0.000 OA
ENDBRANCH  22  25
ENDBRANCH  18  19
ENDBRANCH  16  18
ENDBRANCH  15  16
ENDBRANCH   3  15
TORSDOF 7
ENDMDL
MODEL 4
REMARK VINA RESULT:      -7.2      2.678      3.599
REMARK  Name = 
REMARK  7 active torsions:
REMARK  status: ('A' for Active; 'I' for Inactive)
REMARK    1  A    between atoms: C_2  and  C_17
REMARK    2  A    between atoms: N_3  and  O_4
REMARK    3  A    between atoms: O_4  and  C_5
REMARK    4  A    between atoms: C_5  and  C_7
REMARK    5  A    between atoms: C_7  and  C_8
REMARK    6  A    between atoms: C_11  and  N_12
REMARK    7  A    between atoms: C_20  and  N_21
REMARK                            x       y       z     vdW  Elec       q    Type
REMARK                         _______ _______ _______ _____ _____    ______ ____
ROOT
ATOM      1  N   UNL     1       2.176   8.284  18.816  0.00  0.00    +0.000 N 
ATOM      2  C   UNL     1       1.645   7.921  20.032  0.00  0.00    +0.000 C 
ATOM      3  N   UNL     1       1.792   6.754  20.577  0.00  0.00    +0.000 NA
ATOM      4  H   UNL     1       2.911   7.654  18.515  0.00  0.00    +0.000 HD
ATOM      5  H   UNL     1       2.469   9.254  18.748  0.00  0.00    +0.000 HD
ENDROOT
BRANCH   2   6
ATOM      6  C   UNL     1       0.873   8.942  20.809  0.00  0.00    +0.000 A 
ATOM      7  C   UNL     1       0.219   9.989  20.147  0.00  0.00    +0.000 A 
ATOM      8  C   UNL     1      -0.489  10.947  20.881  0.00  0.00    +0.000 A 
ATOM      9  C   UNL     1      -0.537  10.854  22.280  0.00  0.00    +0.000 A 
ATOM     10  C   UNL     1       0.099   9.796  22.946  0.00  0.00    +0.000 A 
ATOM     11  C   UNL     1       0.798   8.838  22.205  0.00  0.00    +0.000 A 
BRANCH   9  12
ATOM     12  N   UNL     1      -1.250  11.876  23.054  0.00  0.00    +0.000 N 
ATOM     13  O   UNL     1      -2.435  11.655  23.345  0.00  0.00    +0.000 OA
ATOM     14  O   UNL     1      -0.631  12.904  23.363  0.00  0.00    +0.000 OA
ENDBRANCH   9  12
ENDBRANCH   2   6
BRANCH   3  15
ATOM     15  O   UNL     1       2.459   5.841  19.736  0.00  0.00    +0.000 OA
BRANCH  15  16
ATOM     16  C   UNL     1       2.021   4.573  20.026  0.00  0.00    +0.000 C 
ATOM     17  O   UNL     1       0.861   4.236  20.248  0.00  0.00    +0.000 OA
BRANCH  16  18
ATOM     18  C   UNL     1       3.175   3.597  19.979  0.00  0.00    +0.000 C 
BRANCH  18  19
ATOM     19  C   UNL     1       4.141   3.904  18.858  0.00  0.00    +0.000 A 
ATOM     20  C   UNL     1       5.390   4.483  19.129  0.00  0.00    +0.000 A 
ATOM     21  C   UNL     1       6.265   4.804  18.086  0.00  0.00    +0.000 A 
ATOM     22  C   UNL     1       5.890   4.542  16.762  0.00  0.00    +0.000 A 
ATOM     23  C   UNL     1       4.659   3.943  16.477  0.00  0.00    +0.000 A 
ATOM     24  C   UNL     1       3.795   3.620  17.526  0.00  0.00    +0.000 A 
BRANCH  22  25
ATOM     25  N   UNL     1       6.791   4.911  15.661  0.00  0.00    +0.000 N 
ATOM     26  O   UNL     1       6.795   4.190  14.655  0.00  0.00    +0.000 OA
ATOM     27  O   UNL     1       7.491   5.924  15.804  0.00  0.00    +0.000 OA
ENDBRANCH  22  25
ENDBRANCH  18  19
ENDBRANCH  16  18
ENDBRANCH  15  16
ENDBRANCH   3  15
TORSDOF 7
ENDMDL
MODEL 5
REMARK VINA RESULT:      -7.2      2.350      6.027
REMARK  Name = 
REMARK  7 active torsions:
REMARK  status: ('A' for Active; 'I' for Inactive)
REMARK    1  A    between atoms: C_2  and  C_17
REMARK    2  A    between atoms: N_3  and  O_4
REMARK    3  A    between atoms: O_4  and  C_5
REMARK    4  A    between atoms: C_5  and  C_7
REMARK    5  A    between atoms: C_7  and  C_8
REMARK    6  A    between atoms: C_11  and  N_12
REMARK    7  A    between atoms: C_20  and  N_21
REMARK                            x       y       z     vdW  Elec       q    Type
REMARK                         _______ _______ _______ _____ _____    ______ ____
ROOT
ATOM      1  N   UNL     1       5.351   5.174  19.417  0.00  0.00    +0.000 N 
ATOM      2  C   UNL     1       5.131   4.234  18.436  0.00  0.00    +0.000 C 
ATOM      3  N   UNL     1       4.364   3.197  18.573  0.00  0.00    +0.000 NA
ATOM      4  H   UNL     1       4.656   5.130  20.153  0.00  0.00    +0.000 HD
ATOM      5  H   UNL     1       5.475   6.123  19.080  0.00  0.00    +0.000 HD
ENDROOT
BRANCH   2   6
ATOM      6  C   UNL     1       5.784   4.425  17.102  0.00  0.00    +0.000 A 
ATOM      7  C   UNL     1       6.945   5.201  16.987  0.00  0.00    +0.000 A 
ATOM      8  C   UNL     1       7.541   5.387  15.735  0.00  0.00    +0.000 A 
ATOM      9  C   UNL     1       6.969   4.795  14.599  0.00  0.00    +0.000 A 
ATOM     10  C   UNL     1       5.819   4.000  14.712  0.00  0.00    +0.000 A 
ATOM     11  C   UNL     1       5.234   3.813  15.968  0.00  0.00    +0.000 A 
BRANCH   9  12
ATOM     12  N   UNL     1       7.574   5.016  13.280  0.00  0.00    +0.000 N 
ATOM     13  O   UNL     1       8.515   5.819  13.206  0.00  0.00    +0.000 OA
ATOM     14  O   UNL     1       7.102   4.396  12.317  0.00  0.00    +0.000 OA
ENDBRANCH   9  12
ENDBRANCH   2   6
BRANCH   3  15
ATOM     15  O   UNL     1       3.864   3.060  19.883  0.00  0.00    +0.000 OA
BRANCH  15  16
ATOM     16  C   UNL     1       2.512   2.834  19.818  0.00  0.00    +0.000 C 
ATOM     17  O   UNL     1       1.955   1.916  19.221  0.00  0.00    +0.000 OA
BRANCH  16  18
ATOM     18  C   UNL     1       1.769   3.857  20.647  0.00  0.00    +0.000 C 
BRANCH  18  19
ATOM     19  C   UNL     1       1.844   5.244  20.049  0.00  0.00    +0.000 A 
ATOM     20  C   UNL     1       1.754   6.380  20.867  0.00  0.00    +0.000 A 
ATOM     21  C   UNL     1       1.781   7.661  20.307  0.00  0.00    +0.000 A 
ATOM     22  C   UNL     1       1.904   7.809  18.919  0.00  0.00    +0.000 A 
ATOM     23  C   UNL     1       2.019   6.686  18.093  0.00  0.00    +0.000 A 
ATOM     24  C   UNL     1       1.997   5.411  18.662  0.00  0.00    +0.000 A 
BRANCH  22  25
ATOM     25  N   UNL     1       1.897   9.153  18.325  0.00  0.00    +0.000 N 
ATOM     26  O   UNL     1       1.331  10.056  18.953  0.00  0.00    +0.000 OA
ATOM     27  O   UNL     1       2.460   9.302  17.232  0.00  0.00    +0.000 OA
ENDBRANCH  22  25
ENDBRANCH  18  19
ENDBRANCH  16  18
ENDBRANCH  15  16
ENDBRANCH   3  15
TORSDOF 7
ENDMDL
MODEL 6
REMARK VINA RESULT:      -7.2      1.940      5.251
REMARK  Name = 
REMARK  7 active torsions:
REMARK  status: ('A' for Active; 'I' for Inactive)
REMARK    1  A    between atoms: C_2  and  C_17
REMARK    2  A    between atoms: N_3  and  O_4
REMARK    3  A    between atoms: O_4  and  C_5
REMARK    4  A    between atoms: C_5  and  C_7
REMARK    5  A    between atoms: C_7  and  C_8
REMARK    6  A    between atoms: C_11  and  N_12
REMARK    7  A    between atoms: C_20  and  N_21
REMARK                            x       y       z     vdW  Elec       q    Type
REMARK                         _______ _______ _______ _____ _____    ______ ____
ROOT
ATOM      1  N   UNL     1       2.742   1.643  17.777  0.00  0.00    +0.000 N 
ATOM      2  C   UNL     1       3.526   2.476  18.542  0.00  0.00    +0.000 C 
ATOM      3  N   UNL     1       3.491   2.531  19.837  0.00  0.00    +0.000 NA
ATOM      4  H   UNL     1       2.336   0.891  18.322  0.00  0.00    +0.000 HD
ATOM      5  H   UNL     1       3.187   1.292  16.934  0.00  0.00    +0.000 HD
ENDROOT
BRANCH   2   6
ATOM      6  C   UNL     1       4.517   3.361  17.851  0.00  0.00    +0.000 A 
ATOM      7  C   UNL     1       4.551   3.428  16.451  0.00  0.00    +0.000 A 
ATOM      8  C   UNL     1       5.489   4.246  15.812  0.00  0.00    +0.000 A 
ATOM      9  C   UNL     1       6.394   4.994  16.580  0.00  0.00    +0.000 A 
ATOM     10  C   UNL     1       6.350   4.947  17.980  0.00  0.00    +0.000 A 
ATOM     11  C   UNL     1       5.405   4.133  18.612  0.00  0.00    +0.000 A 
BRANCH   9  12
ATOM     12  N   UNL     1       7.401   5.827  15.911  0.00  0.00    +0.000 N 
ATOM     13  O   UNL     1       7.779   6.853  16.496  0.00  0.00    +0.000 OA
ATOM     14  O   UNL     1       7.806   5.462  14.798  0.00  0.00    +0.000 OA
ENDBRANCH   9  12
ENDBRANCH   2   6
BRANCH   3  15
ATOM     15  O   UNL     1       2.474   1.727  20.387  0.00  0.00    +0.000 OA
BRANCH  15  16
ATOM     16  C   UNL     1       1.671   2.511  21.179  0.00  0.00    +0.000 C 
ATOM     17  O   UNL     1       1.760   2.646  22.397  0.00  0.00    +0.000 OA
BRANCH  16  18
ATOM     18  C   UNL     1       0.666   3.256  20.332  0.00  0.00    +0.000 C 
BRANCH  18  19
ATOM     19  C   UNL     1       1.261   4.485  19.683  0.00  0.00    +0.000 A 
ATOM     20  C   UNL     1       1.248   4.634  18.288  0.00  0.00    +0.000 A 
ATOM     21  C   UNL     1       1.837   5.752  17.688  0.00  0.00    +0.000 A 
ATOM     22  C   UNL     1       2.440   6.731  18.489  0.00  0.00    +0.000 A 
ATOM     23  C   UNL     1       2.439   6.608  19.882  0.00  0.00    +0.000 A 
ATOM     24  C   UNL     1       1.843   5.492  20.472  0.00  0.00    +0.000 A 
BRANCH  22  25
ATOM     25  N   UNL     1       3.090   7.889  17.860  0.00  0.00    +0.000 N 
ATOM     26  O   UNL     1       2.455   8.950  17.814  0.00  0.00    +0.000 OA
ATOM     27  O   UNL     1       4.237   7.735  17.417  0.00  0.00    +0.000 OA
ENDBRANCH  22  25
ENDBRANCH  18  19
ENDBRANCH  16  18
ENDBRANCH  15  16
ENDBRANCH   3  15
TORSDOF 7
ENDMDL
MODEL 7
REMARK VINA RESULT:      -7.1      0.271      1.182
REMARK  Name = 
REMARK  7 active torsions:
REMARK  status: ('A' for Active; 'I' for Inactive)
REMARK    1  A    between atoms: C_2  and  C_17
REMARK    2  A    between atoms: N_3  and  O_4
REMARK    3  A    between atoms: O_4  and  C_5
REMARK    4  A    between atoms: C_5  and  C_7
REMARK    5  A    between atoms: C_7  and  C_8
REMARK    6  A    between atoms: C_11  and  N_12
REMARK    7  A    between atoms: C_20  and  N_21
REMARK                            x       y       z     vdW  Elec       q    Type
REMARK                         _______ _______ _______ _____ _____    ______ ____
ROOT
ATOM      1  N   UNL     1       2.270   4.347  21.417  0.00  0.00    +0.000 N 
ATOM      2  C   UNL     1       2.048   4.798  20.137  0.00  0.00    +0.000 C 
ATOM      3  N   UNL     1       1.945   4.031  19.096  0.00  0.00    +0.000 NA
ATOM      4  H   UNL     1       2.077   3.356  21.514  0.00  0.00    +0.000 HD
ATOM      5  H   UNL     1       1.815   4.886  22.147  0.00  0.00    +0.000 HD
ENDROOT
BRANCH   2   6
ATOM      6  C   UNL     1       1.875   6.269  19.916  0.00  0.00    +0.000 A 
ATOM      7  C   UNL     1       1.284   7.068  20.904  0.00  0.00    +0.000 A 
ATOM      8  C   UNL     1       1.114   8.439  20.685  0.00  0.00    +0.000 A 
ATOM      9  C   UNL     1       1.534   9.006  19.472  0.00  0.00    +0.000 A 
ATOM     10  C   UNL     1       2.145   8.215  18.490  0.00  0.00    +0.000 A 
ATOM     11  C   UNL     1       2.319   6.847  18.719  0.00  0.00    +0.000 A 
BRANCH   9  12
ATOM     12  N   UNL     1       1.325  10.438  19.227  0.00  0.00    +0.000 N 
ATOM     13  O   UNL     1       0.771  11.099  20.117  0.00  0.00    +0.000 OA
ATOM     14  O   UNL     1       1.705  10.900  18.141  0.00  0.00    +0.000 OA
ENDBRANCH   9  12
ENDBRANCH   2   6
BRANCH   3  15
ATOM     15  O   UNL     1       2.204   2.678  19.391  0.00  0.00    +0.000 OA
BRANCH  15  16
ATOM     16  C   UNL     1       3.371   2.306  18.771  0.00  0.00    +0.000 C 
ATOM     17  O   UNL     1       4.160   1.449  19.160  0.00  0.00    +0.000 OA
BRANCH  16  18
ATOM     18  C   UNL     1       3.544   3.070  17.478  0.00  0.00    +0.000 C 
BRANCH  18  19
ATOM     19  C   UNL     1       4.576   4.168  17.594  0.00  0.00    +0.000 A 
ATOM     20  C   UNL     1       4.818   5.038  16.520  0.00  0.00    +0.000 A 
ATOM     21  C   UNL     1       5.803   6.026  16.614  0.00  0.00    +0.000 A 
ATOM     22  C   UNL     1       6.550   6.149  17.792  0.00  0.00    +0.000 A 
ATOM     23  C   UNL     1       6.305   5.306  18.880  0.00  0.00    +0.000 A 
ATOM     24  C   UNL     1       5.315   4.326  18.779  0.00  0.00    +0.000 A 
BRANCH  22  25
ATOM     25  N   UNL     1       7.610   7.163  17.882  0.00  0.00    +0.000 N 
ATOM     26  O   UNL     1       8.420   7.066  18.813  0.00  0.00    +0.000 OA
ATOM     27  O   UNL     1       7.632   8.052  17.020  0.00  0.00    +0.000 OA
ENDBRANCH  22  25
ENDBRANCH  18  19
ENDBRANCH  16  18
ENDBRANCH  15  16
ENDBRANCH   3  15
TORSDOF 7
ENDMDL
MODEL 8
REMARK VINA RESULT:      -7.1      1.290      1.609
REMARK  Name = 
REMARK  7 active torsions:
REMARK  status: ('A' for Active; 'I' for Inactive)
REMARK    1  A    between atoms: C_2  and  C_17
REMARK    2  A    between atoms: N_3  and  O_4
REMARK    3  A    between atoms: O_4  and  C_5
REMARK    4  A    between atoms: C_5  and  C_7
REMARK    5  A    between atoms: C_7  and  C_8
REMARK    6  A    between atoms: C_11  and  N_12
REMARK    7  A    between atoms: C_20  and  N_21
REMARK                            x       y       z     vdW  Elec       q    Type
REMARK                         _______ _______ _______ _____ _____    ______ ____
ROOT
ATOM      1  N   UNL     1       2.764   4.773  21.556  0.00  0.00    +0.000 N 
ATOM      2  C   UNL     1       1.820   5.170  20.638  0.00  0.00    +0.000 C 
ATOM      3  N   UNL     1       1.031   4.361  20.001  0.00  0.00    +0.000 NA
ATOM      4  H   UNL     1       2.604   3.829  21.888  0.00  0.00    +0.000 HD
ATOM      5  H   UNL     1       2.909   5.417  22.328  0.00  0.00    +0.000 HD
ENDROOT
BRANCH   2   6
ATOM      6  C   UNL     1       1.653   6.634  20.370  0.00  0.00    +0.000 A 
ATOM      7  C   UNL     1       0.994   7.453  21.297  0.00  0.00    +0.000 A 
ATOM      8  C   UNL     1       0.830   8.817  21.032  0.00  0.00    +0.000 A 
ATOM      9  C   UNL     1       1.325   9.356  19.836  0.00  0.00    +0.000 A 
ATOM     10  C   UNL     1       2.003   8.546  18.915  0.00  0.00    +0.000 A 
ATOM     11  C   UNL     1       2.170   7.185  19.190  0.00  0.00    +0.000 A 
BRANCH   9  12
ATOM     12  N   UNL     1       1.123  10.780  19.541  0.00  0.00    +0.000 N 
ATOM     13  O   UNL     1       1.000  11.110  18.353  0.00  0.00    +0.000 OA
ATOM     14  O   UNL     1       1.099  11.570  20.496  0.00  0.00    +0.000 OA
ENDBRANCH   9  12
ENDBRANCH   2   6
BRANCH   3  15
ATOM     15  O   UNL     1       1.320   3.007  20.258  0.00  0.00    +0.000 OA
BRANCH  15  16
ATOM     16  C   UNL     1       1.535   2.367  19.062  0.00  0.00    +0.000 C 
ATOM     17  O   UNL     1       0.709   2.199  18.168  0.00  0.00    +0.000 OA
BRANCH  16  18
ATOM     18  C   UNL     1       2.977   1.929  18.953  0.00  0.00    +0.000 C 
BRANCH  18  19
ATOM     19  C   UNL     1       3.871   3.026  18.420  0.00  0.00    +0.000 A 
ATOM     20  C   UNL     1       4.896   3.562  19.214  0.00  0.00    +0.000 A 
ATOM     21  C   UNL     1       5.694   4.605  18.734  0.00  0.00    +0.000 A 
ATOM     22  C   UNL     1       5.469   5.114  17.448  0.00  0.00    +0.000 A 
ATOM     23  C   UNL     1       4.467   4.574  16.636  0.00  0.00    +0.000 A 
ATOM     24  C   UNL     1       3.679   3.529  17.122  0.00  0.00    +0.000 A 
BRANCH  22  25
ATOM     25  N   UNL     1       6.282   6.234  16.954  0.00  0.00    +0.000 N 
ATOM     26  O   UNL     1       7.265   5.964  16.252  0.00  0.00    +0.000 OA
ATOM     27  O   UNL     1       5.934   7.381  17.266  0.00  0.00    +0.000 OA
ENDBRANCH  22  25
ENDBRANCH  18  19
ENDBRANCH  16  18
ENDBRANCH  15  16
ENDBRANCH   3  15
TORSDOF 7
ENDMDL
MODEL 9
REMARK VINA RESULT:      -7.1      2.118      2.754
REMARK  Name = 
REMARK  7 active torsions:
REMARK  status: ('A' for Active; 'I' for Inactive)
REMARK    1  A    between atoms: C_2  and  C_17
REMARK    2  A    between atoms: N_3  and  O_4
REMARK    3  A    between atoms: O_4  and  C_5
REMARK    4  A    between atoms: C_5  and  C_7
REMARK    5  A    between atoms: C_7  and  C_8
REMARK    6  A    between atoms: C_11  and  N_12
REMARK    7  A    between atoms: C_20  and  N_21
REMARK                            x       y       z     vdW  Elec       q    Type
REMARK                         _______ _______ _______ _____ _____    ______ ____
ROOT
ATOM      1  N   UNL     1       1.846   5.576  21.130  0.00  0.00    +0.000 N 
ATOM      2  C   UNL     1       2.216   6.050  19.893  0.00  0.00    +0.000 C 
ATOM      3  N   UNL     1       2.789   5.335  18.975  0.00  0.00    +0.000 NA
ATOM      4  H   UNL     1       1.813   4.563  21.159  0.00  0.00    +0.000 HD
ATOM      5  H   UNL     1       0.997   5.985  21.509  0.00  0.00    +0.000 HD
ENDROOT
BRANCH   2   6
ATOM      6  C   UNL     1       1.913   7.476  19.553  0.00  0.00    +0.000 A 
ATOM      7  C   UNL     1       2.243   7.989  18.291  0.00  0.00    +0.000 A 
ATOM      8  C   UNL     1       1.970   9.326  17.985  0.00  0.00    +0.000 A 
ATOM      9  C   UNL     1       1.367  10.149  18.949  0.00  0.00    +0.000 A 
ATOM     10  C   UNL     1       1.016   9.635  20.205  0.00  0.00    +0.000 A 
ATOM     11  C   UNL     1       1.285   8.296  20.500  0.00  0.00    +0.000 A 
BRANCH   9  12
ATOM     12  N   UNL     1       1.110  11.561  18.643  0.00  0.00    +0.000 N 
ATOM     13  O   UNL     1      -0.061  11.961  18.711  0.00  0.00    +0.000 OA
ATOM     14  O   UNL     1       2.076  12.268  18.323  0.00  0.00    +0.000 OA
ENDBRANCH   9  12
ENDBRANCH   2   6
BRANCH   3  15
ATOM     15  O   UNL     1       3.107   4.036  19.418  0.00  0.00    +0.000 OA
BRANCH  15  16
ATOM     16  C   UNL     1       4.469   3.873  19.369  0.00  0.00    +0.000 C 
ATOM     17  O   UNL     1       5.083   2.824  19.545  0.00  0.00    +0.000 OA
BRANCH  16  18
ATOM     18  C   UNL     1       5.140   5.178  19.004  0.00  0.00    +0.000 C 
BRANCH  18  19
ATOM     19  C   UNL     1       5.714   5.156  17.605  0.00  0.00    +0.000 A 
ATOM     20  C   UNL     1       4.968   5.636  16.519  0.00  0.00    +0.000 A 
ATOM     21  C   UNL     1       5.485   5.576  15.221  0.00  0.00    +0.000 A 
ATOM     22  C   UNL     1       6.759   5.034  15.006  0.00  0.00    +0.000 A 
ATOM     23  C   UNL     1       7.524   4.573  16.082  0.00  0.00    +0.000 A 
ATOM     24  C   UNL     1       7.002   4.643  17.375  0.00  0.00    +0.000 A 
BRANCH  22  25
ATOM     25  N   UNL     1       7.290   4.936  13.640  0.00  0.00    +0.000 N 
ATOM     26  O   UNL     1       6.744   4.138  12.867  0.00  0.00    +0.000 OA
ATOM     27  O   UNL     1       8.250   5.659  13.341  0.00  0.00    +0.000 OA
ENDBRANCH  22  25
ENDBRANCH  18  19
ENDBRANCH  16  18
ENDBRANCH  15  16
ENDBRANCH   3  15
TORSDOF 7
ENDMDL
