MODEL 1
REMARK VINA RESULT:      -8.2      0.000      0.000
REMARK  Name = 
REMARK  3 active torsions:
REMARK  status: ('A' for Active; 'I' for Inactive)
REMARK    1  A    between atoms: N_3  and  C_4
REMARK    2  A    between atoms: C_16  and  N_17
REMARK    3  A    between atoms: C_22  and  N_23
REMARK                            x       y       z     vdW  Elec       q    Type
REMARK                         _______ _______ _______ _____ _____    ______ ____
ROOT
ATOM      1  O   UNL     1       0.595  15.879  18.875  0.00  0.00    +0.000 OA
ATOM      2  C   UNL     1       0.634  14.649  18.932  0.00  0.00    +0.000 C 
ATOM      3  N   UNL     1       1.704  13.898  19.338  0.00  0.00    +0.000 N 
ATOM      4  N   UNL     1      -0.472  13.969  18.505  0.00  0.00    +0.000 N 
ATOM      5  C   UNL     1      -0.724  12.596  18.535  0.00  0.00    +0.000 A 
ATOM      6  C   UNL     1      -1.922  12.130  18.021  0.00  0.00    +0.000 A 
ATOM      7  C   UNL     1      -2.182  10.764  18.092  0.00  0.00    +0.000 A 
ATOM      8  C   UNL     1      -1.242   9.914  18.675  0.00  0.00    +0.000 A 
ATOM      9  C   UNL     1      -0.066  10.454  19.184  0.00  0.00    +0.000 A 
ATOM     10  N   UNL     1       0.189  11.776  19.090  0.00  0.00    +0.000 NA
ATOM     11  H   UNL     1       1.581  12.896  19.212  0.00  0.00    +0.000 HD
ATOM     12  H   UNL     1      -1.190  14.582  18.150  0.00  0.00    +0.000 HD
ENDROOT
BRANCH   9  13
ATOM     13  N   UNL     1       0.853   9.629  19.854  0.00  0.00    +0.000 N 
ATOM     14  C   UNL     1       1.647   8.641  19.234  0.00  0.00    +0.000 A 
ATOM     15  C   UNL     1       2.211   8.902  17.987  0.00  0.00    +0.000 A 
ATOM     16  C   UNL     1       2.987   7.938  17.376  0.00  0.00    +0.000 A 
ATOM     17  C   UNL     1       3.213   6.749  18.048  0.00  0.00    +0.000 A 
ATOM     18  C   UNL     1       2.669   6.537  19.319  0.00  0.00    +0.000 A 
ATOM     19  N   UNL     1       1.875   7.478  19.893  0.00  0.00    +0.000 NA
ATOM     20  H   UNL     1       0.512   9.283  20.739  0.00  0.00    +0.000 HD
BRANCH  18  21
ATOM     21  N   UNL     1       2.925   5.351  19.984  0.00  0.00    +0.000 N 
ATOM     22  C   UNL     1       4.052   4.512  19.594  0.00  0.00    +0.000 C 
ATOM     23  C   UNL     1       3.568   3.125  19.174  0.00  0.00    +0.000 C 
ATOM     24  C   UNL     1       2.652   2.503  20.228  0.00  0.00    +0.000 C 
ATOM     25  C   UNL     1       1.504   3.446  20.574  0.00  0.00    +0.000 C 
ATOM     26  C   UNL     1       2.020   4.820  21.001  0.00  0.00    +0.000 C 
ENDBRANCH  18  21
ENDBRANCH   9  13
BRANCH   3  27
ATOM     27  C   UNL     1       2.971  14.349  19.743  0.00  0.00    +0.000 A 
ATOM     28  C   UNL     1       3.903  14.903  18.865  0.00  0.00    +0.000 A 
ATOM     29  C   UNL     1       5.178  15.258  19.315  0.00  0.00    +0.000 A 
ATOM     30  C   UNL     1       5.522  15.059  20.648  0.00  0.00    +0.000 A 
ATOM     31 CL   UNL     1       7.113  15.431  21.183  0.00  0.00    +0.000 Cl
ATOM     32  C   UNL     1       4.588  14.549  21.546  0.00  0.00    +0.000 A 
ATOM     33  C   UNL     1       3.308  14.208  21.096  0.00  0.00    +0.000 A 
ENDBRANCH   3  27
TORSDOF 3
ENDMDL
MODEL 2
REMARK VINA RESULT:      -8.2      4.509      6.195
REMARK  Name = 
REMARK  3 active torsions:
REMARK  status: ('A' for Active; 'I' for Inactive)
REMARK    1  A    between atoms: N_3  and  C_4
REMARK    2  A    between atoms: C_16  and  N_17
REMARK    3  A    between atoms: C_22  and  N_23
REMARK                            x       y       z     vdW  Elec       q    Type
REMARK                         _______ _______ _______ _____ _____    ______ ____
ROOT
ATOM      1  O   UNL     1      -2.979  12.512  19.810  0.00  0.00    +0.000 OA
ATOM      2  C   UNL     1      -2.167  11.587  19.875  0.00  0.00    +0.000 C 
ATOM      3  N   UNL     1      -1.869  10.708  18.869  0.00  0.00    +0.000 N 
ATOM      4  N   UNL     1      -1.542  11.388  21.075  0.00  0.00    +0.000 N 
ATOM      5  C   UNL     1      -0.534  10.479  21.399  0.00  0.00    +0.000 A 
ATOM      6  C   UNL     1      -0.064  10.445  22.701  0.00  0.00    +0.000 A 
ATOM      7  C   UNL     1       0.968   9.562  23.006  0.00  0.00    +0.000 A 
ATOM      8  C   UNL     1       1.498   8.750  22.003  0.00  0.00    +0.000 A 
ATOM      9  C   UNL     1       0.987   8.848  20.714  0.00  0.00    +0.000 A 
ATOM     10  N   UNL     1      -0.031   9.688  20.431  0.00  0.00    +0.000 NA
ATOM     11  H   UNL     1      -1.253   9.948  19.149  0.00  0.00    +0.000 HD
ATOM     12  H   UNL     1      -1.865  12.023  21.789  0.00  0.00    +0.000 HD
ENDROOT
BRANCH   9  13
ATOM     13  N   UNL     1       1.565   8.104  19.671  0.00  0.00    +0.000 N 
ATOM     14  C   UNL     1       2.137   6.822  19.819  0.00  0.00    +0.000 A 
ATOM     15  C   UNL     1       1.519   5.891  20.651  0.00  0.00    +0.000 A 
ATOM     16  C   UNL     1       2.075   4.637  20.800  0.00  0.00    +0.000 A 
ATOM     17  C   UNL     1       3.217   4.332  20.078  0.00  0.00    +0.000 A 
ATOM     18  C   UNL     1       3.786   5.274  19.216  0.00  0.00    +0.000 A 
ATOM     19  N   UNL     1       3.251   6.519  19.108  0.00  0.00    +0.000 NA
ATOM     20  H   UNL     1       2.135   8.659  19.049  0.00  0.00    +0.000 HD
BRANCH  18  21
ATOM     21  N   UNL     1       4.914   4.942  18.487  0.00  0.00    +0.000 N 
ATOM     22  C   UNL     1       6.228   5.422  18.897  0.00  0.00    +0.000 C 
ATOM     23  C   UNL     1       6.861   6.263  17.790  0.00  0.00    +0.000 C 
ATOM     24  C   UNL     1       6.845   5.534  16.446  0.00  0.00    +0.000 C 
ATOM     25  C   UNL     1       5.435   5.070  16.098  0.00  0.00    +0.000 C 
ATOM     26  C   UNL     1       4.833   4.221  17.219  0.00  0.00    +0.000 C 
ENDBRANCH  18  21
ENDBRANCH   9  13
BRANCH   3  27
ATOM     27  C   UNL     1      -2.427  10.649  17.581  0.00  0.00    +0.000 A 
ATOM     28  C   UNL     1      -3.556  11.376  17.203  0.00  0.00    +0.000 A 
ATOM     29  C   UNL     1      -4.111  11.211  15.931  0.00  0.00    +0.000 A 
ATOM     30  C   UNL     1      -3.535  10.318  15.033  0.00  0.00    +0.000 A 
ATOM     31 CL   UNL     1      -4.260  10.065  13.495  0.00  0.00    +0.000 Cl
ATOM     32  C   UNL     1      -2.381   9.620  15.381  0.00  0.00    +0.000 A 
ATOM     33  C   UNL     1      -1.819   9.797  16.650  0.00  0.00    +0.000 A 
ENDBRANCH   3  27
TORSDOF 3
ENDMDL
MODEL 3
REMARK VINA RESULT:      -7.7      2.295      2.612
REMARK  Name = 
REMARK  3 active torsions:
REMARK  status: ('A' for Active; 'I' for Inactive)
REMARK    1  A    between atoms: N_3  and  C_4
REMARK    2  A    between atoms: C_16  and  N_17
REMARK    3  A    between atoms: C_22  and  N_23
REMARK                            x       y       z     vdW  Elec       q    Type
REMARK                         _______ _______ _______ _____ _____    ______ ____
ROOT
ATOM      1  O   UNL     1       0.805  15.847  21.564  0.00  0.00    +0.000 OA
ATOM      2  C   UNL     1       0.809  14.615  21.522  0.00  0.00    +0.000 C 
ATOM      3  N   UNL     1       1.726  13.836  20.872  0.00  0.00    +0.000 N 
ATOM      4  N   UNL     1      -0.226  13.967  22.139  0.00  0.00    +0.000 N 
ATOM      5  C   UNL     1      -0.423  12.596  22.312  0.00  0.00    +0.000 A 
ATOM      6  C   UNL     1      -1.569  12.167  22.960  0.00  0.00    +0.000 A 
ATOM      7  C   UNL     1      -1.739  10.801  23.163  0.00  0.00    +0.000 A 
ATOM      8  C   UNL     1      -0.759   9.912  22.718  0.00  0.00    +0.000 A 
ATOM      9  C   UNL     1       0.374  10.414  22.089  0.00  0.00    +0.000 A 
ATOM     10  N   UNL     1       0.519  11.739  21.873  0.00  0.00    +0.000 NA
ATOM     11  H   UNL     1       1.499  12.845  20.862  0.00  0.00    +0.000 HD
ATOM     12  H   UNL     1      -0.902  14.604  22.531  0.00  0.00    +0.000 HD
ENDROOT
BRANCH   9  13
ATOM     13  N   UNL     1       1.412   9.546  21.713  0.00  0.00    +0.000 N 
ATOM     14  C   UNL     1       1.586   9.014  20.417  0.00  0.00    +0.000 A 
ATOM     15  C   UNL     1       1.352   9.827  19.309  0.00  0.00    +0.000 A 
ATOM     16  C   UNL     1       1.520   9.311  18.041  0.00  0.00    +0.000 A 
ATOM     17  C   UNL     1       1.958   8.003  17.912  0.00  0.00    +0.000 A 
ATOM     18  C   UNL     1       2.227   7.230  19.045  0.00  0.00    +0.000 A 
ATOM     19  N   UNL     1       2.022   7.737  20.289  0.00  0.00    +0.000 NA
ATOM     20  H   UNL     1       1.608   8.832  22.401  0.00  0.00    +0.000 HD
BRANCH  18  21
ATOM     21  N   UNL     1       2.686   5.933  18.895  0.00  0.00    +0.000 N 
ATOM     22  C   UNL     1       4.080   5.676  18.558  0.00  0.00    +0.000 C 
ATOM     23  C   UNL     1       4.180   4.905  17.243  0.00  0.00    +0.000 C 
ATOM     24  C   UNL     1       3.290   3.662  17.247  0.00  0.00    +0.000 C 
ATOM     25  C   UNL     1       1.854   4.024  17.608  0.00  0.00    +0.000 C 
ATOM     26  C   UNL     1       1.786   4.783  18.933  0.00  0.00    +0.000 C 
ENDBRANCH  18  21
ENDBRANCH   9  13
BRANCH   3  27
ATOM     27  C   UNL     1       2.826  14.256  20.104  0.00  0.00    +0.000 A 
ATOM     28  C   UNL     1       2.798  14.340  18.712  0.00  0.00    +0.000 A 
ATOM     29  C   UNL     1       3.950  14.687  18.000  0.00  0.00    +0.000 A 
ATOM     30  C   UNL     1       5.133  14.951  18.682  0.00  0.00    +0.000 A 
ATOM     31 CL   UNL     1       6.566  15.309  17.800  0.00  0.00    +0.000 Cl
ATOM     32  C   UNL     1       5.164  14.916  20.074  0.00  0.00    +0.000 A 
ATOM     33  C   UNL     1       4.006  14.583  20.785  0.00  0.00    +0.000 A 
ENDBRANCH   3  27
TORSDOF 3
ENDMDL
MODEL 4
REMARK VINA RESULT:      -7.6      1.118      1.227
REMARK  Name = 
REMARK  3 active torsions:
REMARK  status: ('A' for Active; 'I' for Inactive)
REMARK    1  A    between atoms: N_3  and  C_4
REMARK    2  A    between atoms: C_16  and  N_17
REMARK    3  A    between atoms: C_22  and  N_23
REMARK                            x       y       z     vdW  Elec       q    Type
REMARK                         _______ _______ _______ _____ _____    ______ ____
ROOT
ATOM      1  O   UNL     1       1.499  16.499  18.982  0.00  0.00    +0.000 OA
ATOM      2  C   UNL     1       1.358  15.285  19.140  0.00  0.00    +0.000 C 
ATOM      3  N   UNL     1       2.365  14.364  19.233  0.00  0.00    +0.000 N 
ATOM      4  N   UNL     1       0.077  14.805  19.175  0.00  0.00    +0.000 N 
ATOM      5  C   UNL     1      -0.366  13.505  19.420  0.00  0.00    +0.000 A 
ATOM      6  C   UNL     1      -1.726  13.249  19.385  0.00  0.00    +0.000 A 
ATOM      7  C   UNL     1      -2.162  11.958  19.669  0.00  0.00    +0.000 A 
ATOM      8  C   UNL     1      -1.227  10.970  19.981  0.00  0.00    +0.000 A 
ATOM      9  C   UNL     1       0.122  11.301  20.013  0.00  0.00    +0.000 A 
ATOM     10  N   UNL     1       0.538  12.550  19.712  0.00  0.00    +0.000 NA
ATOM     11  H   UNL     1       2.047  13.398  19.252  0.00  0.00    +0.000 HD
ATOM     12  H   UNL     1      -0.610  15.528  19.026  0.00  0.00    +0.000 HD
ENDROOT
BRANCH   9  13
ATOM     13  N   UNL     1       1.071  10.345  20.411  0.00  0.00    +0.000 N 
ATOM     14  C   UNL     1       1.536   9.287  19.600  0.00  0.00    +0.000 A 
ATOM     15  C   UNL     1       1.777   9.520  18.247  0.00  0.00    +0.000 A 
ATOM     16  C   UNL     1       2.230   8.489  17.451  0.00  0.00    +0.000 A 
ATOM     17  C   UNL     1       2.470   7.257  18.038  0.00  0.00    +0.000 A 
ATOM     18  C   UNL     1       2.261   7.071  19.407  0.00  0.00    +0.000 A 
ATOM     19  N   UNL     1       1.778   8.083  20.174  0.00  0.00    +0.000 NA
ATOM     20  H   UNL     1       0.935  10.013  21.355  0.00  0.00    +0.000 HD
BRANCH  18  21
ATOM     21  N   UNL     1       2.528   5.839  19.979  0.00  0.00    +0.000 N 
ATOM     22  C   UNL     1       3.750   5.118  19.645  0.00  0.00    +0.000 C 
ATOM     23  C   UNL     1       3.420   3.755  19.038  0.00  0.00    +0.000 C 
ATOM     24  C   UNL     1       2.440   2.970  19.910  0.00  0.00    +0.000 C 
ATOM     25  C   UNL     1       1.195   3.798  20.208  0.00  0.00    +0.000 C 
ATOM     26  C   UNL     1       1.557   5.149  20.825  0.00  0.00    +0.000 C 
ENDBRANCH  18  21
ENDBRANCH   9  13
BRANCH   3  27
ATOM     27  C   UNL     1       3.750  14.587  19.145  0.00  0.00    +0.000 A 
ATOM     28  C   UNL     1       4.461  14.516  17.946  0.00  0.00    +0.000 A 
ATOM     29  C   UNL     1       5.850  14.668  17.937  0.00  0.00    +0.000 A 
ATOM     30  C   UNL     1       6.531  14.893  19.129  0.00  0.00    +0.000 A 
ATOM     31 CL   UNL     1       8.247  15.011  19.124  0.00  0.00    +0.000 Cl
ATOM     32  C   UNL     1       5.829  15.012  20.326  0.00  0.00    +0.000 A 
ATOM     33  C   UNL     1       4.437  14.874  20.331  0.00  0.00    +0.000 A 
ENDBRANCH   3  27
TORSDOF 3
ENDMDL
MODEL 5
REMARK VINA RESULT:      -7.6      0.848      1.233
REMARK  Name = 
REMARK  3 active torsions:
REMARK  status: ('A' for Active; 'I' for Inactive)
REMARK    1  A    between atoms: N_3  and  C_4
REMARK    2  A    between atoms: C_16  and  N_17
REMARK    3  A    between atoms: C_22  and  N_23
REMARK                            x       y       z     vdW  Elec       q    Type
REMARK                         _______ _______ _______ _____ _____    ______ ____
ROOT
ATOM      1  O   UNL     1      -0.461  15.801  19.558  0.00  0.00    +0.000 OA
ATOM      2  C   UNL     1      -0.218  14.597  19.466  0.00  0.00    +0.000 C 
ATOM      3  N   UNL     1       0.923  13.973  19.891  0.00  0.00    +0.000 N 
ATOM      4  N   UNL     1      -1.150  13.818  18.838  0.00  0.00    +0.000 N 
ATOM      5  C   UNL     1      -1.166  12.433  18.670  0.00  0.00    +0.000 A 
ATOM      6  C   UNL     1      -2.218  11.861  17.973  0.00  0.00    +0.000 A 
ATOM      7  C   UNL     1      -2.246  10.475  17.844  0.00  0.00    +0.000 A 
ATOM      8  C   UNL     1      -1.230   9.710  18.418  0.00  0.00    +0.000 A 
ATOM      9  C   UNL     1      -0.214  10.350  19.117  0.00  0.00    +0.000 A 
ATOM     10  N   UNL     1      -0.180  11.696  19.216  0.00  0.00    +0.000 NA
ATOM     11  H   UNL     1       0.984  12.992  19.629  0.00  0.00    +0.000 HD
ATOM     12  H   UNL     1      -1.928  14.355  18.485  0.00  0.00    +0.000 HD
ENDROOT
BRANCH   9  13
ATOM     13  N   UNL     1       0.769   9.594  19.776  0.00  0.00    +0.000 N 
ATOM     14  C   UNL     1       1.614   8.652  19.151  0.00  0.00    +0.000 A 
ATOM     15  C   UNL     1       2.137   8.936  17.890  0.00  0.00    +0.000 A 
ATOM     16  C   UNL     1       2.962   8.018  17.274  0.00  0.00    +0.000 A 
ATOM     17  C   UNL     1       3.277   6.853  17.953  0.00  0.00    +0.000 A 
ATOM     18  C   UNL     1       2.772   6.620  19.236  0.00  0.00    +0.000 A 
ATOM     19  N   UNL     1       1.930   7.514  19.817  0.00  0.00    +0.000 NA
ATOM     20  H   UNL     1       0.468   9.236  20.671  0.00  0.00    +0.000 HD
BRANCH  18  21
ATOM     21  N   UNL     1       3.117   5.460  19.907  0.00  0.00    +0.000 N 
ATOM     22  C   UNL     1       4.333   4.737  19.558  0.00  0.00    +0.000 C 
ATOM     23  C   UNL     1       4.003   3.312  19.117  0.00  0.00    +0.000 C 
ATOM     24  C   UNL     1       3.112   2.598  20.134  0.00  0.00    +0.000 C 
ATOM     25  C   UNL     1       1.867   3.423  20.438  0.00  0.00    +0.000 C 
ATOM     26  C   UNL     1       2.230   4.838  20.888  0.00  0.00    +0.000 C 
ENDBRANCH  18  21
ENDBRANCH   9  13
BRANCH   3  27
ATOM     27  C   UNL     1       2.055  14.556  20.487  0.00  0.00    +0.000 A 
ATOM     28  C   UNL     1       2.134  14.853  21.848  0.00  0.00    +0.000 A 
ATOM     29  C   UNL     1       3.256  15.507  22.366  0.00  0.00    +0.000 A 
ATOM     30  C   UNL     1       4.302  15.864  21.521  0.00  0.00    +0.000 A 
ATOM     31 CL   UNL     1       5.648  16.730  22.149  0.00  0.00    +0.000 Cl
ATOM     32  C   UNL     1       4.256  15.533  20.170  0.00  0.00    +0.000 A 
ATOM     33  C   UNL     1       3.139  14.866  19.656  0.00  0.00    +0.000 A 
ENDBRANCH   3  27
TORSDOF 3
ENDMDL
MODEL 6
REMARK VINA RESULT:      -7.5      4.007      8.545
REMARK  Name = 
REMARK  3 active torsions:
REMARK  status: ('A' for Active; 'I' for Inactive)
REMARK    1  A    between atoms: N_3  and  C_4
REMARK    2  A    between atoms: C_16  and  N_17
REMARK    3  A    between atoms: C_22  and  N_23
REMARK                            x       y       z     vdW  Elec       q    Type
REMARK                         _______ _______ _______ _____ _____    ______ ____
ROOT
ATOM      1  O   UNL     1       0.038   9.535  24.163  0.00  0.00    +0.000 OA
ATOM      2  C   UNL     1       0.083   9.816  22.965  0.00  0.00    +0.000 C 
ATOM      3  N   UNL     1      -0.521  10.890  22.369  0.00  0.00    +0.000 N 
ATOM      4  N   UNL     1       0.753   8.951  22.144  0.00  0.00    +0.000 N 
ATOM      5  C   UNL     1       1.023   9.067  20.780  0.00  0.00    +0.000 A 
ATOM      6  C   UNL     1       1.709   8.042  20.150  0.00  0.00    +0.000 A 
ATOM      7  C   UNL     1       2.009   8.184  18.798  0.00  0.00    +0.000 A 
ATOM      8  C   UNL     1       1.618   9.342  18.124  0.00  0.00    +0.000 A 
ATOM      9  C   UNL     1       0.944  10.337  18.824  0.00  0.00    +0.000 A 
ATOM     10  N   UNL     1       0.636  10.181  20.129  0.00  0.00    +0.000 NA
ATOM     11  H   UNL     1      -0.459  10.892  21.354  0.00  0.00    +0.000 HD
ATOM     12  H   UNL     1       1.106   8.146  22.638  0.00  0.00    +0.000 HD
ENDROOT
BRANCH   9  13
ATOM     13  N   UNL     1       0.620  11.547  18.187  0.00  0.00    +0.000 N 
ATOM     14  C   UNL     1       1.290  12.770  18.397  0.00  0.00    +0.000 A 
ATOM     15  C   UNL     1       2.678  12.774  18.532  0.00  0.00    +0.000 A 
ATOM     16  C   UNL     1       3.338  13.968  18.738  0.00  0.00    +0.000 A 
ATOM     17  C   UNL     1       2.595  15.137  18.764  0.00  0.00    +0.000 A 
ATOM     18  C   UNL     1       1.209  15.102  18.579  0.00  0.00    +0.000 A 
ATOM     19  N   UNL     1       0.566  13.916  18.415  0.00  0.00    +0.000 NA
ATOM     20  H   UNL     1      -0.374  11.712  18.122  0.00  0.00    +0.000 HD
BRANCH  18  21
ATOM     21  N   UNL     1       0.488  16.283  18.585  0.00  0.00    +0.000 N 
ATOM     22  C   UNL     1       1.148  17.554  18.311  0.00  0.00    +0.000 C 
ATOM     23  C   UNL     1       0.993  18.505  19.497  0.00  0.00    +0.000 C 
ATOM     24  C   UNL     1      -0.467  18.631  19.933  0.00  0.00    +0.000 C 
ATOM     25  C   UNL     1      -1.074  17.258  20.198  0.00  0.00    +0.000 C 
ATOM     26  C   UNL     1      -0.914  16.334  18.991  0.00  0.00    +0.000 C 
ENDBRANCH  18  21
ENDBRANCH   9  13
BRANCH   3  27
ATOM     27  C   UNL     1      -1.326  11.871  22.971  0.00  0.00    +0.000 A 
ATOM     28  C   UNL     1      -2.614  11.618  23.446  0.00  0.00    +0.000 A 
ATOM     29  C   UNL     1      -3.396  12.655  23.961  0.00  0.00    +0.000 A 
ATOM     30  C   UNL     1      -2.889  13.950  24.004  0.00  0.00    +0.000 A 
ATOM     31 CL   UNL     1      -3.879  15.236  24.573  0.00  0.00    +0.000 Cl
ATOM     32  C   UNL     1      -1.590  14.209  23.576  0.00  0.00    +0.000 A 
ATOM     33  C   UNL     1      -0.803  13.167  23.074  0.00  0.00    +0.000 A 
ENDBRANCH   3  27
TORSDOF 3
ENDMDL
MODEL 7
REMARK VINA RESULT:      -7.4      3.618      5.579
REMARK  Name = 
REMARK  3 active torsions:
REMARK  status: ('A' for Active; 'I' for Inactive)
REMARK    1  A    between atoms: N_3  and  C_4
REMARK    2  A    between atoms: C_16  and  N_17
REMARK    3  A    between atoms: C_22  and  N_23
REMARK                            x       y       z     vdW  Elec       q    Type
REMARK                         _______ _______ _______ _____ _____    ______ ____
ROOT
ATOM      1  O   UNL     1      -2.305  16.132  20.107  0.00  0.00    +0.000 OA
ATOM      2  C   UNL     1      -1.564  15.170  19.897  0.00  0.00    +0.000 C 
ATOM      3  N   UNL     1      -1.894  13.852  20.058  0.00  0.00    +0.000 N 
ATOM      4  N   UNL     1      -0.279  15.443  19.517  0.00  0.00    +0.000 N 
ATOM      5  C   UNL     1       0.732  14.557  19.143  0.00  0.00    +0.000 A 
ATOM      6  C   UNL     1       1.976  15.070  18.814  0.00  0.00    +0.000 A 
ATOM      7  C   UNL     1       2.967  14.183  18.404  0.00  0.00    +0.000 A 
ATOM      8  C   UNL     1       2.682  12.819  18.332  0.00  0.00    +0.000 A 
ATOM      9  C   UNL     1       1.407  12.376  18.664  0.00  0.00    +0.000 A 
ATOM     10  N   UNL     1       0.459  13.240  19.085  0.00  0.00    +0.000 NA
ATOM     11  H   UNL     1      -1.114  13.210  19.940  0.00  0.00    +0.000 HD
ATOM     12  H   UNL     1      -0.086  16.433  19.492  0.00  0.00    +0.000 HD
ENDROOT
BRANCH   9  13
ATOM     13  N   UNL     1       1.074  11.019  18.515  0.00  0.00    +0.000 N 
ATOM     14  C   UNL     1       1.185  10.047  19.532  0.00  0.00    +0.000 A 
ATOM     15  C   UNL     1       0.832  10.383  20.838  0.00  0.00    +0.000 A 
ATOM     16  C   UNL     1       0.940   9.436  21.836  0.00  0.00    +0.000 A 
ATOM     17  C   UNL     1       1.362   8.162  21.494  0.00  0.00    +0.000 A 
ATOM     18  C   UNL     1       1.665   7.846  20.166  0.00  0.00    +0.000 A 
ATOM     19  N   UNL     1       1.591   8.797  19.199  0.00  0.00    +0.000 NA
ATOM     20  H   UNL     1       1.378  10.625  17.635  0.00  0.00    +0.000 HD
BRANCH  18  21
ATOM     21  N   UNL     1       2.063   6.561  19.842  0.00  0.00    +0.000 N 
ATOM     22  C   UNL     1       2.504   6.243  18.490  0.00  0.00    +0.000 C 
ATOM     23  C   UNL     1       1.621   5.156  17.880  0.00  0.00    +0.000 C 
ATOM     24  C   UNL     1       1.493   3.946  18.805  0.00  0.00    +0.000 C 
ATOM     25  C   UNL     1       1.026   4.371  20.193  0.00  0.00    +0.000 C 
ATOM     26  C   UNL     1       1.936   5.449  20.782  0.00  0.00    +0.000 C 
ENDBRANCH  18  21
ENDBRANCH   9  13
BRANCH   3  27
ATOM     27  C   UNL     1      -3.111  13.316  20.513  0.00  0.00    +0.000 A 
ATOM     28  C   UNL     1      -4.021  12.669  19.675  0.00  0.00    +0.000 A 
ATOM     29  C   UNL     1      -5.251  12.230  20.172  0.00  0.00    +0.000 A 
ATOM     30  C   UNL     1      -5.572  12.435  21.510  0.00  0.00    +0.000 A 
ATOM     31 CL   UNL     1      -7.114  11.956  22.102  0.00  0.00    +0.000 Cl
ATOM     32  C   UNL     1      -4.655  13.037  22.367  0.00  0.00    +0.000 A 
ATOM     33  C   UNL     1      -3.418  13.464  21.871  0.00  0.00    +0.000 A 
ENDBRANCH   3  27
TORSDOF 3
ENDMDL
MODEL 8
REMARK VINA RESULT:      -7.3      2.231      2.577
REMARK  Name = 
REMARK  3 active torsions:
REMARK  status: ('A' for Active; 'I' for Inactive)
REMARK    1  A    between atoms: N_3  and  C_4
REMARK    2  A    between atoms: C_16  and  N_17
REMARK    3  A    between atoms: C_22  and  N_23
REMARK                            x       y       z     vdW  Elec       q    Type
REMARK                         _______ _______ _______ _____ _____    ______ ____
ROOT
ATOM      1  O   UNL     1       1.086  15.946  21.580  0.00  0.00    +0.000 OA
ATOM      2  C   UNL     1       1.011  14.717  21.563  0.00  0.00    +0.000 C 
ATOM      3  N   UNL     1       1.922  13.864  21.002  0.00  0.00    +0.000 N 
ATOM      4  N   UNL     1      -0.108  14.152  22.111  0.00  0.00    +0.000 N 
ATOM      5  C   UNL     1      -0.409  12.802  22.296  0.00  0.00    +0.000 A 
ATOM      6  C   UNL     1      -1.627  12.464  22.861  0.00  0.00    +0.000 A 
ATOM      7  C   UNL     1      -1.902  11.117  23.077  0.00  0.00    +0.000 A 
ATOM      8  C   UNL     1      -0.952  10.156  22.728  0.00  0.00    +0.000 A 
ATOM      9  C   UNL     1       0.256  10.568  22.178  0.00  0.00    +0.000 A 
ATOM     10  N   UNL     1       0.505  11.875  21.948  0.00  0.00    +0.000 NA
ATOM     11  H   UNL     1       1.630  12.889  20.994  0.00  0.00    +0.000 HD
ATOM     12  H   UNL     1      -0.769  14.841  22.436  0.00  0.00    +0.000 HD
ENDROOT
BRANCH   9  13
ATOM     13  N   UNL     1       1.260   9.625  21.901  0.00  0.00    +0.000 N 
ATOM     14  C   UNL     1       1.466   9.015  20.646  0.00  0.00    +0.000 A 
ATOM     15  C   UNL     1       1.333   9.778  19.487  0.00  0.00    +0.000 A 
ATOM     16  C   UNL     1       1.532   9.186  18.256  0.00  0.00    +0.000 A 
ATOM     17  C   UNL     1       1.900   7.851  18.218  0.00  0.00    +0.000 A 
ATOM     18  C   UNL     1       2.070   7.127  19.402  0.00  0.00    +0.000 A 
ATOM     19  N   UNL     1       1.833   7.711  20.606  0.00  0.00    +0.000 NA
ATOM     20  H   UNL     1       1.381   8.940  22.634  0.00  0.00    +0.000 HD
BRANCH  18  21
ATOM     21  N   UNL     1       2.460   5.801  19.343  0.00  0.00    +0.000 N 
ATOM     22  C   UNL     1       3.522   5.382  18.437  0.00  0.00    +0.000 C 
ATOM     23  C   UNL     1       3.005   4.337  17.450  0.00  0.00    +0.000 C 
ATOM     24  C   UNL     1       2.293   3.188  18.165  0.00  0.00    +0.000 C 
ATOM     25  C   UNL     1       1.201   3.717  19.087  0.00  0.00    +0.000 C 
ATOM     26  C   UNL     1       1.751   4.750  20.070  0.00  0.00    +0.000 C 
ENDBRANCH  18  21
ENDBRANCH   9  13
BRANCH   3  27
ATOM     27  C   UNL     1       3.102  14.193  20.313  0.00  0.00    +0.000 A 
ATOM     28  C   UNL     1       4.267  14.616  20.953  0.00  0.00    +0.000 A 
ATOM     29  C   UNL     1       5.383  15.006  20.207  0.00  0.00    +0.000 A 
ATOM     30  C   UNL     1       5.334  14.973  18.817  0.00  0.00    +0.000 A 
ATOM     31 CL   UNL     1       6.683  15.519  17.901  0.00  0.00    +0.000 Cl
ATOM     32  C   UNL     1       4.193  14.509  18.166  0.00  0.00    +0.000 A 
ATOM     33  C   UNL     1       3.083  14.105  18.916  0.00  0.00    +0.000 A 
ENDBRANCH   3  27
TORSDOF 3
ENDMDL
MODEL 9
REMARK VINA RESULT:      -7.3      4.496      9.447
REMARK  Name = 
REMARK  3 active torsions:
REMARK  status: ('A' for Active; 'I' for Inactive)
REMARK    1  A    between atoms: N_3  and  C_4
REMARK    2  A    between atoms: C_16  and  N_17
REMARK    3  A    between atoms: C_22  and  N_23
REMARK                            x       y       z     vdW  Elec       q    Type
REMARK                         _______ _______ _______ _____ _____    ______ ____
ROOT
ATOM      1  O   UNL     1       4.391   1.328  16.939  0.00  0.00    +0.000 OA
ATOM      2  C   UNL     1       4.099   2.355  17.554  0.00  0.00    +0.000 C 
ATOM      3  N   UNL     1       4.561   3.613  17.281  0.00  0.00    +0.000 N 
ATOM      4  N   UNL     1       3.276   2.221  18.638  0.00  0.00    +0.000 N 
ATOM      5  C   UNL     1       2.729   3.213  19.453  0.00  0.00    +0.000 A 
ATOM      6  C   UNL     1       1.930   2.832  20.518  0.00  0.00    +0.000 A 
ATOM      7  C   UNL     1       1.357   3.830  21.301  0.00  0.00    +0.000 A 
ATOM      8  C   UNL     1       1.596   5.170  20.992  0.00  0.00    +0.000 A 
ATOM      9  C   UNL     1       2.395   5.479  19.899  0.00  0.00    +0.000 A 
ATOM     10  N   UNL     1       2.969   4.506  19.159  0.00  0.00    +0.000 NA
ATOM     11  H   UNL     1       4.291   4.314  17.967  0.00  0.00    +0.000 HD
ATOM     12  H   UNL     1       3.036   1.259  18.824  0.00  0.00    +0.000 HD
ENDROOT
BRANCH   9  13
ATOM     13  N   UNL     1       2.577   6.819  19.517  0.00  0.00    +0.000 N 
ATOM     14  C   UNL     1       1.847   7.909  20.038  0.00  0.00    +0.000 A 
ATOM     15  C   UNL     1       1.544   7.940  21.398  0.00  0.00    +0.000 A 
ATOM     16  C   UNL     1       0.829   9.003  21.912  0.00  0.00    +0.000 A 
ATOM     17  C   UNL     1       0.470  10.031  21.057  0.00  0.00    +0.000 A 
ATOM     18  C   UNL     1       0.830   9.991  19.706  0.00  0.00    +0.000 A 
ATOM     19  N   UNL     1       1.500   8.920  19.205  0.00  0.00    +0.000 NA
ATOM     20  H   UNL     1       2.703   6.941  18.523  0.00  0.00    +0.000 HD
BRANCH  18  21
ATOM     21  N   UNL     1       0.481  11.039  18.873  0.00  0.00    +0.000 N 
ATOM     22  C   UNL     1       1.460  12.057  18.516  0.00  0.00    +0.000 C 
ATOM     23  C   UNL     1       0.984  13.439  18.962  0.00  0.00    +0.000 C 
ATOM     24  C   UNL     1      -0.437  13.730  18.479  0.00  0.00    +0.000 C 
ATOM     25  C   UNL     1      -1.391  12.617  18.897  0.00  0.00    +0.000 C 
ATOM     26  C   UNL     1      -0.894  11.250  18.427  0.00  0.00    +0.000 C 
ENDBRANCH  18  21
ENDBRANCH   9  13
BRANCH   3  27
ATOM     27  C   UNL     1       5.470   4.001  16.283  0.00  0.00    +0.000 A 
ATOM     28  C   UNL     1       6.718   4.562  16.561  0.00  0.00    +0.000 A 
ATOM     29  C   UNL     1       7.544   5.002  15.523  0.00  0.00    +0.000 A 
ATOM     30  C   UNL     1       7.122   4.881  14.202  0.00  0.00    +0.000 A 
ATOM     31 CL   UNL     1       8.109   5.487  12.932  0.00  0.00    +0.000 Cl
ATOM     32  C   UNL     1       5.900   4.282  13.908  0.00  0.00    +0.000 A 
ATOM     33  C   UNL     1       5.081   3.829  14.948  0.00  0.00    +0.000 A 
ENDBRANCH   3  27
TORSDOF 3
ENDMDL
