MODEL 1
REMARK VINA RESULT:      -8.2      0.000      0.000
REMARK  Name = 
REMARK  5 active torsions:
REMARK  status: ('A' for Active; 'I' for Inactive)
REMARK    1  A    between atoms: C_1  and  O_2
REMARK    2  A    between atoms: O_2  and  C_3
REMARK    3  A    between atoms: C_6  and  N_7
REMARK    4  A    between atoms: N_7  and  S_8
REMARK    5  A    between atoms: S_8  and  C_11
REMARK                            x       y       z     vdW  Elec       q    Type
REMARK                         _______ _______ _______ _____ _____    ______ ____
ROOT
ATOM      1  S   UNL     1       0.833   8.939  21.321  0.00  0.00    +0.000 S 
ATOM      2  O   UNL     1       1.743   9.324  22.377  0.00  0.00    +0.000 OA
ATOM      3  O   UNL     1      -0.555   8.637  21.592  0.00  0.00    +0.000 OA
ENDROOT
BRANCH   1   4
ATOM      4  C   UNL     1       1.572   7.542  20.492  0.00  0.00    +0.000 A 
ATOM      5  C   UNL     1       1.331   6.253  21.021  0.00  0.00    +0.000 A 
ATOM      6  C   UNL     1       1.921   5.139  20.426  0.00  0.00    +0.000 A 
ATOM      7  C   UNL     1       2.692   5.371  19.302  0.00  0.00    +0.000 A 
ATOM      8  C   UNL     1       2.918   6.621  18.748  0.00  0.00    +0.000 A 
ATOM      9  C   UNL     1       2.357   7.741  19.338  0.00  0.00    +0.000 A 
ATOM     10  C   UNL     1       3.792   6.455  17.535  0.00  0.00    +0.000 C 
ATOM     11  C   UNL     1       4.029   4.926  17.497  0.00  0.00    +0.000 C 
ATOM     12  O   UNL     1       4.682   4.321  16.662  0.00  0.00    +0.000 OA
ATOM     13  N   UNL     1       3.365   4.388  18.594  0.00  0.00    +0.000 N 
ATOM     14  C   UNL     1       3.252   2.998  18.979  0.00  0.00    +0.000 C 
ATOM     15  C   UNL     1       2.942   2.859  20.477  0.00  0.00    +0.000 C 
ATOM     16  C   UNL     1       1.737   3.725  20.892  0.00  0.00    +0.000 C 
ENDBRANCH   1   4
BRANCH   1  17
ATOM     17  N   UNL     1       0.907  10.160  20.170  0.00  0.00    +0.000 N 
ATOM     18  H   UNL     1       1.623  10.867  20.336  0.00  0.00    +0.000 HD
BRANCH  17  22
ATOM     19  C   UNL     1      -2.547  11.059  17.900  0.00  0.00    +0.000 A 
ATOM     20  C   UNL     1      -1.606  10.128  17.426  0.00  0.00    +0.000 A 
ATOM     21  C   UNL     1      -0.445   9.830  18.155  0.00  0.00    +0.000 A 
ATOM     22  C   UNL     1      -0.215  10.473  19.366  0.00  0.00    +0.000 A 
ATOM     23  C   UNL     1      -1.148  11.377  19.860  0.00  0.00    +0.000 A 
ATOM     24  C   UNL     1      -2.315  11.668  19.142  0.00  0.00    +0.000 A 
ATOM     25 CL   UNL     1      -3.417  12.721  19.956  0.00  0.00    +0.000 Cl
BRANCH  19  27
ATOM     26  C   UNL     1      -3.448  10.996  15.687  0.00  0.00    +0.000 C 
ATOM     27  O   UNL     1      -3.641  11.186  17.085  0.00  0.00    +0.000 OA
ENDBRANCH  19  27
ENDBRANCH  17  22
ENDBRANCH   1  17
TORSDOF 4
ENDMDL
MODEL 2
REMARK VINA RESULT:      -8.1      3.749      7.914
REMARK  Name = 
REMARK  5 active torsions:
REMARK  status: ('A' for Active; 'I' for Inactive)
REMARK    1  A    between atoms: C_1  and  O_2
REMARK    2  A    between atoms: O_2  and  C_3
REMARK    3  A    between atoms: C_6  and  N_7
REMARK    4  A    between atoms: N_7  and  S_8
REMARK    5  A    between atoms: S_8  and  C_11
REMARK                            x       y       z     vdW  Elec       q    Type
REMARK                         _______ _______ _______ _____ _____    ______ ____
ROOT
ATOM      1  S   UNL     1       2.736   4.496  19.293  0.00  0.00    +0.000 S 
ATOM      2  O   UNL     1       2.501   4.193  17.899  0.00  0.00    +0.000 OA
ATOM      3  O   UNL     1       2.184   3.675  20.349  0.00  0.00    +0.000 OA
ENDROOT
BRANCH   1   4
ATOM      4  C   UNL     1       2.214   6.183  19.547  0.00  0.00    +0.000 A 
ATOM      5  C   UNL     1       2.323   7.082  18.460  0.00  0.00    +0.000 A 
ATOM      6  C   UNL     1       1.963   8.418  18.628  0.00  0.00    +0.000 A 
ATOM      7  C   UNL     1       1.471   8.776  19.869  0.00  0.00    +0.000 A 
ATOM      8  C   UNL     1       1.328   7.908  20.939  0.00  0.00    +0.000 A 
ATOM      9  C   UNL     1       1.700   6.582  20.797  0.00  0.00    +0.000 A 
ATOM     10  C   UNL     1       0.754   8.672  22.101  0.00  0.00    +0.000 C 
ATOM     11  C   UNL     1       0.605  10.101  21.525  0.00  0.00    +0.000 C 
ATOM     12  O   UNL     1       0.159  11.070  22.116  0.00  0.00    +0.000 OA
ATOM     13  N   UNL     1       1.081  10.060  20.220  0.00  0.00    +0.000 N 
ATOM     14  C   UNL     1       1.122  11.131  19.247  0.00  0.00    +0.000 C 
ATOM     15  C   UNL     1       2.184  10.864  18.170  0.00  0.00    +0.000 C 
ATOM     16  C   UNL     1       2.029   9.461  17.553  0.00  0.00    +0.000 C 
ENDBRANCH   1   4
BRANCH   1  17
ATOM     17  N   UNL     1       4.404   4.571  19.481  0.00  0.00    +0.000 N 
ATOM     18  H   UNL     1       4.722   4.798  20.424  0.00  0.00    +0.000 HD
BRANCH  17  22
ATOM     19  C   UNL     1       6.872   5.464  16.165  0.00  0.00    +0.000 A 
ATOM     20  C   UNL     1       6.064   4.313  16.162  0.00  0.00    +0.000 A 
ATOM     21  C   UNL     1       5.253   3.989  17.260  0.00  0.00    +0.000 A 
ATOM     22  C   UNL     1       5.253   4.817  18.376  0.00  0.00    +0.000 A 
ATOM     23  C   UNL     1       6.026   5.972  18.384  0.00  0.00    +0.000 A 
ATOM     24  C   UNL     1       6.828   6.306  17.285  0.00  0.00    +0.000 A 
ATOM     25 CL   UNL     1       7.630   7.830  17.416  0.00  0.00    +0.000 Cl
BRANCH  19  27
ATOM     26  C   UNL     1       7.213   4.814  13.890  0.00  0.00    +0.000 C 
ATOM     27  O   UNL     1       7.556   5.648  14.991  0.00  0.00    +0.000 OA
ENDBRANCH  19  27
ENDBRANCH  17  22
ENDBRANCH   1  17
TORSDOF 4
ENDMDL
MODEL 3
REMARK VINA RESULT:      -8.0      3.894      7.700
REMARK  Name = 
REMARK  5 active torsions:
REMARK  status: ('A' for Active; 'I' for Inactive)
REMARK    1  A    between atoms: C_1  and  O_2
REMARK    2  A    between atoms: O_2  and  C_3
REMARK    3  A    between atoms: C_6  and  N_7
REMARK    4  A    between atoms: N_7  and  S_8
REMARK    5  A    between atoms: S_8  and  C_11
REMARK                            x       y       z     vdW  Elec       q    Type
REMARK                         _______ _______ _______ _____ _____    ______ ____
ROOT
ATOM      1  S   UNL     1       2.558   4.925  19.283  0.00  0.00    +0.000 S 
ATOM      2  O   UNL     1       2.368   4.633  17.881  0.00  0.00    +0.000 OA
ATOM      3  O   UNL     1       1.928   4.129  20.314  0.00  0.00    +0.000 OA
ENDROOT
BRANCH   1   4
ATOM      4  C   UNL     1       2.099   6.633  19.519  0.00  0.00    +0.000 A 
ATOM      5  C   UNL     1       1.590   7.015  20.782  0.00  0.00    +0.000 A 
ATOM      6  C   UNL     1       1.183   8.331  20.995  0.00  0.00    +0.000 A 
ATOM      7  C   UNL     1       1.346   9.210  19.940  0.00  0.00    +0.000 A 
ATOM      8  C   UNL     1       1.869   8.866  18.704  0.00  0.00    +0.000 A 
ATOM      9  C   UNL     1       2.259   7.559  18.467  0.00  0.00    +0.000 A 
ATOM     10  C   UNL     1       1.892  10.094  17.836  0.00  0.00    +0.000 C 
ATOM     11  C   UNL     1       1.297  11.177  18.768  0.00  0.00    +0.000 C 
ATOM     12  O   UNL     1       1.134  12.354  18.490  0.00  0.00    +0.000 OA
ATOM     13  N   UNL     1       0.982  10.547  19.967  0.00  0.00    +0.000 N 
ATOM     14  C   UNL     1       0.436  11.135  21.171  0.00  0.00    +0.000 C 
ATOM     15  C   UNL     1      -0.269  10.078  22.036  0.00  0.00    +0.000 C 
ATOM     16  C   UNL     1       0.634   8.856  22.288  0.00  0.00    +0.000 C 
ENDBRANCH   1   4
BRANCH   1  17
ATOM     17  N   UNL     1       4.218   4.929  19.541  0.00  0.00    +0.000 N 
ATOM     18  H   UNL     1       4.510   5.225  20.472  0.00  0.00    +0.000 HD
BRANCH  17  22
ATOM     19  C   UNL     1       6.868   5.376  16.275  0.00  0.00    +0.000 A 
ATOM     20  C   UNL     1       5.981   4.286  16.329  0.00  0.00    +0.000 A 
ATOM     21  C   UNL     1       5.108   4.110  17.412  0.00  0.00    +0.000 A 
ATOM     22  C   UNL     1       5.124   5.025  18.457  0.00  0.00    +0.000 A 
ATOM     23  C   UNL     1       5.976   6.121  18.407  0.00  0.00    +0.000 A 
ATOM     24  C   UNL     1       6.842   6.309  17.322  0.00  0.00    +0.000 A 
ATOM     25 CL   UNL     1       7.744   7.781  17.366  0.00  0.00    +0.000 Cl
BRANCH  19  27
ATOM     26  C   UNL     1       7.050   4.815  13.959  0.00  0.00    +0.000 C 
ATOM     27  O   UNL     1       7.608   5.416  15.122  0.00  0.00    +0.000 OA
ENDBRANCH  19  27
ENDBRANCH  17  22
ENDBRANCH   1  17
TORSDOF 4
ENDMDL
MODEL 4
REMARK VINA RESULT:      -7.8      4.026      7.582
REMARK  Name = 
REMARK  5 active torsions:
REMARK  status: ('A' for Active; 'I' for Inactive)
REMARK    1  A    between atoms: C_1  and  O_2
REMARK    2  A    between atoms: O_2  and  C_3
REMARK    3  A    between atoms: C_6  and  N_7
REMARK    4  A    between atoms: N_7  and  S_8
REMARK    5  A    between atoms: S_8  and  C_11
REMARK                            x       y       z     vdW  Elec       q    Type
REMARK                         _______ _______ _______ _____ _____    ______ ____
ROOT
ATOM      1  S   UNL     1       2.956   3.566  19.738  0.00  0.00    +0.000 S 
ATOM      2  O   UNL     1       2.567   2.956  18.487  0.00  0.00    +0.000 OA
ATOM      3  O   UNL     1       2.479   3.059  21.007  0.00  0.00    +0.000 OA
ENDROOT
BRANCH   1   4
ATOM      4  C   UNL     1       2.536   5.296  19.619  0.00  0.00    +0.000 A 
ATOM      5  C   UNL     1       1.871   5.895  20.715  0.00  0.00    +0.000 A 
ATOM      6  C   UNL     1       1.491   7.234  20.646  0.00  0.00    +0.000 A 
ATOM      7  C   UNL     1       1.834   7.918  19.494  0.00  0.00    +0.000 A 
ATOM      8  C   UNL     1       2.510   7.362  18.421  0.00  0.00    +0.000 A 
ATOM      9  C   UNL     1       2.878   6.027  18.463  0.00  0.00    +0.000 A 
ATOM     10  C   UNL     1       2.703   8.425  17.375  0.00  0.00    +0.000 C 
ATOM     11  C   UNL     1       2.026   9.659  18.018  0.00  0.00    +0.000 C 
ATOM     12  O   UNL     1       1.949  10.773  17.528  0.00  0.00    +0.000 OA
ATOM     13  N   UNL     1       1.523   9.246  19.247  0.00  0.00    +0.000 N 
ATOM     14  C   UNL     1       0.837  10.038  20.245  0.00  0.00    +0.000 C 
ATOM     15  C   UNL     1      -0.023   9.153  21.162  0.00  0.00    +0.000 C 
ATOM     16  C   UNL     1       0.787   7.979  21.741  0.00  0.00    +0.000 C 
ENDBRANCH   1   4
BRANCH   1  17
ATOM     17  N   UNL     1       4.636   3.573  19.755  0.00  0.00    +0.000 N 
ATOM     18  H   UNL     1       5.058   3.552  20.683  0.00  0.00    +0.000 HD
BRANCH  17  22
ATOM     19  C   UNL     1       6.792   5.246  16.524  0.00  0.00    +0.000 A 
ATOM     20  C   UNL     1       5.858   4.217  16.301  0.00  0.00    +0.000 A 
ATOM     21  C   UNL     1       5.148   3.637  17.361  0.00  0.00    +0.000 A 
ATOM     22  C   UNL     1       5.374   4.080  18.659  0.00  0.00    +0.000 A 
ATOM     23  C   UNL     1       6.274   5.113  18.893  0.00  0.00    +0.000 A 
ATOM     24  C   UNL     1       6.977   5.704  17.836  0.00  0.00    +0.000 A 
ATOM     25 CL   UNL     1       7.964   7.048  18.290  0.00  0.00    +0.000 Cl
BRANCH  19  27
ATOM     26  C   UNL     1       7.153   4.977  14.176  0.00  0.00    +0.000 C 
ATOM     27  O   UNL     1       7.352   5.728  15.369  0.00  0.00    +0.000 OA
ENDBRANCH  19  27
ENDBRANCH  17  22
ENDBRANCH   1  17
TORSDOF 4
ENDMDL
MODEL 5
REMARK VINA RESULT:      -7.8      4.149      7.537
REMARK  Name = 
REMARK  5 active torsions:
REMARK  status: ('A' for Active; 'I' for Inactive)
REMARK    1  A    between atoms: C_1  and  O_2
REMARK    2  A    between atoms: O_2  and  C_3
REMARK    3  A    between atoms: C_6  and  N_7
REMARK    4  A    between atoms: N_7  and  S_8
REMARK    5  A    between atoms: S_8  and  C_11
REMARK                            x       y       z     vdW  Elec       q    Type
REMARK                         _______ _______ _______ _____ _____    ______ ____
ROOT
ATOM      1  S   UNL     1       2.597   3.278  19.186  0.00  0.00    +0.000 S 
ATOM      2  O   UNL     1       2.188   2.847  17.868  0.00  0.00    +0.000 OA
ATOM      3  O   UNL     1       2.062   2.666  20.382  0.00  0.00    +0.000 OA
ENDROOT
BRANCH   1   4
ATOM      4  C   UNL     1       2.308   5.037  19.263  0.00  0.00    +0.000 A 
ATOM      5  C   UNL     1       1.756   5.566  20.454  0.00  0.00    +0.000 A 
ATOM      6  C   UNL     1       1.478   6.929  20.541  0.00  0.00    +0.000 A 
ATOM      7  C   UNL     1       1.807   7.702  19.442  0.00  0.00    +0.000 A 
ATOM      8  C   UNL     1       2.375   7.211  18.278  0.00  0.00    +0.000 A 
ATOM      9  C   UNL     1       2.639   5.856  18.165  0.00  0.00    +0.000 A 
ATOM     10  C   UNL     1       2.590   8.359  17.330  0.00  0.00    +0.000 C 
ATOM     11  C   UNL     1       2.050   9.566  18.134  0.00  0.00    +0.000 C 
ATOM     12  O   UNL     1       2.033  10.728  17.762  0.00  0.00    +0.000 OA
ATOM     13  N   UNL     1       1.587   9.067  19.346  0.00  0.00    +0.000 N 
ATOM     14  C   UNL     1       1.023   9.800  20.460  0.00  0.00    +0.000 C 
ATOM     15  C   UNL     1       0.151   8.890  21.339  0.00  0.00    +0.000 C 
ATOM     16  C   UNL     1       0.898   7.607  21.747  0.00  0.00    +0.000 C 
ENDBRANCH   1   4
BRANCH   1  17
ATOM     17  N   UNL     1       4.273   3.157  19.218  0.00  0.00    +0.000 N 
ATOM     18  H   UNL     1       4.650   2.599  19.985  0.00  0.00    +0.000 HD
BRANCH  17  22
ATOM     19  C   UNL     1       6.787   5.939  17.263  0.00  0.00    +0.000 A 
ATOM     20  C   UNL     1       6.672   5.945  18.665  0.00  0.00    +0.000 A 
ATOM     21  C   UNL     1       5.830   5.043  19.330  0.00  0.00    +0.000 A 
ATOM     22  C   UNL     1       5.087   4.130  18.591  0.00  0.00    +0.000 A 
ATOM     23  C   UNL     1       5.208   4.095  17.208  0.00  0.00    +0.000 A 
ATOM     24  C   UNL     1       6.058   4.985  16.539  0.00  0.00    +0.000 A 
ATOM     25 CL   UNL     1       6.176   4.725  14.835  0.00  0.00    +0.000 Cl
BRANCH  19  27
ATOM     26  C   UNL     1       7.817   8.084  17.494  0.00  0.00    +0.000 C 
ATOM     27  O   UNL     1       7.693   6.853  16.790  0.00  0.00    +0.000 OA
ENDBRANCH  19  27
ENDBRANCH  17  22
ENDBRANCH   1  17
TORSDOF 4
ENDMDL
MODEL 6
REMARK VINA RESULT:      -7.7      0.905      2.179
REMARK  Name = 
REMARK  5 active torsions:
REMARK  status: ('A' for Active; 'I' for Inactive)
REMARK    1  A    between atoms: C_1  and  O_2
REMARK    2  A    between atoms: O_2  and  C_3
REMARK    3  A    between atoms: C_6  and  N_7
REMARK    4  A    between atoms: N_7  and  S_8
REMARK    5  A    between atoms: S_8  and  C_11
REMARK                            x       y       z     vdW  Elec       q    Type
REMARK                         _______ _______ _______ _____ _____    ______ ____
ROOT
ATOM      1  S   UNL     1       0.813   8.624  21.179  0.00  0.00    +0.000 S 
ATOM      2  O   UNL     1       1.609   9.051  22.308  0.00  0.00    +0.000 OA
ATOM      3  O   UNL     1      -0.586   8.286  21.326  0.00  0.00    +0.000 OA
ENDROOT
BRANCH   1   4
ATOM      4  C   UNL     1       1.664   7.238  20.446  0.00  0.00    +0.000 A 
ATOM      5  C   UNL     1       2.573   7.499  19.393  0.00  0.00    +0.000 A 
ATOM      6  C   UNL     1       3.228   6.440  18.767  0.00  0.00    +0.000 A 
ATOM      7  C   UNL     1       2.970   5.173  19.257  0.00  0.00    +0.000 A 
ATOM      8  C   UNL     1       2.107   4.896  20.305  0.00  0.00    +0.000 A 
ATOM      9  C   UNL     1       1.431   5.933  20.925  0.00  0.00    +0.000 A 
ATOM     10  C   UNL     1       2.107   3.411  20.543  0.00  0.00    +0.000 C 
ATOM     11  C   UNL     1       3.092   2.896  19.466  0.00  0.00    +0.000 C 
ATOM     12  O   UNL     1       3.419   1.734  19.289  0.00  0.00    +0.000 OA
ATOM     13  N   UNL     1       3.518   4.006  18.747  0.00  0.00    +0.000 N 
ATOM     14  C   UNL     1       4.472   4.057  17.660  0.00  0.00    +0.000 C 
ATOM     15  C   UNL     1       4.262   5.309  16.794  0.00  0.00    +0.000 C 
ATOM     16  C   UNL     1       4.215   6.590  17.647  0.00  0.00    +0.000 C 
ENDBRANCH   1   4
BRANCH   1  17
ATOM     17  N   UNL     1       0.960   9.830  20.019  0.00  0.00    +0.000 N 
ATOM     18  H   UNL     1       1.807  10.394  20.087  0.00  0.00    +0.000 HD
BRANCH  17  22
ATOM     19  C   UNL     1      -2.539  11.358  18.198  0.00  0.00    +0.000 A 
ATOM     20  C   UNL     1      -1.773  10.371  17.553  0.00  0.00    +0.000 A 
ATOM     21  C   UNL     1      -0.600   9.865  18.131  0.00  0.00    +0.000 A 
ATOM     22  C   UNL     1      -0.180  10.354  19.363  0.00  0.00    +0.000 A 
ATOM     23  C   UNL     1      -0.940  11.311  20.025  0.00  0.00    +0.000 A 
ATOM     24  C   UNL     1      -2.118  11.810  19.457  0.00  0.00    +0.000 A 
ATOM     25 CL   UNL     1      -2.997  12.904  20.465  0.00  0.00    +0.000 Cl
BRANCH  19  27
ATOM     26  C   UNL     1      -3.975  10.961  16.329  0.00  0.00    +0.000 C 
ATOM     27  O   UNL     1      -3.676  11.695  17.511  0.00  0.00    +0.000 OA
ENDBRANCH  19  27
ENDBRANCH  17  22
ENDBRANCH   1  17
TORSDOF 4
ENDMDL
MODEL 7
REMARK VINA RESULT:      -7.7      3.762      7.664
REMARK  Name = 
REMARK  5 active torsions:
REMARK  status: ('A' for Active; 'I' for Inactive)
REMARK    1  A    between atoms: C_1  and  O_2
REMARK    2  A    between atoms: O_2  and  C_3
REMARK    3  A    between atoms: C_6  and  N_7
REMARK    4  A    between atoms: N_7  and  S_8
REMARK    5  A    between atoms: S_8  and  C_11
REMARK                            x       y       z     vdW  Elec       q    Type
REMARK                         _______ _______ _______ _____ _____    ______ ____
ROOT
ATOM      1  S   UNL     1       2.346   5.344  19.709  0.00  0.00    +0.000 S 
ATOM      2  O   UNL     1       1.206   4.532  20.071  0.00  0.00    +0.000 OA
ATOM      3  O   UNL     1       3.638   5.158  20.334  0.00  0.00    +0.000 OA
ENDROOT
BRANCH   1   4
ATOM      4  C   UNL     1       1.851   7.046  19.914  0.00  0.00    +0.000 A 
ATOM      5  C   UNL     1       1.336   7.440  21.172  0.00  0.00    +0.000 A 
ATOM      6  C   UNL     1       0.902   8.750  21.362  0.00  0.00    +0.000 A 
ATOM      7  C   UNL     1       1.044   9.613  20.291  0.00  0.00    +0.000 A 
ATOM      8  C   UNL     1       1.572   9.258  19.060  0.00  0.00    +0.000 A 
ATOM      9  C   UNL     1       1.990   7.956  18.846  0.00  0.00    +0.000 A 
ATOM     10  C   UNL     1       1.568  10.471  18.170  0.00  0.00    +0.000 C 
ATOM     11  C   UNL     1       0.951  11.557  19.084  0.00  0.00    +0.000 C 
ATOM     12  O   UNL     1       0.762  12.725  18.785  0.00  0.00    +0.000 OA
ATOM     13  N   UNL     1       0.652  10.943  20.294  0.00  0.00    +0.000 N 
ATOM     14  C   UNL     1       0.095  11.540  21.489  0.00  0.00    +0.000 C 
ATOM     15  C   UNL     1      -0.586  10.484  22.374  0.00  0.00    +0.000 C 
ATOM     16  C   UNL     1       0.343   9.287  22.646  0.00  0.00    +0.000 C 
ENDBRANCH   1   4
BRANCH   1  17
ATOM     17  N   UNL     1       2.523   5.188  18.045  0.00  0.00    +0.000 N 
ATOM     18  H   UNL     1       1.708   4.814  17.558  0.00  0.00    +0.000 HD
BRANCH  17  22
ATOM     19  C   UNL     1       6.330   5.016  16.212  0.00  0.00    +0.000 A 
ATOM     20  C   UNL     1       5.397   3.982  16.014  0.00  0.00    +0.000 A 
ATOM     21  C   UNL     1       4.137   4.011  16.629  0.00  0.00    +0.000 A 
ATOM     22  C   UNL     1       3.805   5.078  17.455  0.00  0.00    +0.000 A 
ATOM     23  C   UNL     1       4.706   6.120  17.640  0.00  0.00    +0.000 A 
ATOM     24  C   UNL     1       5.961   6.102  17.019  0.00  0.00    +0.000 A 
ATOM     25 CL   UNL     1       6.906   7.528  17.262  0.00  0.00    +0.000 Cl
BRANCH  19  27
ATOM     26  C   UNL     1       7.384   4.824  14.075  0.00  0.00    +0.000 C 
ATOM     27  O   UNL     1       7.486   4.846  15.494  0.00  0.00    +0.000 OA
ENDBRANCH  19  27
ENDBRANCH  17  22
ENDBRANCH   1  17
TORSDOF 4
ENDMDL
MODEL 8
REMARK VINA RESULT:      -7.7      1.081      1.431
REMARK  Name = 
REMARK  5 active torsions:
REMARK  status: ('A' for Active; 'I' for Inactive)
REMARK    1  A    between atoms: C_1  and  O_2
REMARK    2  A    between atoms: O_2  and  C_3
REMARK    3  A    between atoms: C_6  and  N_7
REMARK    4  A    between atoms: N_7  and  S_8
REMARK    5  A    between atoms: S_8  and  C_11
REMARK                            x       y       z     vdW  Elec       q    Type
REMARK                         _______ _______ _______ _____ _____    ______ ____
ROOT
ATOM      1  S   UNL     1       0.774   8.892  21.282  0.00  0.00    +0.000 S 
ATOM      2  O   UNL     1       1.710   9.366  22.276  0.00  0.00    +0.000 OA
ATOM      3  O   UNL     1      -0.583   8.529  21.632  0.00  0.00    +0.000 OA
ENDROOT
BRANCH   1   4
ATOM      4  C   UNL     1       1.546   7.504  20.470  0.00  0.00    +0.000 A 
ATOM      5  C   UNL     1       1.345   6.216  21.021  0.00  0.00    +0.000 A 
ATOM      6  C   UNL     1       1.963   5.110  20.439  0.00  0.00    +0.000 A 
ATOM      7  C   UNL     1       2.720   5.346  19.307  0.00  0.00    +0.000 A 
ATOM      8  C   UNL     1       2.908   6.593  18.732  0.00  0.00    +0.000 A 
ATOM      9  C   UNL     1       2.319   7.706  19.308  0.00  0.00    +0.000 A 
ATOM     10  C   UNL     1       3.779   6.432  17.517  0.00  0.00    +0.000 C 
ATOM     11  C   UNL     1       4.059   4.910  17.501  0.00  0.00    +0.000 C 
ATOM     12  O   UNL     1       4.724   4.311  16.671  0.00  0.00    +0.000 OA
ATOM     13  N   UNL     1       3.417   4.371  18.610  0.00  0.00    +0.000 N 
ATOM     14  C   UNL     1       3.345   2.985  19.017  0.00  0.00    +0.000 C 
ATOM     15  C   UNL     1       3.048   2.861  20.520  0.00  0.00    +0.000 C 
ATOM     16  C   UNL     1       1.822   3.699  20.928  0.00  0.00    +0.000 C 
ENDBRANCH   1   4
BRANCH   1  17
ATOM     17  N   UNL     1       0.727  10.068  20.083  0.00  0.00    +0.000 N 
ATOM     18  H   UNL     1       1.548  10.672  20.039  0.00  0.00    +0.000 HD
BRANCH  17  22
ATOM     19  C   UNL     1      -2.873  11.448  18.345  0.00  0.00    +0.000 A 
ATOM     20  C   UNL     1      -2.422  11.980  19.566  0.00  0.00    +0.000 A 
ATOM     21  C   UNL     1      -1.241  11.523  20.167  0.00  0.00    +0.000 A 
ATOM     22  C   UNL     1      -0.505  10.518  19.550  0.00  0.00    +0.000 A 
ATOM     23  C   UNL     1      -0.924  10.000  18.331  0.00  0.00    +0.000 A 
ATOM     24  C   UNL     1      -2.096  10.462  17.720  0.00  0.00    +0.000 A 
ATOM     25 CL   UNL     1      -2.404   9.794  16.156  0.00  0.00    +0.000 Cl
BRANCH  19  27
ATOM     26  C   UNL     1      -4.699  11.421  16.802  0.00  0.00    +0.000 C 
ATOM     27  O   UNL     1      -4.014  12.049  17.880  0.00  0.00    +0.000 OA
ENDBRANCH  19  27
ENDBRANCH  17  22
ENDBRANCH   1  17
TORSDOF 4
ENDMDL
MODEL 9
REMARK VINA RESULT:      -7.7      1.427      2.628
REMARK  Name = 
REMARK  5 active torsions:
REMARK  status: ('A' for Active; 'I' for Inactive)
REMARK    1  A    between atoms: C_1  and  O_2
REMARK    2  A    between atoms: O_2  and  C_3
REMARK    3  A    between atoms: C_6  and  N_7
REMARK    4  A    between atoms: N_7  and  S_8
REMARK    5  A    between atoms: S_8  and  C_11
REMARK                            x       y       z     vdW  Elec       q    Type
REMARK                         _______ _______ _______ _____ _____    ______ ____
ROOT
ATOM      1  S   UNL     1       0.832   8.692  21.178  0.00  0.00    +0.000 S 
ATOM      2  O   UNL     1       1.721   9.236  22.180  0.00  0.00    +0.000 OA
ATOM      3  O   UNL     1      -0.522   8.297  21.502  0.00  0.00    +0.000 OA
ENDROOT
BRANCH   1   4
ATOM      4  C   UNL     1       1.675   7.301  20.445  0.00  0.00    +0.000 A 
ATOM      5  C   UNL     1       2.593   7.557  19.400  0.00  0.00    +0.000 A 
ATOM      6  C   UNL     1       3.243   6.494  18.774  0.00  0.00    +0.000 A 
ATOM      7  C   UNL     1       2.970   5.228  19.258  0.00  0.00    +0.000 A 
ATOM      8  C   UNL     1       2.098   4.955  20.299  0.00  0.00    +0.000 A 
ATOM      9  C   UNL     1       1.428   5.996  20.919  0.00  0.00    +0.000 A 
ATOM     10  C   UNL     1       2.083   3.469  20.533  0.00  0.00    +0.000 C 
ATOM     11  C   UNL     1       3.070   2.949  19.461  0.00  0.00    +0.000 C 
ATOM     12  O   UNL     1       3.388   1.785  19.281  0.00  0.00    +0.000 OA
ATOM     13  N   UNL     1       3.511   4.058  18.748  0.00  0.00    +0.000 N 
ATOM     14  C   UNL     1       4.472   4.103  17.667  0.00  0.00    +0.000 C 
ATOM     15  C   UNL     1       4.278   5.360  16.803  0.00  0.00    +0.000 C 
ATOM     16  C   UNL     1       4.237   6.639  17.661  0.00  0.00    +0.000 C 
ENDBRANCH   1   4
BRANCH   1  17
ATOM     17  N   UNL     1       0.784   9.819  19.933  0.00  0.00    +0.000 N 
ATOM     18  H   UNL     1       1.639  10.361  19.808  0.00  0.00    +0.000 HD
BRANCH  17  22
ATOM     19  C   UNL     1      -2.823  11.382  18.373  0.00  0.00    +0.000 A 
ATOM     20  C   UNL     1      -2.276  11.901  19.560  0.00  0.00    +0.000 A 
ATOM     21  C   UNL     1      -1.091  11.384  20.103  0.00  0.00    +0.000 A 
ATOM     22  C   UNL     1      -0.448  10.333  19.461  0.00  0.00    +0.000 A 
ATOM     23  C   UNL     1      -0.961   9.826  18.274  0.00  0.00    +0.000 A 
ATOM     24  C   UNL     1      -2.137  10.347  17.720  0.00  0.00    +0.000 A 
ATOM     25 CL   UNL     1      -2.568   9.681  16.185  0.00  0.00    +0.000 Cl
BRANCH  19  27
ATOM     26  C   UNL     1      -5.195  11.361  18.085  0.00  0.00    +0.000 C 
ATOM     27  O   UNL     1      -3.952  12.042  17.963  0.00  0.00    +0.000 OA
ENDBRANCH  19  27
ENDBRANCH  17  22
ENDBRANCH   1  17
TORSDOF 4
ENDMDL
