MODEL 1
REMARK VINA RESULT:      -7.4      0.000      0.000
REMARK  Name = 
REMARK  7 active torsions:
REMARK  status: ('A' for Active; 'I' for Inactive)
REMARK    1  A    between atoms: C_1  and  C_2
REMARK    2  A    between atoms: C_2  and  O_3
REMARK    3  A    between atoms: O_3  and  C_4
REMARK    4  A    between atoms: C_4  and  C_6
REMARK    5  A    between atoms: C_6  and  C_7
REMARK    6  A    between atoms: C_14  and  O_15
REMARK    7  A    between atoms: C_14  and  C_16
REMARK                            x       y       z     vdW  Elec       q    Type
REMARK                         _______ _______ _______ _____ _____    ______ ____
ROOT
ATOM      1  C   UNL     1       4.819   5.581  17.649  0.00  0.00    +0.000 C 
ATOM      2  S   UNL     1       4.370   4.127  16.563  0.00  0.00    +0.000 S 
ATOM      3  C   UNL     1       3.006   3.736  17.532  0.00  0.00    +0.000 C 
ATOM      4  N   UNL     1       2.082   2.868  17.273  0.00  0.00    +0.000 NA
ATOM      5  C   UNL     1       1.170   2.994  18.464  0.00  0.00    +0.000 C 
ATOM      6  C   UNL     1       1.694   4.161  19.336  0.00  0.00    +0.000 C 
ATOM      7  N   UNL     1       2.935   4.444  18.674  0.00  0.00    +0.000 N 
ATOM      8  C   UNL     1       3.766   5.605  18.827  0.00  0.00    +0.000 C 
ENDROOT
BRANCH   8   9
ATOM      9  C   UNL     1       2.944   6.893  18.848  0.00  0.00    +0.000 A 
ATOM     10  C   UNL     1       2.241   7.289  20.000  0.00  0.00    +0.000 A 
ATOM     11  C   UNL     1       1.447   8.444  19.999  0.00  0.00    +0.000 A 
ATOM     12  C   UNL     1       1.349   9.223  18.850  0.00  0.00    +0.000 A 
ATOM     13  C   UNL     1       2.042   8.856  17.702  0.00  0.00    +0.000 A 
ATOM     14  C   UNL     1       2.836   7.702  17.700  0.00  0.00    +0.000 A 
ENDBRANCH   8   9
BRANCH   8  15
ATOM     15  O   UNL     1       4.417   5.398  20.071  0.00  0.00    +0.000 OA
ATOM     16  H   UNL     1       5.092   4.734  19.849  0.00  0.00    +0.000 HD
ENDBRANCH   8  15
BRANCH   1  17
ATOM     17  C   UNL     1       6.274   5.495  18.131  0.00  0.00    +0.000 C 
BRANCH  17  18
ATOM     18  C   UNL     1       7.246   5.610  16.988  0.00  0.00    +0.000 C 
ATOM     19  O   UNL     1       7.648   4.656  16.337  0.00  0.00    +0.000 OA
BRANCH  18  20
ATOM     20  O   UNL     1       7.655   6.902  16.850  0.00  0.00    +0.000 OA
BRANCH  20  22
ATOM     21  C   UNL     1       8.103   9.085  17.824  0.00  0.00    +0.000 C 
ATOM     22  C   UNL     1       7.940   7.600  18.068  0.00  0.00    +0.000 C 
ENDBRANCH  20  22
ENDBRANCH  18  20
ENDBRANCH  17  18
ENDBRANCH   1  17
TORSDOF 6
ENDMDL
MODEL 2
REMARK VINA RESULT:      -7.4      0.631      1.223
REMARK  Name = 
REMARK  7 active torsions:
REMARK  status: ('A' for Active; 'I' for Inactive)
REMARK    1  A    between atoms: C_1  and  C_2
REMARK    2  A    between atoms: C_2  and  O_3
REMARK    3  A    between atoms: O_3  and  C_4
REMARK    4  A    between atoms: C_4  and  C_6
REMARK    5  A    between atoms: C_6  and  C_7
REMARK    6  A    between atoms: C_14  and  O_15
REMARK    7  A    between atoms: C_14  and  C_16
REMARK                            x       y       z     vdW  Elec       q    Type
REMARK                         _______ _______ _______ _____ _____    ______ ____
ROOT
ATOM      1  C   UNL     1       4.855   5.210  18.203  0.00  0.00    +0.000 C 
ATOM      2  S   UNL     1       4.533   3.735  17.102  0.00  0.00    +0.000 S 
ATOM      3  C   UNL     1       3.003   3.440  17.826  0.00  0.00    +0.000 C 
ATOM      4  N   UNL     1       2.098   2.603  17.436  0.00  0.00    +0.000 NA
ATOM      5  C   UNL     1       0.999   2.814  18.442  0.00  0.00    +0.000 C 
ATOM      6  C   UNL     1       1.418   3.991  19.356  0.00  0.00    +0.000 C 
ATOM      7  N   UNL     1       2.767   4.195  18.915  0.00  0.00    +0.000 N 
ATOM      8  C   UNL     1       3.615   5.325  19.176  0.00  0.00    +0.000 C 
ENDROOT
BRANCH   8   9
ATOM      9  C   UNL     1       2.865   6.647  19.011  0.00  0.00    +0.000 A 
ATOM     10  C   UNL     1       2.912   7.364  17.803  0.00  0.00    +0.000 A 
ATOM     11  C   UNL     1       2.266   8.601  17.672  0.00  0.00    +0.000 A 
ATOM     12  C   UNL     1       1.560   9.137  18.745  0.00  0.00    +0.000 A 
ATOM     13  C   UNL     1       1.493   8.442  19.948  0.00  0.00    +0.000 A 
ATOM     14  C   UNL     1       2.137   7.205  20.080  0.00  0.00    +0.000 A 
ENDBRANCH   8   9
BRANCH   8  15
ATOM     15  O   UNL     1       4.026   5.140  20.521  0.00  0.00    +0.000 OA
ATOM     16  H   UNL     1       3.275   5.501  21.024  0.00  0.00    +0.000 HD
ENDBRANCH   8  15
BRANCH   1  17
ATOM     17  C   UNL     1       6.197   5.082  18.937  0.00  0.00    +0.000 C 
BRANCH  17  18
ATOM     18  C   UNL     1       7.354   5.455  18.051  0.00  0.00    +0.000 C 
ATOM     19  O   UNL     1       7.804   4.728  17.175  0.00  0.00    +0.000 OA
BRANCH  18  20
ATOM     20  O   UNL     1       7.856   6.665  18.420  0.00  0.00    +0.000 OA
BRANCH  20  22
ATOM     21  C   UNL     1       8.246   9.028  17.989  0.00  0.00    +0.000 C 
ATOM     22  C   UNL     1       7.537   7.763  17.555  0.00  0.00    +0.000 C 
ENDBRANCH  20  22
ENDBRANCH  18  20
ENDBRANCH  17  18
ENDBRANCH   1  17
TORSDOF 6
ENDMDL
MODEL 3
REMARK VINA RESULT:      -7.4      1.074      1.565
REMARK  Name = 
REMARK  7 active torsions:
REMARK  status: ('A' for Active; 'I' for Inactive)
REMARK    1  A    between atoms: C_1  and  C_2
REMARK    2  A    between atoms: C_2  and  O_3
REMARK    3  A    between atoms: O_3  and  C_4
REMARK    4  A    between atoms: C_4  and  C_6
REMARK    5  A    between atoms: C_6  and  C_7
REMARK    6  A    between atoms: C_14  and  O_15
REMARK    7  A    between atoms: C_14  and  C_16
REMARK                            x       y       z     vdW  Elec       q    Type
REMARK                         _______ _______ _______ _____ _____    ______ ____
ROOT
ATOM      1  C   UNL     1       3.921   5.331  17.575  0.00  0.00    +0.000 C 
ATOM      2  S   UNL     1       3.161   3.696  17.083  0.00  0.00    +0.000 S 
ATOM      3  C   UNL     1       2.239   3.610  18.530  0.00  0.00    +0.000 C 
ATOM      4  N   UNL     1       1.310   2.758  18.819  0.00  0.00    +0.000 NA
ATOM      5  C   UNL     1       0.873   3.199  20.190  0.00  0.00    +0.000 C 
ATOM      6  C   UNL     1       1.637   4.503  20.529  0.00  0.00    +0.000 C 
ATOM      7  N   UNL     1       2.555   4.561  19.429  0.00  0.00    +0.000 N 
ATOM      8  C   UNL     1       3.352   5.679  19.008  0.00  0.00    +0.000 C 
ENDROOT
BRANCH   8   9
ATOM      9  C   UNL     1       2.553   6.982  19.018  0.00  0.00    +0.000 A 
ATOM     10  C   UNL     1       2.382   7.739  17.845  0.00  0.00    +0.000 A 
ATOM     11  C   UNL     1       1.692   8.959  17.869  0.00  0.00    +0.000 A 
ATOM     12  C   UNL     1       1.160   9.438  19.062  0.00  0.00    +0.000 A 
ATOM     13  C   UNL     1       1.310   8.702  20.233  0.00  0.00    +0.000 A 
ATOM     14  C   UNL     1       1.998   7.482  20.212  0.00  0.00    +0.000 A 
ENDBRANCH   8   9
BRANCH   8  15
ATOM     15  O   UNL     1       4.406   5.724  19.957  0.00  0.00    +0.000 OA
ATOM     16  H   UNL     1       4.181   6.509  20.487  0.00  0.00    +0.000 HD
ENDBRANCH   8  15
BRANCH   1  17
ATOM     17  C   UNL     1       5.454   5.277  17.524  0.00  0.00    +0.000 C 
BRANCH  17  18
ATOM     18  C   UNL     1       6.006   6.165  16.441  0.00  0.00    +0.000 C 
ATOM     19  O   UNL     1       5.349   6.571  15.492  0.00  0.00    +0.000 OA
BRANCH  18  20
ATOM     20  O   UNL     1       7.337   6.374  16.639  0.00  0.00    +0.000 OA
BRANCH  20  22
ATOM     21  C   UNL     1       7.931   8.452  17.756  0.00  0.00    +0.000 C 
ATOM     22  C   UNL     1       7.695   6.964  17.896  0.00  0.00    +0.000 C 
ENDBRANCH  20  22
ENDBRANCH  18  20
ENDBRANCH  17  18
ENDBRANCH   1  17
TORSDOF 6
ENDMDL
MODEL 4
REMARK VINA RESULT:      -7.2      1.361      1.568
REMARK  Name = 
REMARK  7 active torsions:
REMARK  status: ('A' for Active; 'I' for Inactive)
REMARK    1  A    between atoms: C_1  and  C_2
REMARK    2  A    between atoms: C_2  and  O_3
REMARK    3  A    between atoms: O_3  and  C_4
REMARK    4  A    between atoms: C_4  and  C_6
REMARK    5  A    between atoms: C_6  and  C_7
REMARK    6  A    between atoms: C_14  and  O_15
REMARK    7  A    between atoms: C_14  and  C_16
REMARK                            x       y       z     vdW  Elec       q    Type
REMARK                         _______ _______ _______ _____ _____    ______ ____
ROOT
ATOM      1  C   UNL     1       3.567   5.036  17.503  0.00  0.00    +0.000 C 
ATOM      2  S   UNL     1       2.662   3.406  17.361  0.00  0.00    +0.000 S 
ATOM      3  C   UNL     1       2.093   3.503  18.980  0.00  0.00    +0.000 C 
ATOM      4  N   UNL     1       1.227   2.732  19.554  0.00  0.00    +0.000 NA
ATOM      5  C   UNL     1       1.130   3.320  20.936  0.00  0.00    +0.000 C 
ATOM      6  C   UNL     1       1.991   4.606  20.961  0.00  0.00    +0.000 C 
ATOM      7  N   UNL     1       2.636   4.513  19.683  0.00  0.00    +0.000 N 
ATOM      8  C   UNL     1       3.351   5.543  18.984  0.00  0.00    +0.000 C 
ENDROOT
BRANCH   8   9
ATOM      9  C   UNL     1       2.618   6.883  19.040  0.00  0.00    +0.000 A 
ATOM     10  C   UNL     1       2.069   7.362  20.242  0.00  0.00    +0.000 A 
ATOM     11  C   UNL     1       1.352   8.566  20.279  0.00  0.00    +0.000 A 
ATOM     12  C   UNL     1       1.179   9.312  19.116  0.00  0.00    +0.000 A 
ATOM     13  C   UNL     1       1.720   8.862  17.917  0.00  0.00    +0.000 A 
ATOM     14  C   UNL     1       2.437   7.659  17.878  0.00  0.00    +0.000 A 
ENDBRANCH   8   9
BRANCH   8  15
ATOM     15  O   UNL     1       4.595   5.618  19.663  0.00  0.00    +0.000 OA
ATOM     16  H   UNL     1       5.020   4.776  19.421  0.00  0.00    +0.000 HD
ENDBRANCH   8  15
BRANCH   1  17
ATOM     17  C   UNL     1       5.046   4.894  17.115  0.00  0.00    +0.000 C 
BRANCH  17  18
ATOM     18  C   UNL     1       5.557   6.124  16.414  0.00  0.00    +0.000 C 
ATOM     19  O   UNL     1       5.712   6.203  15.203  0.00  0.00    +0.000 OA
BRANCH  18  20
ATOM     20  O   UNL     1       5.883   7.081  17.325  0.00  0.00    +0.000 OA
BRANCH  20  22
ATOM     21  C   UNL     1       7.892   6.514  18.575  0.00  0.00    +0.000 C 
ATOM     22  C   UNL     1       7.283   7.352  17.471  0.00  0.00    +0.000 C 
ENDBRANCH  20  22
ENDBRANCH  18  20
ENDBRANCH  17  18
ENDBRANCH   1  17
TORSDOF 6
ENDMDL
MODEL 5
REMARK VINA RESULT:      -7.2      1.312      2.314
REMARK  Name = 
REMARK  7 active torsions:
REMARK  status: ('A' for Active; 'I' for Inactive)
REMARK    1  A    between atoms: C_1  and  C_2
REMARK    2  A    between atoms: C_2  and  O_3
REMARK    3  A    between atoms: O_3  and  C_4
REMARK    4  A    between atoms: C_4  and  C_6
REMARK    5  A    between atoms: C_6  and  C_7
REMARK    6  A    between atoms: C_14  and  O_15
REMARK    7  A    between atoms: C_14  and  C_16
REMARK                            x       y       z     vdW  Elec       q    Type
REMARK                         _______ _______ _______ _____ _____    ______ ____
ROOT
ATOM      1  C   UNL     1       4.088   5.444  17.609  0.00  0.00    +0.000 C 
ATOM      2  S   UNL     1       3.400   3.834  16.953  0.00  0.00    +0.000 S 
ATOM      3  C   UNL     1       2.357   3.648  18.306  0.00  0.00    +0.000 C 
ATOM      4  N   UNL     1       1.421   2.769  18.460  0.00  0.00    +0.000 NA
ATOM      5  C   UNL     1       0.859   3.121  19.812  0.00  0.00    +0.000 C 
ATOM      6  C   UNL     1       1.568   4.410  20.294  0.00  0.00    +0.000 C 
ATOM      7  N   UNL     1       2.578   4.546  19.285  0.00  0.00    +0.000 N 
ATOM      8  C   UNL     1       3.390   5.696  19.004  0.00  0.00    +0.000 C 
ENDROOT
BRANCH   8   9
ATOM      9  C   UNL     1       2.572   6.987  19.022  0.00  0.00    +0.000 A 
ATOM     10  C   UNL     1       2.416   7.766  17.862  0.00  0.00    +0.000 A 
ATOM     11  C   UNL     1       1.708   8.975  17.895  0.00  0.00    +0.000 A 
ATOM     12  C   UNL     1       1.141   9.421  19.085  0.00  0.00    +0.000 A 
ATOM     13  C   UNL     1       1.275   8.664  20.243  0.00  0.00    +0.000 A 
ATOM     14  C   UNL     1       1.982   7.454  20.213  0.00  0.00    +0.000 A 
ENDBRANCH   8   9
BRANCH   8  15
ATOM     15  O   UNL     1       4.356   5.694  20.043  0.00  0.00    +0.000 OA
ATOM     16  H   UNL     1       3.820   5.890  20.831  0.00  0.00    +0.000 HD
ENDBRANCH   8  15
BRANCH   1  17
ATOM     17  C   UNL     1       5.620   5.411  17.689  0.00  0.00    +0.000 C 
BRANCH  17  18
ATOM     18  C   UNL     1       6.250   6.337  16.684  0.00  0.00    +0.000 C 
ATOM     19  O   UNL     1       6.848   7.361  16.982  0.00  0.00    +0.000 OA
BRANCH  18  20
ATOM     20  O   UNL     1       5.987   5.905  15.420  0.00  0.00    +0.000 OA
BRANCH  20  22
ATOM     21  C   UNL     1       6.120   3.905  14.041  0.00  0.00    +0.000 C 
ATOM     22  C   UNL     1       6.866   4.894  14.910  0.00  0.00    +0.000 C 
ENDBRANCH  20  22
ENDBRANCH  18  20
ENDBRANCH  17  18
ENDBRANCH   1  17
TORSDOF 6
ENDMDL
MODEL 6
REMARK VINA RESULT:      -7.2      1.223      1.987
REMARK  Name = 
REMARK  7 active torsions:
REMARK  status: ('A' for Active; 'I' for Inactive)
REMARK    1  A    between atoms: C_1  and  C_2
REMARK    2  A    between atoms: C_2  and  O_3
REMARK    3  A    between atoms: O_3  and  C_4
REMARK    4  A    between atoms: C_4  and  C_6
REMARK    5  A    between atoms: C_6  and  C_7
REMARK    6  A    between atoms: C_14  and  O_15
REMARK    7  A    between atoms: C_14  and  C_16
REMARK                            x       y       z     vdW  Elec       q    Type
REMARK                         _______ _______ _______ _____ _____    ______ ____
ROOT
ATOM      1  C   UNL     1       4.240   5.203  17.656  0.00  0.00    +0.000 C 
ATOM      2  S   UNL     1       3.491   3.650  16.935  0.00  0.00    +0.000 S 
ATOM      3  C   UNL     1       2.347   3.526  18.211  0.00  0.00    +0.000 C 
ATOM      4  N   UNL     1       1.345   2.712  18.289  0.00  0.00    +0.000 NA
ATOM      5  C   UNL     1       0.717   3.090  19.604  0.00  0.00    +0.000 C 
ATOM      6  C   UNL     1       1.478   4.323  20.151  0.00  0.00    +0.000 C 
ATOM      7  N   UNL     1       2.561   4.398  19.214  0.00  0.00    +0.000 N 
ATOM      8  C   UNL     1       3.467   5.492  19.004  0.00  0.00    +0.000 C 
ENDROOT
BRANCH   8   9
ATOM      9  C   UNL     1       2.739   6.836  18.983  0.00  0.00    +0.000 A 
ATOM     10  C   UNL     1       2.104   7.337  20.132  0.00  0.00    +0.000 A 
ATOM     11  C   UNL     1       1.394   8.545  20.095  0.00  0.00    +0.000 A 
ATOM     12  C   UNL     1       1.313   9.272  18.911  0.00  0.00    +0.000 A 
ATOM     13  C   UNL     1       1.940   8.799  17.763  0.00  0.00    +0.000 A 
ATOM     14  C   UNL     1       2.650   7.593  17.798  0.00  0.00    +0.000 A 
ENDBRANCH   8   9
BRANCH   8  15
ATOM     15  O   UNL     1       4.357   5.415  20.106  0.00  0.00    +0.000 OA
ATOM     16  H   UNL     1       4.657   6.336  20.201  0.00  0.00    +0.000 HD
ENDBRANCH   8  15
BRANCH   1  17
ATOM     17  C   UNL     1       5.757   5.064  17.839  0.00  0.00    +0.000 C 
BRANCH  17  18
ATOM     18  C   UNL     1       6.517   5.822  16.785  0.00  0.00    +0.000 C 
ATOM     19  O   UNL     1       6.380   7.019  16.574  0.00  0.00    +0.000 OA
BRANCH  18  20
ATOM     20  O   UNL     1       7.304   4.971  16.071  0.00  0.00    +0.000 OA
BRANCH  20  22
ATOM     21  C   UNL     1       6.113   3.911  14.233  0.00  0.00    +0.000 C 
ATOM     22  C   UNL     1       7.102   4.977  14.652  0.00  0.00    +0.000 C 
ENDBRANCH  20  22
ENDBRANCH  18  20
ENDBRANCH  17  18
ENDBRANCH   1  17
TORSDOF 6
ENDMDL
MODEL 7
REMARK VINA RESULT:      -7.1      1.954      2.667
REMARK  Name = 
REMARK  7 active torsions:
REMARK  status: ('A' for Active; 'I' for Inactive)
REMARK    1  A    between atoms: C_1  and  C_2
REMARK    2  A    between atoms: C_2  and  O_3
REMARK    3  A    between atoms: O_3  and  C_4
REMARK    4  A    between atoms: C_4  and  C_6
REMARK    5  A    between atoms: C_6  and  C_7
REMARK    6  A    between atoms: C_14  and  O_15
REMARK    7  A    between atoms: C_14  and  C_16
REMARK                            x       y       z     vdW  Elec       q    Type
REMARK                         _______ _______ _______ _____ _____    ______ ____
ROOT
ATOM      1  C   UNL     1       3.613   5.120  17.505  0.00  0.00    +0.000 C 
ATOM      2  S   UNL     1       2.722   3.490  17.295  0.00  0.00    +0.000 S 
ATOM      3  C   UNL     1       2.104   3.542  18.898  0.00  0.00    +0.000 C 
ATOM      4  N   UNL     1       1.226   2.753  19.426  0.00  0.00    +0.000 NA
ATOM      5  C   UNL     1       1.084   3.305  20.819  0.00  0.00    +0.000 C 
ATOM      6  C   UNL     1       1.937   4.594  20.903  0.00  0.00    +0.000 C 
ATOM      7  N   UNL     1       2.620   4.537  19.642  0.00  0.00    +0.000 N 
ATOM      8  C   UNL     1       3.350   5.588  18.991  0.00  0.00    +0.000 C 
ENDROOT
BRANCH   8   9
ATOM      9  C   UNL     1       2.607   6.922  19.059  0.00  0.00    +0.000 A 
ATOM     10  C   UNL     1       2.051   7.385  20.264  0.00  0.00    +0.000 A 
ATOM     11  C   UNL     1       1.326   8.584  20.312  0.00  0.00    +0.000 A 
ATOM     12  C   UNL     1       1.151   9.340  19.157  0.00  0.00    +0.000 A 
ATOM     13  C   UNL     1       1.699   8.907  17.954  0.00  0.00    +0.000 A 
ATOM     14  C   UNL     1       2.424   7.709  17.905  0.00  0.00    +0.000 A 
ENDBRANCH   8   9
BRANCH   8  15
ATOM     15  O   UNL     1       4.572   5.652  19.709  0.00  0.00    +0.000 OA
ATOM     16  H   UNL     1       4.347   6.230  20.459  0.00  0.00    +0.000 HD
ENDBRANCH   8  15
BRANCH   1  17
ATOM     17  C   UNL     1       5.103   4.996  17.157  0.00  0.00    +0.000 C 
BRANCH  17  18
ATOM     18  C   UNL     1       5.368   5.336  15.716  0.00  0.00    +0.000 C 
ATOM     19  O   UNL     1       5.431   6.479  15.285  0.00  0.00    +0.000 OA
BRANCH  18  20
ATOM     20  O   UNL     1       5.447   4.197  14.973  0.00  0.00    +0.000 OA
BRANCH  20  22
ATOM     21  C   UNL     1       5.975   3.538  12.692  0.00  0.00    +0.000 C 
ATOM     22  C   UNL     1       6.472   4.175  13.972  0.00  0.00    +0.000 C 
ENDBRANCH  20  22
ENDBRANCH  18  20
ENDBRANCH  17  18
ENDBRANCH   1  17
TORSDOF 6
ENDMDL
MODEL 8
REMARK VINA RESULT:      -7.0      1.484      2.089
REMARK  Name = 
REMARK  7 active torsions:
REMARK  status: ('A' for Active; 'I' for Inactive)
REMARK    1  A    between atoms: C_1  and  C_2
REMARK    2  A    between atoms: C_2  and  O_3
REMARK    3  A    between atoms: O_3  and  C_4
REMARK    4  A    between atoms: C_4  and  C_6
REMARK    5  A    between atoms: C_6  and  C_7
REMARK    6  A    between atoms: C_14  and  O_15
REMARK    7  A    between atoms: C_14  and  C_16
REMARK                            x       y       z     vdW  Elec       q    Type
REMARK                         _______ _______ _______ _____ _____    ______ ____
ROOT
ATOM      1  C   UNL     1       4.439   4.970  18.282  0.00  0.00    +0.000 C 
ATOM      2  S   UNL     1       3.924   3.441  17.337  0.00  0.00    +0.000 S 
ATOM      3  C   UNL     1       2.469   3.291  18.238  0.00  0.00    +0.000 C 
ATOM      4  N   UNL     1       1.485   2.482  18.010  0.00  0.00    +0.000 NA
ATOM      5  C   UNL     1       0.514   2.829  19.106  0.00  0.00    +0.000 C 
ATOM      6  C   UNL     1       1.089   4.042  19.877  0.00  0.00    +0.000 C 
ATOM      7  N   UNL     1       2.392   4.134  19.284  0.00  0.00    +0.000 N 
ATOM      8  C   UNL     1       3.319   5.227  19.367  0.00  0.00    +0.000 C 
ENDROOT
BRANCH   8   9
ATOM      9  C   UNL     1       2.625   6.576  19.180  0.00  0.00    +0.000 A 
ATOM     10  C   UNL     1       2.615   7.222  17.931  0.00  0.00    +0.000 A 
ATOM     11  C   UNL     1       2.022   8.482  17.775  0.00  0.00    +0.000 A 
ATOM     12  C   UNL     1       1.427   9.114  18.863  0.00  0.00    +0.000 A 
ATOM     13  C   UNL     1       1.418   8.490  20.107  0.00  0.00    +0.000 A 
ATOM     14  C   UNL     1       2.009   7.230  20.265  0.00  0.00    +0.000 A 
ENDBRANCH   8   9
BRANCH   8  15
ATOM     15  O   UNL     1       3.864   5.115  20.672  0.00  0.00    +0.000 OA
ATOM     16  H   UNL     1       3.518   4.256  20.973  0.00  0.00    +0.000 HD
ENDBRANCH   8  15
BRANCH   1  17
ATOM     17  C   UNL     1       5.845   4.815  18.880  0.00  0.00    +0.000 C 
BRANCH  17  18
ATOM     18  C   UNL     1       6.903   4.777  17.811  0.00  0.00    +0.000 C 
ATOM     19  O   UNL     1       8.015   4.293  17.970  0.00  0.00    +0.000 OA
BRANCH  18  20
ATOM     20  O   UNL     1       6.464   5.421  16.694  0.00  0.00    +0.000 OA
BRANCH  20  22
ATOM     21  C   UNL     1       5.934   4.612  14.462  0.00  0.00    +0.000 C 
ATOM     22  C   UNL     1       7.021   4.968  15.454  0.00  0.00    +0.000 C 
ENDBRANCH  20  22
ENDBRANCH  18  20
ENDBRANCH  17  18
ENDBRANCH   1  17
TORSDOF 6
ENDMDL
MODEL 9
REMARK VINA RESULT:      -6.8      1.281      1.797
REMARK  Name = 
REMARK  7 active torsions:
REMARK  status: ('A' for Active; 'I' for Inactive)
REMARK    1  A    between atoms: C_1  and  C_2
REMARK    2  A    between atoms: C_2  and  O_3
REMARK    3  A    between atoms: O_3  and  C_4
REMARK    4  A    between atoms: C_4  and  C_6
REMARK    5  A    between atoms: C_6  and  C_7
REMARK    6  A    between atoms: C_14  and  O_15
REMARK    7  A    between atoms: C_14  and  C_16
REMARK                            x       y       z     vdW  Elec       q    Type
REMARK                         _______ _______ _______ _____ _____    ______ ____
ROOT
ATOM      1  C   UNL     1       4.443   4.520  18.440  0.00  0.00    +0.000 C 
ATOM      2  S   UNL     1       3.867   3.055  17.432  0.00  0.00    +0.000 S 
ATOM      3  C   UNL     1       2.357   2.998  18.250  0.00  0.00    +0.000 C 
ATOM      4  N   UNL     1       1.329   2.272  17.951  0.00  0.00    +0.000 NA
ATOM      5  C   UNL     1       0.328   2.670  19.002  0.00  0.00    +0.000 C 
ATOM      6  C   UNL     1       0.950   3.820  19.832  0.00  0.00    +0.000 C 
ATOM      7  N   UNL     1       2.286   3.823  19.311  0.00  0.00    +0.000 N 
ATOM      8  C   UNL     1       3.287   4.841  19.469  0.00  0.00    +0.000 C 
ENDROOT
BRANCH   8   9
ATOM      9  C   UNL     1       2.708   6.242  19.278  0.00  0.00    +0.000 A 
ATOM     10  C   UNL     1       2.813   6.911  18.046  0.00  0.00    +0.000 A 
ATOM     11  C   UNL     1       2.327   8.216  17.889  0.00  0.00    +0.000 A 
ATOM     12  C   UNL     1       1.723   8.870  18.960  0.00  0.00    +0.000 A 
ATOM     13  C   UNL     1       1.601   8.225  20.186  0.00  0.00    +0.000 A 
ATOM     14  C   UNL     1       2.086   6.921  20.345  0.00  0.00    +0.000 A 
ENDBRANCH   8   9
BRANCH   8  15
ATOM     15  O   UNL     1       3.750   4.661  20.798  0.00  0.00    +0.000 OA
ATOM     16  H   UNL     1       3.351   5.416  21.265  0.00  0.00    +0.000 HD
ENDBRANCH   8  15
BRANCH   1  17
ATOM     17  C   UNL     1       5.797   4.247  19.108  0.00  0.00    +0.000 C 
BRANCH  17  18
ATOM     18  C   UNL     1       6.641   5.490  19.184  0.00  0.00    +0.000 C 
ATOM     19  O   UNL     1       7.457   5.707  20.069  0.00  0.00    +0.000 OA
BRANCH  18  20
ATOM     20  O   UNL     1       6.305   6.347  18.180  0.00  0.00    +0.000 OA
BRANCH  20  22
ATOM     21  C   UNL     1       7.811   8.168  17.603  0.00  0.00    +0.000 C 
ATOM     22  C   UNL     1       7.376   6.747  17.316  0.00  0.00    +0.000 C 
ENDBRANCH  20  22
ENDBRANCH  18  20
ENDBRANCH  17  18
ENDBRANCH   1  17
TORSDOF 6
ENDMDL
