MODEL 1
REMARK VINA RESULT:      -7.3      0.000      0.000
REMARK  Name = 
REMARK  9 active torsions:
REMARK  status: ('A' for Active; 'I' for Inactive)
REMARK    1  A    between atoms: C_1  and  C_2
REMARK    2  A    between atoms: C_2  and  N_3
REMARK    3  A    between atoms: N_3  and  C_4
REMARK    4  A    between atoms: N_10  and  C_11
REMARK    5  A    between atoms: C_11  and  S_13
REMARK    6  A    between atoms: S_13  and  C_14
REMARK    7  A    between atoms: C_14  and  C_15
REMARK    8  A    between atoms: N_17  and  C_18
REMARK    9  A    between atoms: C_18  and  C_19
REMARK                            x       y       z     vdW  Elec       q    Type
REMARK                         _______ _______ _______ _____ _____    ______ ____
ROOT
ATOM      1  S   UNL     1       0.620  10.338  20.152  0.00  0.00    +0.000 S 
ENDROOT
BRANCH   1   2
ATOM      2  C   UNL     1      -0.285  11.852  19.964  0.00  0.00    +0.000 C 
ATOM      3  S   UNL     1       0.123  13.008  18.807  0.00  0.00    +0.000 S 
BRANCH   2  11
ATOM      4  N   UNL     1      -5.759  12.835  23.042  0.00  0.00    +0.000 N 
ATOM      5  C   UNL     1      -6.146  12.896  21.641  0.00  0.00    +0.000 C 
ATOM      6  C   UNL     1      -4.496  12.591  23.548  0.00  0.00    +0.000 C 
ATOM      7  O   UNL     1      -4.363  12.183  24.705  0.00  0.00    +0.000 OA
ATOM      8  N   UNL     1      -3.372  12.796  22.770  0.00  0.00    +0.000 N 
ATOM      9  C   UNL     1      -2.081  12.286  23.251  0.00  0.00    +0.000 C 
ATOM     10  C   UNL     1      -1.420  11.367  22.197  0.00  0.00    +0.000 C 
ATOM     11  N   UNL     1      -1.388  11.978  20.836  0.00  0.00    +0.000 N 
ATOM     12  C   UNL     1      -2.706  12.532  20.439  0.00  0.00    +0.000 C 
ATOM     13  C   UNL     1      -3.220  13.505  21.502  0.00  0.00    +0.000 C 
BRANCH   4  15
ATOM     14  C   UNL     1      -7.649  14.047  24.124  0.00  0.00    +0.000 C 
ATOM     15  C   UNL     1      -6.891  12.731  23.976  0.00  0.00    +0.000 C 
ENDBRANCH   4  15
ENDBRANCH   2  11
ENDBRANCH   1   2
BRANCH   1  16
ATOM     16  C   UNL     1       1.180   9.875  18.497  0.00  0.00    +0.000 C 
BRANCH  16  17
ATOM     17  C   UNL     1       1.946   8.600  18.551  0.00  0.00    +0.000 A 
ATOM     18  C   UNL     1       2.729   7.997  17.589  0.00  0.00    +0.000 A 
ATOM     19  N   UNL     1       3.189   6.865  18.196  0.00  0.00    +0.000 N 
ATOM     20  N   UNL     1       2.739   6.773  19.460  0.00  0.00    +0.000 NA
ATOM     21  N   UNL     1       1.969   7.829  19.688  0.00  0.00    +0.000 NA
BRANCH  19  22
ATOM     22  C   UNL     1       4.092   5.864  17.658  0.00  0.00    +0.000 C 
BRANCH  22  23
ATOM     23  C   UNL     1       3.668   4.481  18.067  0.00  0.00    +0.000 A 
ATOM     24  C   UNL     1       2.553   3.862  17.484  0.00  0.00    +0.000 A 
ATOM     25  C   UNL     1       2.228   2.544  17.814  0.00  0.00    +0.000 A 
ATOM     26  C   UNL     1       3.011   1.833  18.723  0.00  0.00    +0.000 A 
ATOM     27  C   UNL     1       4.110   2.445  19.322  0.00  0.00    +0.000 A 
ATOM     28  C   UNL     1       4.426   3.760  18.993  0.00  0.00    +0.000 A 
ATOM     29  F   UNL     1       5.490   4.336  19.571  0.00  0.00    +0.000 F 
ENDBRANCH  22  23
ENDBRANCH  19  22
ENDBRANCH  16  17
ENDBRANCH   1  16
TORSDOF 7
ENDMDL
MODEL 2
REMARK VINA RESULT:      -7.2      1.252      1.522
REMARK  Name = 
REMARK  9 active torsions:
REMARK  status: ('A' for Active; 'I' for Inactive)
REMARK    1  A    between atoms: C_1  and  C_2
REMARK    2  A    between atoms: C_2  and  N_3
REMARK    3  A    between atoms: N_3  and  C_4
REMARK    4  A    between atoms: N_10  and  C_11
REMARK    5  A    between atoms: C_11  and  S_13
REMARK    6  A    between atoms: S_13  and  C_14
REMARK    7  A    between atoms: C_14  and  C_15
REMARK    8  A    between atoms: N_17  and  C_18
REMARK    9  A    between atoms: C_18  and  C_19
REMARK                            x       y       z     vdW  Elec       q    Type
REMARK                         _______ _______ _______ _____ _____    ______ ____
ROOT
ATOM      1  S   UNL     1       0.359   9.746  19.539  0.00  0.00    +0.000 S 
ENDROOT
BRANCH   1   2
ATOM      2  C   UNL     1       0.032  11.473  19.781  0.00  0.00    +0.000 C 
ATOM      3  S   UNL     1       0.909  12.675  18.990  0.00  0.00    +0.000 S 
BRANCH   2  11
ATOM      4  N   UNL     1      -5.356  12.908  22.834  0.00  0.00    +0.000 N 
ATOM      5  C   UNL     1      -5.793  12.687  21.464  0.00  0.00    +0.000 C 
ATOM      6  C   UNL     1      -4.068  12.796  23.325  0.00  0.00    +0.000 C 
ATOM      7  O   UNL     1      -3.881  12.624  24.533  0.00  0.00    +0.000 OA
ATOM      8  N   UNL     1      -2.979  12.872  22.477  0.00  0.00    +0.000 N 
ATOM      9  C   UNL     1      -1.657  12.495  22.994  0.00  0.00    +0.000 C 
ATOM     10  C   UNL     1      -1.007  11.405  22.110  0.00  0.00    +0.000 C 
ATOM     11  N   UNL     1      -1.041  11.740  20.657  0.00  0.00    +0.000 N 
ATOM     12  C   UNL     1      -2.390  12.176  20.215  0.00  0.00    +0.000 C 
ATOM     13  C   UNL     1      -2.894  13.325  21.090  0.00  0.00    +0.000 C 
BRANCH   4  15
ATOM     14  C   UNL     1      -7.127  14.328  23.863  0.00  0.00    +0.000 C 
ATOM     15  C   UNL     1      -6.449  12.961  23.816  0.00  0.00    +0.000 C 
ENDBRANCH   4  15
ENDBRANCH   2  11
ENDBRANCH   1   2
BRANCH   1  16
ATOM     16  C   UNL     1       1.443   9.635  18.097  0.00  0.00    +0.000 C 
BRANCH  16  17
ATOM     17  C   UNL     1       2.318   8.435  18.203  0.00  0.00    +0.000 A 
ATOM     18  C   UNL     1       2.418   7.499  19.211  0.00  0.00    +0.000 A 
ATOM     19  N   UNL     1       3.366   6.627  18.763  0.00  0.00    +0.000 N 
ATOM     20  N   UNL     1       3.818   6.981  17.546  0.00  0.00    +0.000 NA
ATOM     21  N   UNL     1       3.186   8.093  17.194  0.00  0.00    +0.000 NA
BRANCH  19  22
ATOM     22  C   UNL     1       3.847   5.418  19.407  0.00  0.00    +0.000 C 
BRANCH  22  23
ATOM     23  C   UNL     1       2.829   4.316  19.312  0.00  0.00    +0.000 A 
ATOM     24  C   UNL     1       1.817   4.179  20.272  0.00  0.00    +0.000 A 
ATOM     25  C   UNL     1       0.829   3.203  20.119  0.00  0.00    +0.000 A 
ATOM     26  C   UNL     1       0.840   2.361  19.007  0.00  0.00    +0.000 A 
ATOM     27  C   UNL     1       1.851   2.478  18.056  0.00  0.00    +0.000 A 
ATOM     28  C   UNL     1       2.835   3.448  18.217  0.00  0.00    +0.000 A 
ATOM     29  F   UNL     1       3.800   3.555  17.292  0.00  0.00    +0.000 F 
ENDBRANCH  22  23
ENDBRANCH  19  22
ENDBRANCH  16  17
ENDBRANCH   1  16
TORSDOF 7
ENDMDL
MODEL 3
REMARK VINA RESULT:      -7.2      1.397      1.686
REMARK  Name = 
REMARK  9 active torsions:
REMARK  status: ('A' for Active; 'I' for Inactive)
REMARK    1  A    between atoms: C_1  and  C_2
REMARK    2  A    between atoms: C_2  and  N_3
REMARK    3  A    between atoms: N_3  and  C_4
REMARK    4  A    between atoms: N_10  and  C_11
REMARK    5  A    between atoms: C_11  and  S_13
REMARK    6  A    between atoms: S_13  and  C_14
REMARK    7  A    between atoms: C_14  and  C_15
REMARK    8  A    between atoms: N_17  and  C_18
REMARK    9  A    between atoms: C_18  and  C_19
REMARK                            x       y       z     vdW  Elec       q    Type
REMARK                         _______ _______ _______ _____ _____    ______ ____
ROOT
ATOM      1  S   UNL     1      -0.258  10.432  18.440  0.00  0.00    +0.000 S 
ENDROOT
BRANCH   1   2
ATOM      2  C   UNL     1      -0.060  11.777  19.579  0.00  0.00    +0.000 C 
ATOM      3  S   UNL     1       1.273  12.806  19.536  0.00  0.00    +0.000 S 
BRANCH   2  11
ATOM      4  N   UNL     1      -5.384  12.925  22.859  0.00  0.00    +0.000 N 
ATOM      5  C   UNL     1      -5.804  13.068  21.474  0.00  0.00    +0.000 C 
ATOM      6  C   UNL     1      -4.122  12.590  23.316  0.00  0.00    +0.000 C 
ATOM      7  O   UNL     1      -3.981  12.126  24.451  0.00  0.00    +0.000 OA
ATOM      8  N   UNL     1      -3.011  12.766  22.514  0.00  0.00    +0.000 N 
ATOM      9  C   UNL     1      -1.738  12.165  22.935  0.00  0.00    +0.000 C 
ATOM     10  C   UNL     1      -1.159  11.259  21.823  0.00  0.00    +0.000 C 
ATOM     11  N   UNL     1      -1.130  11.925  20.489  0.00  0.00    +0.000 N 
ATOM     12  C   UNL     1      -2.425  12.567  20.155  0.00  0.00    +0.000 C 
ATOM     13  C   UNL     1      -2.854  13.520  21.272  0.00  0.00    +0.000 C 
BRANCH   4  15
ATOM     14  C   UNL     1      -7.734  12.182  23.226  0.00  0.00    +0.000 C 
ATOM     15  C   UNL     1      -6.493  12.842  23.821  0.00  0.00    +0.000 C 
ENDBRANCH   4  15
ENDBRANCH   2  11
ENDBRANCH   1   2
BRANCH   1  16
ATOM     16  C   UNL     1       1.403   9.797  18.115  0.00  0.00    +0.000 C 
BRANCH  16  17
ATOM     17  C   UNL     1       1.696   8.643  19.009  0.00  0.00    +0.000 A 
ATOM     18  C   UNL     1       2.470   7.524  18.783  0.00  0.00    +0.000 A 
ATOM     19  N   UNL     1       2.387   6.821  19.950  0.00  0.00    +0.000 N 
ATOM     20  N   UNL     1       1.627   7.466  20.853  0.00  0.00    +0.000 NA
ATOM     21  N   UNL     1       1.191   8.582  20.285  0.00  0.00    +0.000 NA
BRANCH  19  22
ATOM     22  C   UNL     1       3.040   5.571  20.291  0.00  0.00    +0.000 C 
BRANCH  22  23
ATOM     23  C   UNL     1       2.683   4.492  19.307  0.00  0.00    +0.000 A 
ATOM     24  C   UNL     1       3.575   4.108  18.295  0.00  0.00    +0.000 A 
ATOM     25  C   UNL     1       3.261   3.045  17.446  0.00  0.00    +0.000 A 
ATOM     26  C   UNL     1       2.060   2.353  17.600  0.00  0.00    +0.000 A 
ATOM     27  C   UNL     1       1.159   2.738  18.591  0.00  0.00    +0.000 A 
ATOM     28  C   UNL     1       1.475   3.801  19.430  0.00  0.00    +0.000 A 
ATOM     29  F   UNL     1       0.603   4.157  20.384  0.00  0.00    +0.000 F 
ENDBRANCH  22  23
ENDBRANCH  19  22
ENDBRANCH  16  17
ENDBRANCH   1  16
TORSDOF 7
ENDMDL
MODEL 4
REMARK VINA RESULT:      -7.0      3.991      5.335
REMARK  Name = 
REMARK  9 active torsions:
REMARK  status: ('A' for Active; 'I' for Inactive)
REMARK    1  A    between atoms: C_1  and  C_2
REMARK    2  A    between atoms: C_2  and  N_3
REMARK    3  A    between atoms: N_3  and  C_4
REMARK    4  A    between atoms: N_10  and  C_11
REMARK    5  A    between atoms: C_11  and  S_13
REMARK    6  A    between atoms: S_13  and  C_14
REMARK    7  A    between atoms: C_14  and  C_15
REMARK    8  A    between atoms: N_17  and  C_18
REMARK    9  A    between atoms: C_18  and  C_19
REMARK                            x       y       z     vdW  Elec       q    Type
REMARK                         _______ _______ _______ _____ _____    ______ ____
ROOT
ATOM      1  S   UNL     1       0.707   9.629  19.681  0.00  0.00    +0.000 S 
ENDROOT
BRANCH   1   2
ATOM      2  C   UNL     1       0.258  10.930  20.801  0.00  0.00    +0.000 C 
ATOM      3  S   UNL     1      -0.416  10.624  22.314  0.00  0.00    +0.000 S 
BRANCH   2  11
ATOM      4  N   UNL     1       0.515  16.871  18.552  0.00  0.00    +0.000 N 
ATOM      5  C   UNL     1      -0.869  16.731  18.978  0.00  0.00    +0.000 C 
ATOM      6  C   UNL     1       1.517  15.923  18.655  0.00  0.00    +0.000 C 
ATOM      7  O   UNL     1       2.701  16.273  18.629  0.00  0.00    +0.000 OA
ATOM      8  N   UNL     1       1.211  14.583  18.788  0.00  0.00    +0.000 N 
ATOM      9  C   UNL     1       2.285  13.648  19.149  0.00  0.00    +0.000 C 
ATOM     10  C   UNL     1       1.912  12.834  20.410  0.00  0.00    +0.000 C 
ATOM     11  N   UNL     1       0.552  12.226  20.326  0.00  0.00    +0.000 N 
ATOM     12  C   UNL     1      -0.474  13.208  19.893  0.00  0.00    +0.000 C 
ATOM     13  C   UNL     1      -0.054  13.880  18.584  0.00  0.00    +0.000 C 
BRANCH   4  15
ATOM     14  C   UNL     1       0.838  18.596  16.784  0.00  0.00    +0.000 C 
ATOM     15  C   UNL     1       0.923  18.255  18.269  0.00  0.00    +0.000 C 
ENDBRANCH   4  15
ENDBRANCH   2  11
ENDBRANCH   1   2
BRANCH   1  16
ATOM     16  C   UNL     1       1.462   8.333  20.690  0.00  0.00    +0.000 C 
BRANCH  16  17
ATOM     17  C   UNL     1       2.121   7.321  19.818  0.00  0.00    +0.000 A 
ATOM     18  C   UNL     1       2.415   5.997  20.067  0.00  0.00    +0.000 A 
ATOM     19  N   UNL     1       3.001   5.564  18.914  0.00  0.00    +0.000 N 
ATOM     20  N   UNL     1       3.054   6.546  17.996  0.00  0.00    +0.000 NA
ATOM     21  N   UNL     1       2.522   7.632  18.542  0.00  0.00    +0.000 NA
BRANCH  19  22
ATOM     22  C   UNL     1       3.480   4.231  18.598  0.00  0.00    +0.000 C 
BRANCH  22  23
ATOM     23  C   UNL     1       4.737   4.292  17.775  0.00  0.00    +0.000 A 
ATOM     24  C   UNL     1       4.721   3.998  16.404  0.00  0.00    +0.000 A 
ATOM     25  C   UNL     1       5.881   4.145  15.640  0.00  0.00    +0.000 A 
ATOM     26  C   UNL     1       7.063   4.589  16.234  0.00  0.00    +0.000 A 
ATOM     27  C   UNL     1       7.093   4.865  17.599  0.00  0.00    +0.000 A 
ATOM     28  C   UNL     1       5.936   4.712  18.356  0.00  0.00    +0.000 A 
ATOM     29  F   UNL     1       5.977   4.988  19.667  0.00  0.00    +0.000 F 
ENDBRANCH  22  23
ENDBRANCH  19  22
ENDBRANCH  16  17
ENDBRANCH   1  16
TORSDOF 7
ENDMDL
MODEL 5
REMARK VINA RESULT:      -7.0      1.649      1.821
REMARK  Name = 
REMARK  9 active torsions:
REMARK  status: ('A' for Active; 'I' for Inactive)
REMARK    1  A    between atoms: C_1  and  C_2
REMARK    2  A    between atoms: C_2  and  N_3
REMARK    3  A    between atoms: N_3  and  C_4
REMARK    4  A    between atoms: N_10  and  C_11
REMARK    5  A    between atoms: C_11  and  S_13
REMARK    6  A    between atoms: S_13  and  C_14
REMARK    7  A    between atoms: C_14  and  C_15
REMARK    8  A    between atoms: N_17  and  C_18
REMARK    9  A    between atoms: C_18  and  C_19
REMARK                            x       y       z     vdW  Elec       q    Type
REMARK                         _______ _______ _______ _____ _____    ______ ____
ROOT
ATOM      1  S   UNL     1       1.140  12.070  20.076  0.00  0.00    +0.000 S 
ENDROOT
BRANCH   1   2
ATOM      2  C   UNL     1       0.035  13.458  20.111  0.00  0.00    +0.000 C 
ATOM      3  S   UNL     1       0.291  14.837  19.179  0.00  0.00    +0.000 S 
BRANCH   2  11
ATOM      4  N   UNL     1      -5.582  12.976  23.049  0.00  0.00    +0.000 N 
ATOM      5  C   UNL     1      -5.939  12.983  21.639  0.00  0.00    +0.000 C 
ATOM      6  C   UNL     1      -4.309  13.034  23.586  0.00  0.00    +0.000 C 
ATOM      7  O   UNL     1      -4.107  12.636  24.737  0.00  0.00    +0.000 OA
ATOM      8  N   UNL     1      -3.253  13.532  22.847  0.00  0.00    +0.000 N 
ATOM      9  C   UNL     1      -1.887  13.339  23.354  0.00  0.00    +0.000 C 
ATOM     10  C   UNL     1      -0.997  12.642  22.298  0.00  0.00    +0.000 C 
ATOM     11  N   UNL     1      -1.084  13.283  20.953  0.00  0.00    +0.000 N 
ATOM     12  C   UNL     1      -2.489  13.509  20.530  0.00  0.00    +0.000 C 
ATOM     13  C   UNL     1      -3.250  14.294  21.600  0.00  0.00    +0.000 C 
BRANCH   4  15
ATOM     14  C   UNL     1      -7.810  11.870  23.204  0.00  0.00    +0.000 C 
ATOM     15  C   UNL     1      -6.674  12.570  23.946  0.00  0.00    +0.000 C 
ENDBRANCH   4  15
ENDBRANCH   2  11
ENDBRANCH   1   2
BRANCH   1  16
ATOM     16  C   UNL     1       0.181  10.677  19.437  0.00  0.00    +0.000 C 
BRANCH  16  17
ATOM     17  C   UNL     1       0.856   9.393  19.769  0.00  0.00    +0.000 A 
ATOM     18  C   UNL     1       1.757   8.652  19.034  0.00  0.00    +0.000 A 
ATOM     19  N   UNL     1       2.044   7.586  19.836  0.00  0.00    +0.000 N 
ATOM     20  N   UNL     1       1.381   7.663  21.004  0.00  0.00    +0.000 NA
ATOM     21  N   UNL     1       0.643   8.764  20.972  0.00  0.00    +0.000 NA
BRANCH  19  22
ATOM     22  C   UNL     1       2.970   6.497  19.582  0.00  0.00    +0.000 C 
BRANCH  22  23
ATOM     23  C   UNL     1       2.234   5.204  19.368  0.00  0.00    +0.000 A 
ATOM     24  C   UNL     1       1.865   4.783  18.082  0.00  0.00    +0.000 A 
ATOM     25  C   UNL     1       1.260   3.539  17.896  0.00  0.00    +0.000 A 
ATOM     26  C   UNL     1       1.022   2.702  18.987  0.00  0.00    +0.000 A 
ATOM     27  C   UNL     1       1.368   3.118  20.270  0.00  0.00    +0.000 A 
ATOM     28  C   UNL     1       1.966   4.362  20.450  0.00  0.00    +0.000 A 
ATOM     29  F   UNL     1       2.301   4.748  21.689  0.00  0.00    +0.000 F 
ENDBRANCH  22  23
ENDBRANCH  19  22
ENDBRANCH  16  17
ENDBRANCH   1  16
TORSDOF 7
ENDMDL
MODEL 6
REMARK VINA RESULT:      -7.0      1.606      1.949
REMARK  Name = 
REMARK  9 active torsions:
REMARK  status: ('A' for Active; 'I' for Inactive)
REMARK    1  A    between atoms: C_1  and  C_2
REMARK    2  A    between atoms: C_2  and  N_3
REMARK    3  A    between atoms: N_3  and  C_4
REMARK    4  A    between atoms: N_10  and  C_11
REMARK    5  A    between atoms: C_11  and  S_13
REMARK    6  A    between atoms: S_13  and  C_14
REMARK    7  A    between atoms: C_14  and  C_15
REMARK    8  A    between atoms: N_17  and  C_18
REMARK    9  A    between atoms: C_18  and  C_19
REMARK                            x       y       z     vdW  Elec       q    Type
REMARK                         _______ _______ _______ _____ _____    ______ ____
ROOT
ATOM      1  S   UNL     1       1.097   9.295  19.022  0.00  0.00    +0.000 S 
ENDROOT
BRANCH   1   2
ATOM      2  C   UNL     1       0.861  11.029  19.313  0.00  0.00    +0.000 C 
ATOM      3  S   UNL     1       1.863  12.201  18.634  0.00  0.00    +0.000 S 
BRANCH   2  11
ATOM      4  N   UNL     1      -4.499  12.969  22.127  0.00  0.00    +0.000 N 
ATOM      5  C   UNL     1      -4.754  13.210  20.715  0.00  0.00    +0.000 C 
ATOM      6  C   UNL     1      -3.359  12.421  22.686  0.00  0.00    +0.000 C 
ATOM      7  O   UNL     1      -3.406  11.914  23.811  0.00  0.00    +0.000 OA
ATOM      8  N   UNL     1      -2.161  12.428  21.998  0.00  0.00    +0.000 N 
ATOM      9  C   UNL     1      -1.050  11.616  22.511  0.00  0.00    +0.000 C 
ATOM     10  C   UNL     1      -0.520  10.651  21.425  0.00  0.00    +0.000 C 
ATOM     11  N   UNL     1      -0.253  11.332  20.124  0.00  0.00    +0.000 N 
ATOM     12  C   UNL     1      -1.389  12.187  19.697  0.00  0.00    +0.000 C 
ATOM     13  C   UNL     1      -1.764  13.173  20.805  0.00  0.00    +0.000 C 
BRANCH   4  15
ATOM     14  C   UNL     1      -6.989  12.896  22.184  0.00  0.00    +0.000 C 
ATOM     15  C   UNL     1      -5.695  13.050  22.979  0.00  0.00    +0.000 C 
ENDBRANCH   4  15
ENDBRANCH   2  11
ENDBRANCH   1   2
BRANCH   1  16
ATOM     16  C   UNL     1       2.566   9.154  17.979  0.00  0.00    +0.000 C 
BRANCH  16  17
ATOM     17  C   UNL     1       2.940   7.723  17.809  0.00  0.00    +0.000 A 
ATOM     18  C   UNL     1       2.195   6.582  18.023  0.00  0.00    +0.000 A 
ATOM     19  N   UNL     1       3.042   5.565  17.694  0.00  0.00    +0.000 N 
ATOM     20  N   UNL     1       4.233   6.036  17.283  0.00  0.00    +0.000 NA
ATOM     21  N   UNL     1       4.185   7.360  17.355  0.00  0.00    +0.000 NA
BRANCH  19  22
ATOM     22  C   UNL     1       2.772   4.139  17.694  0.00  0.00    +0.000 C 
BRANCH  22  23
ATOM     23  C   UNL     1       2.473   3.648  19.083  0.00  0.00    +0.000 A 
ATOM     24  C   UNL     1       1.157   3.576  19.560  0.00  0.00    +0.000 A 
ATOM     25  C   UNL     1       0.894   3.035  20.821  0.00  0.00    +0.000 A 
ATOM     26  C   UNL     1       1.938   2.559  21.614  0.00  0.00    +0.000 A 
ATOM     27  C   UNL     1       3.252   2.643  21.156  0.00  0.00    +0.000 A 
ATOM     28  C   UNL     1       3.508   3.188  19.902  0.00  0.00    +0.000 A 
ATOM     29  F   UNL     1       4.775   3.257  19.470  0.00  0.00    +0.000 F 
ENDBRANCH  22  23
ENDBRANCH  19  22
ENDBRANCH  16  17
ENDBRANCH   1  16
TORSDOF 7
ENDMDL
MODEL 7
REMARK VINA RESULT:      -7.0      1.177      1.363
REMARK  Name = 
REMARK  9 active torsions:
REMARK  status: ('A' for Active; 'I' for Inactive)
REMARK    1  A    between atoms: C_1  and  C_2
REMARK    2  A    between atoms: C_2  and  N_3
REMARK    3  A    between atoms: N_3  and  C_4
REMARK    4  A    between atoms: N_10  and  C_11
REMARK    5  A    between atoms: C_11  and  S_13
REMARK    6  A    between atoms: S_13  and  C_14
REMARK    7  A    between atoms: C_14  and  C_15
REMARK    8  A    between atoms: N_17  and  C_18
REMARK    9  A    between atoms: C_18  and  C_19
REMARK                            x       y       z     vdW  Elec       q    Type
REMARK                         _______ _______ _______ _____ _____    ______ ____
ROOT
ATOM      1  S   UNL     1      -0.135  10.409  18.850  0.00  0.00    +0.000 S 
ENDROOT
BRANCH   1   2
ATOM      2  C   UNL     1       0.063  11.711  20.039  0.00  0.00    +0.000 C 
ATOM      3  S   UNL     1       1.453  12.661  20.111  0.00  0.00    +0.000 S 
BRANCH   2  11
ATOM      4  N   UNL     1      -5.472  12.874  22.940  0.00  0.00    +0.000 N 
ATOM      5  C   UNL     1      -5.840  12.788  21.535  0.00  0.00    +0.000 C 
ATOM      6  C   UNL     1      -4.211  12.708  23.482  0.00  0.00    +0.000 C 
ATOM      7  O   UNL     1      -4.086  12.420  24.676  0.00  0.00    +0.000 OA
ATOM      8  N   UNL     1      -3.081  12.860  22.702  0.00  0.00    +0.000 N 
ATOM      9  C   UNL     1      -1.787  12.428  23.246  0.00  0.00    +0.000 C 
ATOM     10  C   UNL     1      -1.093  11.424  22.295  0.00  0.00    +0.000 C 
ATOM     11  N   UNL     1      -1.054  11.898  20.881  0.00  0.00    +0.000 N 
ATOM     12  C   UNL     1      -2.378  12.382  20.416  0.00  0.00    +0.000 C 
ATOM     13  C   UNL     1      -2.926  13.444  21.371  0.00  0.00    +0.000 C 
BRANCH   4  15
ATOM     14  C   UNL     1      -7.336  14.180  23.956  0.00  0.00    +0.000 C 
ATOM     15  C   UNL     1      -6.614  12.838  23.867  0.00  0.00    +0.000 C 
ENDBRANCH   4  15
ENDBRANCH   2  11
ENDBRANCH   1   2
BRANCH   1  16
ATOM     16  C   UNL     1       1.525  10.010  18.256  0.00  0.00    +0.000 C 
BRANCH  16  17
ATOM     17  C   UNL     1       1.903   8.632  18.674  0.00  0.00    +0.000 A 
ATOM     18  C   UNL     1       1.778   8.015  19.901  0.00  0.00    +0.000 A 
ATOM     19  N   UNL     1       2.275   6.761  19.694  0.00  0.00    +0.000 N 
ATOM     20  N   UNL     1       2.668   6.597  18.418  0.00  0.00    +0.000 NA
ATOM     21  N   UNL     1       2.451   7.741  17.784  0.00  0.00    +0.000 NA
BRANCH  19  22
ATOM     22  C   UNL     1       2.355   5.662  20.639  0.00  0.00    +0.000 C 
BRANCH  22  23
ATOM     23  C   UNL     1       2.247   4.338  19.935  0.00  0.00    +0.000 A 
ATOM     24  C   UNL     1       1.001   3.741  19.698  0.00  0.00    +0.000 A 
ATOM     25  C   UNL     1       0.916   2.555  18.966  0.00  0.00    +0.000 A 
ATOM     26  C   UNL     1       2.071   1.957  18.461  0.00  0.00    +0.000 A 
ATOM     27  C   UNL     1       3.316   2.532  18.706  0.00  0.00    +0.000 A 
ATOM     28  C   UNL     1       3.394   3.711  19.441  0.00  0.00    +0.000 A 
ATOM     29  F   UNL     1       4.597   4.259  19.665  0.00  0.00    +0.000 F 
ENDBRANCH  22  23
ENDBRANCH  19  22
ENDBRANCH  16  17
ENDBRANCH   1  16
TORSDOF 7
ENDMDL
MODEL 8
REMARK VINA RESULT:      -7.0      4.752     10.940
REMARK  Name = 
REMARK  9 active torsions:
REMARK  status: ('A' for Active; 'I' for Inactive)
REMARK    1  A    between atoms: C_1  and  C_2
REMARK    2  A    between atoms: C_2  and  N_3
REMARK    3  A    between atoms: N_3  and  C_4
REMARK    4  A    between atoms: N_10  and  C_11
REMARK    5  A    between atoms: C_11  and  S_13
REMARK    6  A    between atoms: S_13  and  C_14
REMARK    7  A    between atoms: C_14  and  C_15
REMARK    8  A    between atoms: N_17  and  C_18
REMARK    9  A    between atoms: C_18  and  C_19
REMARK                            x       y       z     vdW  Elec       q    Type
REMARK                         _______ _______ _______ _____ _____    ______ ____
ROOT
ATOM      1  S   UNL     1       1.131   5.658  20.460  0.00  0.00    +0.000 S 
ENDROOT
BRANCH   1   2
ATOM      2  C   UNL     1       2.366   4.438  20.097  0.00  0.00    +0.000 C 
ATOM      3  S   UNL     1       2.562   3.049  21.029  0.00  0.00    +0.000 S 
BRANCH   2  11
ATOM      4  N   UNL     1       6.297   4.760  15.110  0.00  0.00    +0.000 N 
ATOM      5  C   UNL     1       6.322   3.350  15.469  0.00  0.00    +0.000 C 
ATOM      6  C   UNL     1       5.558   5.760  15.716  0.00  0.00    +0.000 C 
ATOM      7  O   UNL     1       5.317   6.804  15.105  0.00  0.00    +0.000 OA
ATOM      8  N   UNL     1       5.082   5.604  17.004  0.00  0.00    +0.000 N 
ATOM      9  C   UNL     1       4.096   6.569  17.510  0.00  0.00    +0.000 C 
ATOM     10  C   UNL     1       2.826   5.848  18.020  0.00  0.00    +0.000 C 
ATOM     11  N   UNL     1       3.133   4.719  18.945  0.00  0.00    +0.000 N 
ATOM     12  C   UNL     1       4.183   3.820  18.403  0.00  0.00    +0.000 C 
ATOM     13  C   UNL     1       5.431   4.621  18.027  0.00  0.00    +0.000 C 
BRANCH   4  15
ATOM     14  C   UNL     1       6.623   3.959  12.773  0.00  0.00    +0.000 C 
ATOM     15  C   UNL     1       6.888   5.060  13.797  0.00  0.00    +0.000 C 
ENDBRANCH   4  15
ENDBRANCH   2  11
ENDBRANCH   1   2
BRANCH   1  16
ATOM     16  C   UNL     1       2.024   7.146  20.966  0.00  0.00    +0.000 C 
BRANCH  16  17
ATOM     17  C   UNL     1       1.230   8.361  20.632  0.00  0.00    +0.000 A 
ATOM     18  C   UNL     1       1.248   9.145  19.497  0.00  0.00    +0.000 A 
ATOM     19  N   UNL     1       0.309  10.104  19.742  0.00  0.00    +0.000 N 
ATOM     20  N   UNL     1      -0.271   9.924  20.942  0.00  0.00    +0.000 NA
ATOM     21  N   UNL     1       0.291   8.860  21.501  0.00  0.00    +0.000 NA
BRANCH  19  22
ATOM     22  C   UNL     1      -0.121  11.179  18.867  0.00  0.00    +0.000 C 
BRANCH  22  23
ATOM     23  C   UNL     1      -1.563  11.011  18.477  0.00  0.00    +0.000 A 
ATOM     24  C   UNL     1      -2.561  11.839  19.012  0.00  0.00    +0.000 A 
ATOM     25  C   UNL     1      -3.881  11.724  18.571  0.00  0.00    +0.000 A 
ATOM     26  C   UNL     1      -4.217  10.788  17.593  0.00  0.00    +0.000 A 
ATOM     27  C   UNL     1      -3.237   9.948  17.069  0.00  0.00    +0.000 A 
ATOM     28  C   UNL     1      -1.924  10.064  17.515  0.00  0.00    +0.000 A 
ATOM     29  F   UNL     1      -0.988   9.255  16.998  0.00  0.00    +0.000 F 
ENDBRANCH  22  23
ENDBRANCH  19  22
ENDBRANCH  16  17
ENDBRANCH   1  16
TORSDOF 7
ENDMDL
MODEL 9
REMARK VINA RESULT:      -6.9      3.793      5.731
REMARK  Name = 
REMARK  9 active torsions:
REMARK  status: ('A' for Active; 'I' for Inactive)
REMARK    1  A    between atoms: C_1  and  C_2
REMARK    2  A    between atoms: C_2  and  N_3
REMARK    3  A    between atoms: N_3  and  C_4
REMARK    4  A    between atoms: N_10  and  C_11
REMARK    5  A    between atoms: C_11  and  S_13
REMARK    6  A    between atoms: S_13  and  C_14
REMARK    7  A    between atoms: C_14  and  C_15
REMARK    8  A    between atoms: N_17  and  C_18
REMARK    9  A    between atoms: C_18  and  C_19
REMARK                            x       y       z     vdW  Elec       q    Type
REMARK                         _______ _______ _______ _____ _____    ______ ____
ROOT
ATOM      1  S   UNL     1      -1.180  10.568  18.732  0.00  0.00    +0.000 S 
ENDROOT
BRANCH   1   2
ATOM      2  C   UNL     1      -1.488  12.134  19.507  0.00  0.00    +0.000 C 
ATOM      3  S   UNL     1      -3.029  12.609  19.996  0.00  0.00    +0.000 S 
BRANCH   2  11
ATOM      4  N   UNL     1       3.419  16.175  19.518  0.00  0.00    +0.000 N 
ATOM      5  C   UNL     1       2.458  16.815  18.634  0.00  0.00    +0.000 C 
ATOM      6  C   UNL     1       3.258  14.982  20.200  0.00  0.00    +0.000 C 
ATOM      7  O   UNL     1       3.951  14.741  21.193  0.00  0.00    +0.000 OA
ATOM      8  N   UNL     1       2.325  14.051  19.784  0.00  0.00    +0.000 N 
ATOM      9  C   UNL     1       2.009  12.927  20.674  0.00  0.00    +0.000 C 
ATOM     10  C   UNL     1       0.490  12.849  20.952  0.00  0.00    +0.000 C 
ATOM     11  N   UNL     1      -0.331  12.916  19.708  0.00  0.00    +0.000 N 
ATOM     12  C   UNL     1       0.083  14.034  18.823  0.00  0.00    +0.000 C 
ATOM     13  C   UNL     1       1.583  13.956  18.529  0.00  0.00    +0.000 C 
BRANCH   4  15
ATOM     14  C   UNL     1       5.688  17.031  18.944  0.00  0.00    +0.000 C 
ATOM     15  C   UNL     1       4.528  17.045  19.937  0.00  0.00    +0.000 C 
ENDBRANCH   4  15
ENDBRANCH   2  11
ENDBRANCH   1   2
BRANCH   1  16
ATOM     16  C   UNL     1       0.592  10.523  18.375  0.00  0.00    +0.000 C 
BRANCH  16  17
ATOM     17  C   UNL     1       1.210   9.317  18.993  0.00  0.00    +0.000 A 
ATOM     18  C   UNL     1       2.018   8.351  18.431  0.00  0.00    +0.000 A 
ATOM     19  N   UNL     1       2.292   7.504  19.465  0.00  0.00    +0.000 N 
ATOM     20  N   UNL     1       1.710   7.921  20.604  0.00  0.00    +0.000 NA
ATOM     21  N   UNL     1       1.037   9.030  20.325  0.00  0.00    +0.000 NA
BRANCH  19  22
ATOM     22  C   UNL     1       3.134   6.322  19.455  0.00  0.00    +0.000 C 
BRANCH  22  23
ATOM     23  C   UNL     1       2.308   5.074  19.313  0.00  0.00    +0.000 A 
ATOM     24  C   UNL     1       1.926   4.596  18.051  0.00  0.00    +0.000 A 
ATOM     25  C   UNL     1       1.234   3.389  17.936  0.00  0.00    +0.000 A 
ATOM     26  C   UNL     1       0.920   2.647  19.075  0.00  0.00    +0.000 A 
ATOM     27  C   UNL     1       1.279   3.122  20.334  0.00  0.00    +0.000 A 
ATOM     28  C   UNL     1       1.964   4.328  20.443  0.00  0.00    +0.000 A 
ATOM     29  F   UNL     1       2.310   4.771  21.660  0.00  0.00    +0.000 F 
ENDBRANCH  22  23
ENDBRANCH  19  22
ENDBRANCH  16  17
ENDBRANCH   1  16
TORSDOF 7
ENDMDL
