MODEL 1
REMARK VINA RESULT:      -9.0      0.000      0.000
REMARK  Name = 
REMARK  4 active torsions:
REMARK  status: ('A' for Active; 'I' for Inactive)
REMARK    1  A    between atoms: N_10  and  C_11
REMARK    2  A    between atoms: C_11  and  C_12
REMARK    3  A    between atoms: C_23  and  N_24
REMARK    4  A    between atoms: N_24  and  C_25
REMARK                            x       y       z     vdW  Elec       q    Type
REMARK                         _______ _______ _______ _____ _____    ______ ____
ROOT
ATOM      1  O   UNL     1       1.694   9.588  17.430  0.00  0.00    +0.000 OA
ATOM      2  C   UNL     1       1.586   9.084  18.546  0.00  0.00    +0.000 A 
ATOM      3  C   UNL     1       0.940   9.786  19.641  0.00  0.00    +0.000 A 
ATOM      4  C   UNL     1       0.310  11.074  19.662  0.00  0.00    +0.000 A 
ATOM      5  C   UNL     1      -0.135  11.379  20.937  0.00  0.00    +0.000 A 
ATOM      6  S   UNL     1       0.163  10.140  22.063  0.00  0.00    +0.000 S 
ATOM      7  C   UNL     1       0.933   9.178  20.881  0.00  0.00    +0.000 A 
ATOM      8  N   UNL     1       1.462   7.969  21.189  0.00  0.00    +0.000 NA
ATOM      9  C   UNL     1       2.007   7.358  20.186  0.00  0.00    +0.000 A 
ATOM     10  N   UNL     1       2.085   7.830  18.886  0.00  0.00    +0.000 N 
ATOM     11  C   UNL     1      -0.809  12.658  21.327  0.00  0.00    +0.000 C 
ATOM     12  C   UNL     1      -0.496  13.762  20.288  0.00  0.00    +0.000 C 
ATOM     13  C   UNL     1      -0.720  13.232  18.857  0.00  0.00    +0.000 C 
ATOM     14  C   UNL     1       0.188  12.038  18.518  0.00  0.00    +0.000 C 
ENDROOT
BRANCH  12  15
ATOM     15  N   UNL     1       0.885  14.229  20.460  0.00  0.00    +0.000 N 
ATOM     16  H   UNL     1       1.488  13.605  20.991  0.00  0.00    +0.000 HD
BRANCH  15  17
ATOM     17  C   UNL     1       1.539  15.071  19.576  0.00  0.00    +0.000 A 
ATOM     18  C   UNL     1       2.696  14.706  18.876  0.00  0.00    +0.000 A 
ATOM     19  C   UNL     1       3.218  15.514  17.865  0.00  0.00    +0.000 A 
ATOM     20  C   UNL     1       2.585  16.703  17.543  0.00  0.00    +0.000 A 
ATOM     21  F   UNL     1       3.063  17.458  16.546  0.00  0.00    +0.000 F 
ATOM     22  C   UNL     1       1.454  17.111  18.233  0.00  0.00    +0.000 A 
ATOM     23  C   UNL     1       0.931  16.293  19.240  0.00  0.00    +0.000 A 
ENDBRANCH  15  17
ENDBRANCH  12  15
BRANCH  10  24
ATOM     24  C   UNL     1       2.735   7.021  17.855  0.00  0.00    +0.000 C 
BRANCH  24  25
ATOM     25  C   UNL     1       3.502   5.843  18.436  0.00  0.00    +0.000 A 
ATOM     26  C   UNL     1       4.879   6.018  18.681  0.00  0.00    +0.000 A 
ATOM     27  C   UNL     1       5.673   4.969  19.132  0.00  0.00    +0.000 A 
ATOM     28  C   UNL     1       5.130   3.695  19.238  0.00  0.00    +0.000 A 
ATOM     29  C   UNL     1       3.787   3.466  18.913  0.00  0.00    +0.000 A 
ATOM     30  C   UNL     1       3.308   2.150  18.822  0.00  0.00    +0.000 A 
ATOM     31  C   UNL     1       1.973   1.897  18.520  0.00  0.00    +0.000 A 
ATOM     32  C   UNL     1       1.076   2.953  18.458  0.00  0.00    +0.000 A 
ATOM     33  C   UNL     1       1.546   4.266  18.515  0.00  0.00    +0.000 A 
ATOM     34  C   UNL     1       2.925   4.555  18.624  0.00  0.00    +0.000 A 
ENDBRANCH  24  25
ENDBRANCH  10  24
TORSDOF 4
ENDMDL
MODEL 2
REMARK VINA RESULT:      -8.7      4.007      9.470
REMARK  Name = 
REMARK  4 active torsions:
REMARK  status: ('A' for Active; 'I' for Inactive)
REMARK    1  A    between atoms: N_10  and  C_11
REMARK    2  A    between atoms: C_11  and  C_12
REMARK    3  A    between atoms: C_23  and  N_24
REMARK    4  A    between atoms: N_24  and  C_25
REMARK                            x       y       z     vdW  Elec       q    Type
REMARK                         _______ _______ _______ _____ _____    ______ ____
ROOT
ATOM      1  O   UNL     1       2.354   9.424  17.115  0.00  0.00    +0.000 OA
ATOM      2  C   UNL     1       2.019   9.006  18.222  0.00  0.00    +0.000 A 
ATOM      3  C   UNL     1       2.618   7.817  18.801  0.00  0.00    +0.000 A 
ATOM      4  C   UNL     1       3.655   6.968  18.290  0.00  0.00    +0.000 A 
ATOM      5  C   UNL     1       3.887   5.908  19.150  0.00  0.00    +0.000 A 
ATOM      6  S   UNL     1       2.914   5.954  20.544  0.00  0.00    +0.000 S 
ATOM      7  C   UNL     1       2.127   7.373  20.014  0.00  0.00    +0.000 A 
ATOM      8  N   UNL     1       1.138   7.946  20.741  0.00  0.00    +0.000 NA
ATOM      9  C   UNL     1       0.643   9.019  20.209  0.00  0.00    +0.000 A 
ATOM     10  N   UNL     1       1.034   9.592  19.011  0.00  0.00    +0.000 N 
ATOM     11  C   UNL     1       4.879   4.812  18.912  0.00  0.00    +0.000 C 
ATOM     12  C   UNL     1       5.230   4.731  17.407  0.00  0.00    +0.000 C 
ATOM     13  C   UNL     1       5.555   6.134  16.855  0.00  0.00    +0.000 C 
ATOM     14  C   UNL     1       4.372   7.109  16.979  0.00  0.00    +0.000 C 
ENDROOT
BRANCH  12  15
ATOM     15  N   UNL     1       4.116   4.126  16.668  0.00  0.00    +0.000 N 
ATOM     16  H   UNL     1       4.343   3.812  15.727  0.00  0.00    +0.000 HD
BRANCH  15  17
ATOM     17  C   UNL     1       3.045   3.481  17.263  0.00  0.00    +0.000 A 
ATOM     18  C   UNL     1       3.149   2.235  17.893  0.00  0.00    +0.000 A 
ATOM     19  C   UNL     1       2.091   1.704  18.634  0.00  0.00    +0.000 A 
ATOM     20  C   UNL     1       0.910   2.421  18.750  0.00  0.00    +0.000 A 
ATOM     21  F   UNL     1      -0.090   1.931  19.493  0.00  0.00    +0.000 F 
ATOM     22  C   UNL     1       0.761   3.645  18.116  0.00  0.00    +0.000 A 
ATOM     23  C   UNL     1       1.827   4.173  17.382  0.00  0.00    +0.000 A 
ENDBRANCH  15  17
ENDBRANCH  12  15
BRANCH  10  24
ATOM     24  C   UNL     1       0.378  10.811  18.539  0.00  0.00    +0.000 C 
BRANCH  24  25
ATOM     25  C   UNL     1      -1.115  10.621  18.317  0.00  0.00    +0.000 A 
ATOM     26  C   UNL     1      -1.517   9.824  17.225  0.00  0.00    +0.000 A 
ATOM     27  C   UNL     1      -2.860   9.667  16.900  0.00  0.00    +0.000 A 
ATOM     28  C   UNL     1      -3.822  10.394  17.589  0.00  0.00    +0.000 A 
ATOM     29  C   UNL     1      -3.450  11.267  18.619  0.00  0.00    +0.000 A 
ATOM     30  C   UNL     1      -4.399  12.145  19.163  0.00  0.00    +0.000 A 
ATOM     31  C   UNL     1      -4.059  13.008  20.201  0.00  0.00    +0.000 A 
ATOM     32  C   UNL     1      -2.816  12.892  20.804  0.00  0.00    +0.000 A 
ATOM     33  C   UNL     1      -1.853  12.045  20.252  0.00  0.00    +0.000 A 
ATOM     34  C   UNL     1      -2.108  11.302  19.077  0.00  0.00    +0.000 A 
ENDBRANCH  24  25
ENDBRANCH  10  24
TORSDOF 4
ENDMDL
MODEL 3
REMARK VINA RESULT:      -8.7      3.254      4.838
REMARK  Name = 
REMARK  4 active torsions:
REMARK  status: ('A' for Active; 'I' for Inactive)
REMARK    1  A    between atoms: N_10  and  C_11
REMARK    2  A    between atoms: C_11  and  C_12
REMARK    3  A    between atoms: C_23  and  N_24
REMARK    4  A    between atoms: N_24  and  C_25
REMARK                            x       y       z     vdW  Elec       q    Type
REMARK                         _______ _______ _______ _____ _____    ______ ____
ROOT
ATOM      1  O   UNL     1       0.989   8.323  21.573  0.00  0.00    +0.000 OA
ATOM      2  C   UNL     1       1.267   8.691  20.433  0.00  0.00    +0.000 A 
ATOM      3  C   UNL     1       0.783   9.953  19.900  0.00  0.00    +0.000 A 
ATOM      4  C   UNL     1      -0.011  10.970  20.526  0.00  0.00    +0.000 A 
ATOM      5  C   UNL     1      -0.288  11.992  19.633  0.00  0.00    +0.000 A 
ATOM      6  S   UNL     1       0.415  11.751  18.103  0.00  0.00    +0.000 S 
ATOM      7  C   UNL     1       1.076  10.252  18.584  0.00  0.00    +0.000 A 
ATOM      8  N   UNL     1       1.791   9.487  17.724  0.00  0.00    +0.000 NA
ATOM      9  C   UNL     1       2.230   8.382  18.238  0.00  0.00    +0.000 A 
ATOM     10  N   UNL     1       2.029   7.948  19.537  0.00  0.00    +0.000 N 
ATOM     11  C   UNL     1      -1.121  13.198  19.941  0.00  0.00    +0.000 C 
ATOM     12  C   UNL     1      -2.024  12.921  21.167  0.00  0.00    +0.000 C 
ATOM     13  C   UNL     1      -1.199  12.298  22.312  0.00  0.00    +0.000 C 
ATOM     14  C   UNL     1      -0.563  10.954  21.922  0.00  0.00    +0.000 C 
ENDROOT
BRANCH  12  15
ATOM     15  N   UNL     1      -3.129  12.036  20.781  0.00  0.00    +0.000 N 
ATOM     16  H   UNL     1      -3.525  11.484  21.539  0.00  0.00    +0.000 HD
BRANCH  15  17
ATOM     17  C   UNL     1      -3.983  12.274  19.717  0.00  0.00    +0.000 A 
ATOM     18  C   UNL     1      -3.876  11.622  18.482  0.00  0.00    +0.000 A 
ATOM     19  C   UNL     1      -4.861  11.757  17.502  0.00  0.00    +0.000 A 
ATOM     20  C   UNL     1      -5.968  12.552  17.749  0.00  0.00    +0.000 A 
ATOM     21  F   UNL     1      -6.932  12.650  16.825  0.00  0.00    +0.000 F 
ATOM     22  C   UNL     1      -6.094  13.236  18.949  0.00  0.00    +0.000 A 
ATOM     23  C   UNL     1      -5.108  13.090  19.929  0.00  0.00    +0.000 A 
ENDBRANCH  15  17
ENDBRANCH  12  15
BRANCH  10  24
ATOM     24  C   UNL     1       2.591   6.670  19.973  0.00  0.00    +0.000 C 
BRANCH  24  25
ATOM     25  C   UNL     1       2.606   5.631  18.863  0.00  0.00    +0.000 A 
ATOM     26  C   UNL     1       1.495   4.770  18.758  0.00  0.00    +0.000 A 
ATOM     27  C   UNL     1       1.464   3.738  17.825  0.00  0.00    +0.000 A 
ATOM     28  C   UNL     1       2.591   3.475  17.057  0.00  0.00    +0.000 A 
ATOM     29  C   UNL     1       3.747   4.252  17.201  0.00  0.00    +0.000 A 
ATOM     30  C   UNL     1       4.937   3.851  16.577  0.00  0.00    +0.000 A 
ATOM     31  C   UNL     1       6.094   4.616  16.689  0.00  0.00    +0.000 A 
ATOM     32  C   UNL     1       6.031   5.863  17.294  0.00  0.00    +0.000 A 
ATOM     33  C   UNL     1       4.861   6.259  17.945  0.00  0.00    +0.000 A 
ATOM     34  C   UNL     1       3.731   5.413  18.016  0.00  0.00    +0.000 A 
ENDBRANCH  24  25
ENDBRANCH  10  24
TORSDOF 4
ENDMDL
MODEL 4
REMARK VINA RESULT:      -8.6      4.562      7.115
REMARK  Name = 
REMARK  4 active torsions:
REMARK  status: ('A' for Active; 'I' for Inactive)
REMARK    1  A    between atoms: N_10  and  C_11
REMARK    2  A    between atoms: C_11  and  C_12
REMARK    3  A    between atoms: C_23  and  N_24
REMARK    4  A    between atoms: N_24  and  C_25
REMARK                            x       y       z     vdW  Elec       q    Type
REMARK                         _______ _______ _______ _____ _____    ______ ____
ROOT
ATOM      1  O   UNL     1       2.654  12.884  18.341  0.00  0.00    +0.000 OA
ATOM      2  C   UNL     1       2.451  13.436  19.421  0.00  0.00    +0.000 A 
ATOM      3  C   UNL     1       3.408  14.366  19.994  0.00  0.00    +0.000 A 
ATOM      4  C   UNL     1       4.658  14.837  19.470  0.00  0.00    +0.000 A 
ATOM      5  C   UNL     1       5.277  15.684  20.374  0.00  0.00    +0.000 A 
ATOM      6  S   UNL     1       4.367  15.932  21.789  0.00  0.00    +0.000 S 
ATOM      7  C   UNL     1       3.137  14.880  21.247  0.00  0.00    +0.000 A 
ATOM      8  N   UNL     1       2.048  14.615  22.008  0.00  0.00    +0.000 NA
ATOM      9  C   UNL     1       1.202  13.803  21.458  0.00  0.00    +0.000 A 
ATOM     10  N   UNL     1       1.326  13.215  20.210  0.00  0.00    +0.000 N 
ATOM     11  C   UNL     1       6.612  16.330  20.167  0.00  0.00    +0.000 C 
ATOM     12  C   UNL     1       7.414  15.559  19.092  0.00  0.00    +0.000 C 
ATOM     13  C   UNL     1       6.537  15.297  17.851  0.00  0.00    +0.000 C 
ATOM     14  C   UNL     1       5.297  14.445  18.171  0.00  0.00    +0.000 C 
ENDROOT
BRANCH  12  15
ATOM     15  N   UNL     1       7.913  14.298  19.652  0.00  0.00    +0.000 N 
ATOM     16  H   UNL     1       7.200  13.694  20.057  0.00  0.00    +0.000 HD
BRANCH  15  17
ATOM     17  C   UNL     1       9.057  13.650  19.218  0.00  0.00    +0.000 A 
ATOM     18  C   UNL     1      10.324  13.866  19.775  0.00  0.00    +0.000 A 
ATOM     19  C   UNL     1      11.414  13.065  19.432  0.00  0.00    +0.000 A 
ATOM     20  C   UNL     1      11.247  12.034  18.521  0.00  0.00    +0.000 A 
ATOM     21  F   UNL     1      12.283  11.241  18.223  0.00  0.00    +0.000 F 
ATOM     22  C   UNL     1      10.014  11.808  17.928  0.00  0.00    +0.000 A 
ATOM     23  C   UNL     1       8.925  12.610  18.282  0.00  0.00    +0.000 A 
ENDBRANCH  15  17
ENDBRANCH  12  15
BRANCH  10  24
ATOM     24  C   UNL     1       0.283  12.314  19.722  0.00  0.00    +0.000 C 
BRANCH  24  25
ATOM     25  C   UNL     1       0.369  10.930  20.345  0.00  0.00    +0.000 A 
ATOM     26  C   UNL     1      -0.007  10.797  21.697  0.00  0.00    +0.000 A 
ATOM     27  C   UNL     1       0.120   9.586  22.368  0.00  0.00    +0.000 A 
ATOM     28  C   UNL     1       0.734   8.513  21.735  0.00  0.00    +0.000 A 
ATOM     29  C   UNL     1       1.205   8.637  20.423  0.00  0.00    +0.000 A 
ATOM     30  C   UNL     1       2.003   7.623  19.871  0.00  0.00    +0.000 A 
ATOM     31  C   UNL     1       2.467   7.714  18.562  0.00  0.00    +0.000 A 
ATOM     32  C   UNL     1       2.012   8.740  17.747  0.00  0.00    +0.000 A 
ATOM     33  C   UNL     1       1.244   9.770  18.293  0.00  0.00    +0.000 A 
ATOM     34  C   UNL     1       0.923   9.805  19.669  0.00  0.00    +0.000 A 
ENDBRANCH  24  25
ENDBRANCH  10  24
TORSDOF 4
ENDMDL
MODEL 5
REMARK VINA RESULT:      -8.6      3.465      4.870
REMARK  Name = 
REMARK  4 active torsions:
REMARK  status: ('A' for Active; 'I' for Inactive)
REMARK    1  A    between atoms: N_10  and  C_11
REMARK    2  A    between atoms: C_11  and  C_12
REMARK    3  A    between atoms: C_23  and  N_24
REMARK    4  A    between atoms: N_24  and  C_25
REMARK                            x       y       z     vdW  Elec       q    Type
REMARK                         _______ _______ _______ _____ _____    ______ ____
ROOT
ATOM      1  O   UNL     1       0.055   9.093  22.297  0.00  0.00    +0.000 OA
ATOM      2  C   UNL     1       0.355   9.407  21.147  0.00  0.00    +0.000 A 
ATOM      3  C   UNL     1      -0.159  10.617  20.528  0.00  0.00    +0.000 A 
ATOM      4  C   UNL     1      -1.010  11.636  21.071  0.00  0.00    +0.000 A 
ATOM      5  C   UNL     1      -1.296  12.594  20.113  0.00  0.00    +0.000 A 
ATOM      6  S   UNL     1      -0.536  12.295  18.622  0.00  0.00    +0.000 S 
ATOM      7  C   UNL     1       0.165  10.853  19.207  0.00  0.00    +0.000 A 
ATOM      8  N   UNL     1       0.935  10.070  18.414  0.00  0.00    +0.000 NA
ATOM      9  C   UNL     1       1.399   9.013  19.002  0.00  0.00    +0.000 A 
ATOM     10  N   UNL     1       1.173   8.645  20.318  0.00  0.00    +0.000 N 
ATOM     11  C   UNL     1      -2.182  13.782  20.327  0.00  0.00    +0.000 C 
ATOM     12  C   UNL     1      -3.113  13.539  21.539  0.00  0.00    +0.000 C 
ATOM     13  C   UNL     1      -2.303  13.015  22.742  0.00  0.00    +0.000 C 
ATOM     14  C   UNL     1      -1.604  11.677  22.448  0.00  0.00    +0.000 C 
ENDROOT
BRANCH  12  15
ATOM     15  N   UNL     1      -4.171  12.592  21.172  0.00  0.00    +0.000 N 
ATOM     16  H   UNL     1      -4.561  12.058  21.946  0.00  0.00    +0.000 HD
BRANCH  15  17
ATOM     17  C   UNL     1      -5.010  12.744  20.081  0.00  0.00    +0.000 A 
ATOM     18  C   UNL     1      -5.910  13.809  19.943  0.00  0.00    +0.000 A 
ATOM     19  C   UNL     1      -6.605  14.023  18.751  0.00  0.00    +0.000 A 
ATOM     20  C   UNL     1      -6.406  13.167  17.680  0.00  0.00    +0.000 A 
ATOM     21  F   UNL     1      -7.042  13.396  16.524  0.00  0.00    +0.000 F 
ATOM     22  C   UNL     1      -5.545  12.086  17.789  0.00  0.00    +0.000 A 
ATOM     23  C   UNL     1      -4.847  11.882  18.983  0.00  0.00    +0.000 A 
ENDBRANCH  15  17
ENDBRANCH  12  15
BRANCH  10  24
ATOM     24  C   UNL     1       1.767   7.416  20.843  0.00  0.00    +0.000 C 
BRANCH  24  25
ATOM     25  C   UNL     1       2.354   6.538  19.749  0.00  0.00    +0.000 A 
ATOM     26  C   UNL     1       3.191   7.154  18.796  0.00  0.00    +0.000 A 
ATOM     27  C   UNL     1       3.701   6.444  17.715  0.00  0.00    +0.000 A 
ATOM     28  C   UNL     1       3.293   5.134  17.501  0.00  0.00    +0.000 A 
ATOM     29  C   UNL     1       2.389   4.519  18.376  0.00  0.00    +0.000 A 
ATOM     30  C   UNL     1       1.827   3.279  18.038  0.00  0.00    +0.000 A 
ATOM     31  C   UNL     1       0.942   2.639  18.900  0.00  0.00    +0.000 A 
ATOM     32  C   UNL     1       0.731   3.157  20.169  0.00  0.00    +0.000 A 
ATOM     33  C   UNL     1       1.260   4.405  20.505  0.00  0.00    +0.000 A 
ATOM     34  C   UNL     1       2.001   5.170  19.576  0.00  0.00    +0.000 A 
ENDBRANCH  24  25
ENDBRANCH  10  24
TORSDOF 4
ENDMDL
MODEL 6
REMARK VINA RESULT:      -8.6      3.578      5.416
REMARK  Name = 
REMARK  4 active torsions:
REMARK  status: ('A' for Active; 'I' for Inactive)
REMARK    1  A    between atoms: N_10  and  C_11
REMARK    2  A    between atoms: C_11  and  C_12
REMARK    3  A    between atoms: C_23  and  N_24
REMARK    4  A    between atoms: N_24  and  C_25
REMARK                            x       y       z     vdW  Elec       q    Type
REMARK                         _______ _______ _______ _____ _____    ______ ____
ROOT
ATOM      1  O   UNL     1       1.221   8.517  21.824  0.00  0.00    +0.000 OA
ATOM      2  C   UNL     1       1.314   8.787  20.628  0.00  0.00    +0.000 A 
ATOM      3  C   UNL     1       0.793  10.028  20.084  0.00  0.00    +0.000 A 
ATOM      4  C   UNL     1       0.154  11.126  20.749  0.00  0.00    +0.000 A 
ATOM      5  C   UNL     1      -0.233  12.093  19.836  0.00  0.00    +0.000 A 
ATOM      6  S   UNL     1       0.191  11.706  18.235  0.00  0.00    +0.000 S 
ATOM      7  C   UNL     1       0.869  10.215  18.718  0.00  0.00    +0.000 A 
ATOM      8  N   UNL     1       1.399   9.355  17.815  0.00  0.00    +0.000 NA
ATOM      9  C   UNL     1       1.878   8.270  18.335  0.00  0.00    +0.000 A 
ATOM     10  N   UNL     1       1.886   7.943  19.681  0.00  0.00    +0.000 N 
ATOM     11  C   UNL     1      -0.956  13.358  20.180  0.00  0.00    +0.000 C 
ATOM     12  C   UNL     1      -1.647  13.216  21.558  0.00  0.00    +0.000 C 
ATOM     13  C   UNL     1      -0.663  12.639  22.596  0.00  0.00    +0.000 C 
ATOM     14  C   UNL     1      -0.151  11.240  22.214  0.00  0.00    +0.000 C 
ENDROOT
BRANCH  12  15
ATOM     15  N   UNL     1      -2.833  12.362  21.434  0.00  0.00    +0.000 N 
ATOM     16  H   UNL     1      -2.662  11.441  21.036  0.00  0.00    +0.000 HD
BRANCH  15  17
ATOM     17  C   UNL     1      -3.948  12.452  22.250  0.00  0.00    +0.000 A 
ATOM     18  C   UNL     1      -3.885  12.427  23.648  0.00  0.00    +0.000 A 
ATOM     19  C   UNL     1      -5.008  12.701  24.432  0.00  0.00    +0.000 A 
ATOM     20  C   UNL     1      -6.213  13.004  23.818  0.00  0.00    +0.000 A 
ATOM     21  F   UNL     1      -7.279  13.306  24.570  0.00  0.00    +0.000 F 
ATOM     22  C   UNL     1      -6.320  13.010  22.436  0.00  0.00    +0.000 A 
ATOM     23  C   UNL     1      -5.191  12.742  21.658  0.00  0.00    +0.000 A 
ENDBRANCH  15  17
ENDBRANCH  12  15
BRANCH  10  24
ATOM     24  C   UNL     1       2.466   6.674  20.119  0.00  0.00    +0.000 C 
BRANCH  24  25
ATOM     25  C   UNL     1       2.475   5.626  19.017  0.00  0.00    +0.000 A 
ATOM     26  C   UNL     1       1.404   4.708  18.979  0.00  0.00    +0.000 A 
ATOM     27  C   UNL     1       1.377   3.667  18.057  0.00  0.00    +0.000 A 
ATOM     28  C   UNL     1       2.472   3.454  17.231  0.00  0.00    +0.000 A 
ATOM     29  C   UNL     1       3.593   4.290  17.306  0.00  0.00    +0.000 A 
ATOM     30  C   UNL     1       4.767   3.942  16.621  0.00  0.00    +0.000 A 
ATOM     31  C   UNL     1       5.887   4.767  16.664  0.00  0.00    +0.000 A 
ATOM     32  C   UNL     1       5.793   6.015  17.262  0.00  0.00    +0.000 A 
ATOM     33  C   UNL     1       4.641   6.358  17.973  0.00  0.00    +0.000 A 
ATOM     34  C   UNL     1       3.561   5.457  18.112  0.00  0.00    +0.000 A 
ENDBRANCH  24  25
ENDBRANCH  10  24
TORSDOF 4
ENDMDL
MODEL 7
REMARK VINA RESULT:      -8.6      0.940      2.452
REMARK  Name = 
REMARK  4 active torsions:
REMARK  status: ('A' for Active; 'I' for Inactive)
REMARK    1  A    between atoms: N_10  and  C_11
REMARK    2  A    between atoms: C_11  and  C_12
REMARK    3  A    between atoms: C_23  and  N_24
REMARK    4  A    between atoms: N_24  and  C_25
REMARK                            x       y       z     vdW  Elec       q    Type
REMARK                         _______ _______ _______ _____ _____    ______ ____
ROOT
ATOM      1  O   UNL     1       1.682   9.364  17.326  0.00  0.00    +0.000 OA
ATOM      2  C   UNL     1       1.646   8.826  18.432  0.00  0.00    +0.000 A 
ATOM      3  C   UNL     1       1.095   9.504  19.592  0.00  0.00    +0.000 A 
ATOM      4  C   UNL     1       0.494  10.802  19.697  0.00  0.00    +0.000 A 
ATOM      5  C   UNL     1       0.148  11.075  21.010  0.00  0.00    +0.000 A 
ATOM      6  S   UNL     1       0.502   9.796  22.074  0.00  0.00    +0.000 S 
ATOM      7  C   UNL     1       1.164   8.858  20.810  0.00  0.00    +0.000 A 
ATOM      8  N   UNL     1       1.689   7.631  21.042  0.00  0.00    +0.000 NA
ATOM      9  C   UNL     1       2.149   7.042  19.983  0.00  0.00    +0.000 A 
ATOM     10  N   UNL     1       2.142   7.553  18.696  0.00  0.00    +0.000 N 
ATOM     11  C   UNL     1      -0.470  12.353  21.487  0.00  0.00    +0.000 C 
ATOM     12  C   UNL     1      -0.210  13.483  20.462  0.00  0.00    +0.000 C 
ATOM     13  C   UNL     1      -0.547  13.003  19.036  0.00  0.00    +0.000 C 
ATOM     14  C   UNL     1       0.309  11.804  18.595  0.00  0.00    +0.000 C 
ENDROOT
BRANCH  12  15
ATOM     15  N   UNL     1       1.188  13.919  20.547  0.00  0.00    +0.000 N 
ATOM     16  H   UNL     1       1.823  13.252  20.981  0.00  0.00    +0.000 HD
BRANCH  15  17
ATOM     17  C   UNL     1       1.781  14.812  19.670  0.00  0.00    +0.000 A 
ATOM     18  C   UNL     1       2.842  14.471  18.822  0.00  0.00    +0.000 A 
ATOM     19  C   UNL     1       3.290  15.345  17.830  0.00  0.00    +0.000 A 
ATOM     20  C   UNL     1       2.677  16.578  17.677  0.00  0.00    +0.000 A 
ATOM     21  F   UNL     1       3.080  17.399  16.700  0.00  0.00    +0.000 F 
ATOM     22  C   UNL     1       1.642  16.962  18.516  0.00  0.00    +0.000 A 
ATOM     23  C   UNL     1       1.194  16.078  19.502  0.00  0.00    +0.000 A 
ENDBRANCH  15  17
ENDBRANCH  12  15
BRANCH  10  24
ATOM     24  C   UNL     1       2.699   6.766  17.597  0.00  0.00    +0.000 C 
BRANCH  24  25
ATOM     25  C   UNL     1       3.756   5.778  18.065  0.00  0.00    +0.000 A 
ATOM     26  C   UNL     1       3.314   4.606  18.712  0.00  0.00    +0.000 A 
ATOM     27  C   UNL     1       4.215   3.690  19.246  0.00  0.00    +0.000 A 
ATOM     28  C   UNL     1       5.572   3.984  19.245  0.00  0.00    +0.000 A 
ATOM     29  C   UNL     1       6.039   5.183  18.693  0.00  0.00    +0.000 A 
ATOM     30  C   UNL     1       7.377   5.561  18.884  0.00  0.00    +0.000 A 
ATOM     31  C   UNL     1       7.870   6.739  18.329  0.00  0.00    +0.000 A 
ATOM     32  C   UNL     1       7.076   7.466  17.456  0.00  0.00    +0.000 A 
ATOM     33  C   UNL     1       5.735   7.117  17.284  0.00  0.00    +0.000 A 
ATOM     34  C   UNL     1       5.154   6.039  17.990  0.00  0.00    +0.000 A 
ENDBRANCH  24  25
ENDBRANCH  10  24
TORSDOF 4
ENDMDL
MODEL 8
REMARK VINA RESULT:      -8.4      3.751      5.329
REMARK  Name = 
REMARK  4 active torsions:
REMARK  status: ('A' for Active; 'I' for Inactive)
REMARK    1  A    between atoms: N_10  and  C_11
REMARK    2  A    between atoms: C_11  and  C_12
REMARK    3  A    between atoms: C_23  and  N_24
REMARK    4  A    between atoms: N_24  and  C_25
REMARK                            x       y       z     vdW  Elec       q    Type
REMARK                         _______ _______ _______ _____ _____    ______ ____
ROOT
ATOM      1  O   UNL     1       0.952   9.008  22.219  0.00  0.00    +0.000 OA
ATOM      2  C   UNL     1       1.011   9.174  21.001  0.00  0.00    +0.000 A 
ATOM      3  C   UNL     1       0.442  10.348  20.364  0.00  0.00    +0.000 A 
ATOM      4  C   UNL     1      -0.214  11.483  20.946  0.00  0.00    +0.000 A 
ATOM      5  C   UNL     1      -0.649  12.354  19.961  0.00  0.00    +0.000 A 
ATOM      6  S   UNL     1      -0.249  11.840  18.390  0.00  0.00    +0.000 S 
ATOM      7  C   UNL     1       0.483  10.417  18.985  0.00  0.00    +0.000 A 
ATOM      8  N   UNL     1       1.019   9.496  18.148  0.00  0.00    +0.000 NA
ATOM      9  C   UNL     1       1.540   8.474  18.749  0.00  0.00    +0.000 A 
ATOM     10  N   UNL     1       1.587   8.267  20.118  0.00  0.00    +0.000 N 
ATOM     11  C   UNL     1      -1.402  13.624  20.212  0.00  0.00    +0.000 C 
ATOM     12  C   UNL     1      -2.059  13.585  21.612  0.00  0.00    +0.000 C 
ATOM     13  C   UNL     1      -1.036  13.129  22.673  0.00  0.00    +0.000 C 
ATOM     14  C   UNL     1      -0.492  11.716  22.402  0.00  0.00    +0.000 C 
ENDROOT
BRANCH  12  15
ATOM     15  N   UNL     1      -3.222  12.691  21.592  0.00  0.00    +0.000 N 
ATOM     16  H   UNL     1      -3.011  11.713  21.402  0.00  0.00    +0.000 HD
BRANCH  15  17
ATOM     17  C   UNL     1      -4.391  12.915  22.300  0.00  0.00    +0.000 A 
ATOM     18  C   UNL     1      -5.615  13.215  21.691  0.00  0.00    +0.000 A 
ATOM     19  C   UNL     1      -6.802  13.255  22.426  0.00  0.00    +0.000 A 
ATOM     20  C   UNL     1      -6.772  12.996  23.787  0.00  0.00    +0.000 A 
ATOM     21  F   UNL     1      -7.915  12.995  24.484  0.00  0.00    +0.000 F 
ATOM     22  C   UNL     1      -5.574  12.723  24.429  0.00  0.00    +0.000 A 
ATOM     23  C   UNL     1      -4.392  12.677  23.685  0.00  0.00    +0.000 A 
ENDBRANCH  15  17
ENDBRANCH  12  15
BRANCH  10  24
ATOM     24  C   UNL     1       2.213   7.057  20.651  0.00  0.00    +0.000 C 
BRANCH  24  25
ATOM     25  C   UNL     1       2.702   6.123  19.555  0.00  0.00    +0.000 A 
ATOM     26  C   UNL     1       3.596   6.648  18.599  0.00  0.00    +0.000 A 
ATOM     27  C   UNL     1       4.027   5.888  17.517  0.00  0.00    +0.000 A 
ATOM     28  C   UNL     1       3.484   4.628  17.305  0.00  0.00    +0.000 A 
ATOM     29  C   UNL     1       2.524   4.111  18.183  0.00  0.00    +0.000 A 
ATOM     30  C   UNL     1       1.834   2.936  17.847  0.00  0.00    +0.000 A 
ATOM     31  C   UNL     1       0.889   2.392  18.711  0.00  0.00    +0.000 A 
ATOM     32  C   UNL     1       0.737   2.930  19.981  0.00  0.00    +0.000 A 
ATOM     33  C   UNL     1       1.393   4.116  20.315  0.00  0.00    +0.000 A 
ATOM     34  C   UNL     1       2.208   4.798  19.383  0.00  0.00    +0.000 A 
ENDBRANCH  24  25
ENDBRANCH  10  24
TORSDOF 4
ENDMDL
MODEL 9
REMARK VINA RESULT:      -8.4      1.077      1.530
REMARK  Name = 
REMARK  4 active torsions:
REMARK  status: ('A' for Active; 'I' for Inactive)
REMARK    1  A    between atoms: N_10  and  C_11
REMARK    2  A    between atoms: C_11  and  C_12
REMARK    3  A    between atoms: C_23  and  N_24
REMARK    4  A    between atoms: N_24  and  C_25
REMARK                            x       y       z     vdW  Elec       q    Type
REMARK                         _______ _______ _______ _____ _____    ______ ____
ROOT
ATOM      1  O   UNL     1       0.777   9.788  17.795  0.00  0.00    +0.000 OA
ATOM      2  C   UNL     1       1.024   9.176  18.832  0.00  0.00    +0.000 A 
ATOM      3  C   UNL     1       0.498   9.607  20.115  0.00  0.00    +0.000 A 
ATOM      4  C   UNL     1      -0.370  10.704  20.431  0.00  0.00    +0.000 A 
ATOM      5  C   UNL     1      -0.582  10.782  21.797  0.00  0.00    +0.000 A 
ATOM      6  S   UNL     1       0.210   9.554  22.667  0.00  0.00    +0.000 S 
ATOM      7  C   UNL     1       0.889   8.908  21.241  0.00  0.00    +0.000 A 
ATOM      8  N   UNL     1       1.716   7.835  21.275  0.00  0.00    +0.000 NA
ATOM      9  C   UNL     1       2.147   7.460  20.112  0.00  0.00    +0.000 A 
ATOM     10  N   UNL     1       1.838   8.049  18.898  0.00  0.00    +0.000 N 
ATOM     11  C   UNL     1      -1.410  11.828  22.478  0.00  0.00    +0.000 C 
ATOM     12  C   UNL     1      -1.571  13.061  21.557  0.00  0.00    +0.000 C 
ATOM     13  C   UNL     1      -1.983  12.622  20.138  0.00  0.00    +0.000 C 
ATOM     14  C   UNL     1      -0.940  11.709  19.473  0.00  0.00    +0.000 C 
ENDROOT
BRANCH  12  15
ATOM     15  N   UNL     1      -0.317  13.823  21.522  0.00  0.00    +0.000 N 
ATOM     16  H   UNL     1       0.455  13.408  22.041  0.00  0.00    +0.000 HD
BRANCH  15  17
ATOM     17  C   UNL     1       0.054  14.667  20.490  0.00  0.00    +0.000 A 
ATOM     18  C   UNL     1      -0.681  15.799  20.117  0.00  0.00    +0.000 A 
ATOM     19  C   UNL     1      -0.181  16.720  19.194  0.00  0.00    +0.000 A 
ATOM     20  C   UNL     1       1.068  16.514  18.631  0.00  0.00    +0.000 A 
ATOM     21  F   UNL     1       1.565  17.418  17.777  0.00  0.00    +0.000 F 
ATOM     22  C   UNL     1       1.813  15.391  18.955  0.00  0.00    +0.000 A 
ATOM     23  C   UNL     1       1.309  14.477  19.885  0.00  0.00    +0.000 A 
ENDBRANCH  15  17
ENDBRANCH  12  15
BRANCH  10  24
ATOM     24  C   UNL     1       2.405   7.510  17.662  0.00  0.00    +0.000 C 
BRANCH  24  25
ATOM     25  C   UNL     1       3.413   6.401  17.918  0.00  0.00    +0.000 A 
ATOM     26  C   UNL     1       4.781   6.746  17.906  0.00  0.00    +0.000 A 
ATOM     27  C   UNL     1       5.771   5.780  18.048  0.00  0.00    +0.000 A 
ATOM     28  C   UNL     1       5.419   4.438  18.090  0.00  0.00    +0.000 A 
ATOM     29  C   UNL     1       4.075   4.053  18.011  0.00  0.00    +0.000 A 
ATOM     30  C   UNL     1       3.748   2.699  17.845  0.00  0.00    +0.000 A 
ATOM     31  C   UNL     1       2.420   2.288  17.784  0.00  0.00    +0.000 A 
ATOM     32  C   UNL     1       1.411   3.205  18.041  0.00  0.00    +0.000 A 
ATOM     33  C   UNL     1       1.722   4.559  18.176  0.00  0.00    +0.000 A 
ATOM     34  C   UNL     1       3.048   5.030  18.046  0.00  0.00    +0.000 A 
ENDBRANCH  24  25
ENDBRANCH  10  24
TORSDOF 4
ENDMDL
