MODEL 1
REMARK VINA RESULT:      -8.4      0.000      0.000
REMARK  Name = 
REMARK  8 active torsions:
REMARK  status: ('A' for Active; 'I' for Inactive)
REMARK    1  A    between atoms: C_1  and  O_2
REMARK    2  A    between atoms: O_2  and  C_3
REMARK    3  A    between atoms: C_6  and  C_7
REMARK    4  A    between atoms: C_8  and  C_9
REMARK    5  A    between atoms: C_9  and  C_10
REMARK    6  A    between atoms: C_10  and  C_11
REMARK    7  A    between atoms: C_11  and  C_12
REMARK    8  A    between atoms: N_20  and  C_21
REMARK                            x       y       z     vdW  Elec       q    Type
REMARK                         _______ _______ _______ _____ _____    ______ ____
ROOT
ATOM      1  C   UNL     1      -0.017  11.286  20.815  0.00  0.00    +0.000 C 
ATOM      2  C   UNL     1       0.794  10.023  21.263  0.00  0.00    +0.000 C 
ATOM      3  C   UNL     1       0.131  10.254  22.641  0.00  0.00    +0.000 C 
ATOM      4  O   UNL     1       0.188   9.701  23.717  0.00  0.00    +0.000 OA
ATOM      5  N   UNL     1      -0.553  11.331  22.177  0.00  0.00    +0.000 N 
ENDROOT
BRANCH   1   9
ATOM      6  C   UNL     1      -2.858  10.869  17.439  0.00  0.00    +0.000 A 
ATOM      7  C   UNL     1      -3.157  11.714  18.502  0.00  0.00    +0.000 A 
ATOM      8  C   UNL     1      -2.247  11.876  19.550  0.00  0.00    +0.000 A 
ATOM      9  C   UNL     1      -1.036  11.164  19.604  0.00  0.00    +0.000 A 
ATOM     10  C   UNL     1      -0.766  10.315  18.512  0.00  0.00    +0.000 A 
ATOM     11  C   UNL     1      -1.657  10.168  17.443  0.00  0.00    +0.000 A 
BRANCH   6  13
ATOM     12  C   UNL     1      -3.348  10.596  15.150  0.00  0.00    +0.000 C 
ATOM     13  O   UNL     1      -3.825  10.776  16.477  0.00  0.00    +0.000 OA
ENDBRANCH   6  13
ENDBRANCH   1   9
BRANCH   5  14
ATOM     14  C   UNL     1      -1.370  12.262  22.813  0.00  0.00    +0.000 A 
ATOM     15  C   UNL     1      -0.919  13.562  23.075  0.00  0.00    +0.000 A 
ATOM     16  C   UNL     1      -1.738  14.485  23.731  0.00  0.00    +0.000 A 
ATOM     17  C   UNL     1      -3.011  14.112  24.156  0.00  0.00    +0.000 A 
ATOM     18  C   UNL     1      -3.476  12.828  23.894  0.00  0.00    +0.000 A 
ATOM     19  C   UNL     1      -2.667  11.916  23.209  0.00  0.00    +0.000 A 
ENDBRANCH   5  14
BRANCH   2  20
ATOM     20  C   UNL     1       0.532   8.667  20.607  0.00  0.00    +0.000 C 
BRANCH  20  21
ATOM     21  C   UNL     1       1.620   7.666  20.998  0.00  0.00    +0.000 C 
BRANCH  21  22
ATOM     22  C   UNL     1       2.338   7.101  19.772  0.00  0.00    +0.000 C 
BRANCH  22  23
ATOM     23  C   UNL     1       1.939   5.668  19.522  0.00  0.00    +0.000 A 
ATOM     24  C   UNL     1       2.010   5.122  18.234  0.00  0.00    +0.000 A 
ATOM     25  C   UNL     1       1.633   3.798  18.005  0.00  0.00    +0.000 A 
ATOM     26  C   UNL     1       1.176   3.010  19.060  0.00  0.00    +0.000 A 
ATOM     27  C   UNL     1       1.085   3.548  20.343  0.00  0.00    +0.000 A 
ATOM     28  C   UNL     1       1.460   4.872  20.572  0.00  0.00    +0.000 A 
ENDBRANCH  22  23
ENDBRANCH  21  22
ENDBRANCH  20  21
ENDBRANCH   2  20
TORSDOF 7
ENDMDL
MODEL 2
REMARK VINA RESULT:      -8.3      7.835     10.789
REMARK  Name = 
REMARK  8 active torsions:
REMARK  status: ('A' for Active; 'I' for Inactive)
REMARK    1  A    between atoms: C_1  and  O_2
REMARK    2  A    between atoms: O_2  and  C_3
REMARK    3  A    between atoms: C_6  and  C_7
REMARK    4  A    between atoms: C_8  and  C_9
REMARK    5  A    between atoms: C_9  and  C_10
REMARK    6  A    between atoms: C_10  and  C_11
REMARK    7  A    between atoms: C_11  and  C_12
REMARK    8  A    between atoms: N_20  and  C_21
REMARK                            x       y       z     vdW  Elec       q    Type
REMARK                         _______ _______ _______ _____ _____    ______ ____
ROOT
ATOM      1  C   UNL     1       4.994   6.008  16.618  0.00  0.00    +0.000 C 
ATOM      2  C   UNL     1       5.988   6.750  17.576  0.00  0.00    +0.000 C 
ATOM      3  C   UNL     1       5.456   5.780  18.657  0.00  0.00    +0.000 C 
ATOM      4  O   UNL     1       5.679   5.614  19.835  0.00  0.00    +0.000 OA
ATOM      5  N   UNL     1       4.631   5.175  17.766  0.00  0.00    +0.000 N 
ENDROOT
BRANCH   1   9
ATOM      6  C   UNL     1       6.627   4.006  13.017  0.00  0.00    +0.000 A 
ATOM      7  C   UNL     1       5.317   3.764  13.416  0.00  0.00    +0.000 A 
ATOM      8  C   UNL     1       4.788   4.423  14.529  0.00  0.00    +0.000 A 
ATOM      9  C   UNL     1       5.557   5.299  15.314  0.00  0.00    +0.000 A 
ATOM     10  C   UNL     1       6.880   5.520  14.883  0.00  0.00    +0.000 A 
ATOM     11  C   UNL     1       7.411   4.888  13.752  0.00  0.00    +0.000 A 
BRANCH   6  13
ATOM     12  C   UNL     1       6.198   2.224  11.534  0.00  0.00    +0.000 C 
ATOM     13  O   UNL     1       7.044   3.299  11.924  0.00  0.00    +0.000 OA
ENDBRANCH   6  13
ENDBRANCH   1   9
BRANCH   5  14
ATOM     14  C   UNL     1       3.652   4.195  17.916  0.00  0.00    +0.000 A 
ATOM     15  C   UNL     1       2.299   4.534  18.032  0.00  0.00    +0.000 A 
ATOM     16  C   UNL     1       1.326   3.546  18.203  0.00  0.00    +0.000 A 
ATOM     17  C   UNL     1       1.696   2.206  18.284  0.00  0.00    +0.000 A 
ATOM     18  C   UNL     1       3.036   1.853  18.159  0.00  0.00    +0.000 A 
ATOM     19  C   UNL     1       4.005   2.840  17.957  0.00  0.00    +0.000 A 
ENDBRANCH   5  14
BRANCH   2  20
ATOM     20  C   UNL     1       7.493   6.703  17.309  0.00  0.00    +0.000 C 
BRANCH  20  21
ATOM     21  C   UNL     1       8.225   7.702  18.206  0.00  0.00    +0.000 C 
BRANCH  21  22
ATOM     22  C   UNL     1       8.012   9.144  17.742  0.00  0.00    +0.000 C 
BRANCH  22  23
ATOM     23  C   UNL     1       8.977  10.081  18.426  0.00  0.00    +0.000 A 
ATOM     24  C   UNL     1       9.858  10.870  17.675  0.00  0.00    +0.000 A 
ATOM     25  C   UNL     1      10.754  11.731  18.311  0.00  0.00    +0.000 A 
ATOM     26  C   UNL     1      10.781  11.806  19.702  0.00  0.00    +0.000 A 
ATOM     27  C   UNL     1       9.921  11.013  20.460  0.00  0.00    +0.000 A 
ATOM     28  C   UNL     1       9.026  10.151  19.825  0.00  0.00    +0.000 A 
ENDBRANCH  22  23
ENDBRANCH  21  22
ENDBRANCH  20  21
ENDBRANCH   2  20
TORSDOF 7
ENDMDL
MODEL 3
REMARK VINA RESULT:      -8.2      7.790     10.832
REMARK  Name = 
REMARK  8 active torsions:
REMARK  status: ('A' for Active; 'I' for Inactive)
REMARK    1  A    between atoms: C_1  and  O_2
REMARK    2  A    between atoms: O_2  and  C_3
REMARK    3  A    between atoms: C_6  and  C_7
REMARK    4  A    between atoms: C_8  and  C_9
REMARK    5  A    between atoms: C_9  and  C_10
REMARK    6  A    between atoms: C_10  and  C_11
REMARK    7  A    between atoms: C_11  and  C_12
REMARK    8  A    between atoms: N_20  and  C_21
REMARK                            x       y       z     vdW  Elec       q    Type
REMARK                         _______ _______ _______ _____ _____    ______ ____
ROOT
ATOM      1  C   UNL     1       5.015   6.038  16.585  0.00  0.00    +0.000 C 
ATOM      2  C   UNL     1       6.008   6.798  17.528  0.00  0.00    +0.000 C 
ATOM      3  C   UNL     1       5.478   5.848  18.627  0.00  0.00    +0.000 C 
ATOM      4  O   UNL     1       5.702   5.704  19.808  0.00  0.00    +0.000 OA
ATOM      5  N   UNL     1       4.652   5.226  17.748  0.00  0.00    +0.000 N 
ENDROOT
BRANCH   1   9
ATOM      6  C   UNL     1       6.648   3.972  13.020  0.00  0.00    +0.000 A 
ATOM      7  C   UNL     1       5.348   3.717  13.439  0.00  0.00    +0.000 A 
ATOM      8  C   UNL     1       4.817   4.395  14.540  0.00  0.00    +0.000 A 
ATOM      9  C   UNL     1       5.578   5.306  15.294  0.00  0.00    +0.000 A 
ATOM     10  C   UNL     1       6.892   5.539  14.843  0.00  0.00    +0.000 A 
ATOM     11  C   UNL     1       7.423   4.888  13.724  0.00  0.00    +0.000 A 
BRANCH   6  13
ATOM     12  C   UNL     1       6.171   2.232  11.504  0.00  0.00    +0.000 C 
ATOM     13  O   UNL     1       7.067   3.245  11.941  0.00  0.00    +0.000 OA
ENDBRANCH   6  13
ENDBRANCH   1   9
BRANCH   5  14
ATOM     14  C   UNL     1       3.675   4.248  17.916  0.00  0.00    +0.000 A 
ATOM     15  C   UNL     1       4.005   2.888  17.931  0.00  0.00    +0.000 A 
ATOM     16  C   UNL     1       3.015   1.913  18.081  0.00  0.00    +0.000 A 
ATOM     17  C   UNL     1       1.678   2.285  18.193  0.00  0.00    +0.000 A 
ATOM     18  C   UNL     1       1.336   3.633  18.190  0.00  0.00    +0.000 A 
ATOM     19  C   UNL     1       2.330   4.609  18.072  0.00  0.00    +0.000 A 
ENDBRANCH   5  14
BRANCH   2  20
ATOM     20  C   UNL     1       7.513   6.747  17.262  0.00  0.00    +0.000 C 
BRANCH  20  21
ATOM     21  C   UNL     1       8.252   7.706  18.196  0.00  0.00    +0.000 C 
BRANCH  21  22
ATOM     22  C   UNL     1       7.970   9.168  17.849  0.00  0.00    +0.000 C 
BRANCH  22  23
ATOM     23  C   UNL     1       8.992  10.082  18.479  0.00  0.00    +0.000 A 
ATOM     24  C   UNL     1       9.067  10.215  19.871  0.00  0.00    +0.000 A 
ATOM     25  C   UNL     1      10.008  11.067  20.451  0.00  0.00    +0.000 A 
ATOM     26  C   UNL     1      10.878  11.797  19.645  0.00  0.00    +0.000 A 
ATOM     27  C   UNL     1      10.801  11.686  18.257  0.00  0.00    +0.000 A 
ATOM     28  C   UNL     1       9.859  10.836  17.677  0.00  0.00    +0.000 A 
ENDBRANCH  22  23
ENDBRANCH  21  22
ENDBRANCH  20  21
ENDBRANCH   2  20
TORSDOF 7
ENDMDL
MODEL 4
REMARK VINA RESULT:      -8.2      0.491      1.053
REMARK  Name = 
REMARK  8 active torsions:
REMARK  status: ('A' for Active; 'I' for Inactive)
REMARK    1  A    between atoms: C_1  and  O_2
REMARK    2  A    between atoms: O_2  and  C_3
REMARK    3  A    between atoms: C_6  and  C_7
REMARK    4  A    between atoms: C_8  and  C_9
REMARK    5  A    between atoms: C_9  and  C_10
REMARK    6  A    between atoms: C_10  and  C_11
REMARK    7  A    between atoms: C_11  and  C_12
REMARK    8  A    between atoms: N_20  and  C_21
REMARK                            x       y       z     vdW  Elec       q    Type
REMARK                         _______ _______ _______ _____ _____    ______ ____
ROOT
ATOM      1  C   UNL     1      -0.091  11.380  20.850  0.00  0.00    +0.000 C 
ATOM      2  C   UNL     1       0.747  10.117  21.248  0.00  0.00    +0.000 C 
ATOM      3  C   UNL     1       0.106  10.299  22.643  0.00  0.00    +0.000 C 
ATOM      4  O   UNL     1       0.191   9.717  23.701  0.00  0.00    +0.000 OA
ATOM      5  N   UNL     1      -0.602  11.378  22.222  0.00  0.00    +0.000 N 
ENDROOT
BRANCH   1   9
ATOM      6  C   UNL     1      -2.987  11.014  17.515  0.00  0.00    +0.000 A 
ATOM      7  C   UNL     1      -3.283  11.816  18.611  0.00  0.00    +0.000 A 
ATOM      8  C   UNL     1      -2.357  11.963  19.647  0.00  0.00    +0.000 A 
ATOM      9  C   UNL     1      -1.130  11.276  19.654  0.00  0.00    +0.000 A 
ATOM     10  C   UNL     1      -0.862  10.471  18.529  0.00  0.00    +0.000 A 
ATOM     11  C   UNL     1      -1.771  10.340  17.473  0.00  0.00    +0.000 A 
BRANCH   6  13
ATOM     12  C   UNL     1      -5.122  11.726  16.817  0.00  0.00    +0.000 C 
ATOM     13  O   UNL     1      -3.969  10.933  16.568  0.00  0.00    +0.000 OA
ENDBRANCH   6  13
ENDBRANCH   1   9
BRANCH   5  14
ATOM     14  C   UNL     1      -1.421  12.279  22.899  0.00  0.00    +0.000 A 
ATOM     15  C   UNL     1      -0.975  13.569  23.212  0.00  0.00    +0.000 A 
ATOM     16  C   UNL     1      -1.796  14.459  23.909  0.00  0.00    +0.000 A 
ATOM     17  C   UNL     1      -3.065  14.064  24.323  0.00  0.00    +0.000 A 
ATOM     18  C   UNL     1      -3.526  12.789  24.009  0.00  0.00    +0.000 A 
ATOM     19  C   UNL     1      -2.716  11.910  23.284  0.00  0.00    +0.000 A 
ENDBRANCH   5  14
BRANCH   2  20
ATOM     20  C   UNL     1       0.493   8.777  20.558  0.00  0.00    +0.000 C 
BRANCH  20  21
ATOM     21  C   UNL     1       1.524   7.741  21.008  0.00  0.00    +0.000 C 
BRANCH  21  22
ATOM     22  C   UNL     1       2.310   7.171  19.826  0.00  0.00    +0.000 C 
BRANCH  22  23
ATOM     23  C   UNL     1       1.914   5.741  19.552  0.00  0.00    +0.000 A 
ATOM     24  C   UNL     1       1.466   4.914  20.589  0.00  0.00    +0.000 A 
ATOM     25  C   UNL     1       1.107   3.589  20.332  0.00  0.00    +0.000 A 
ATOM     26  C   UNL     1       1.200   3.080  19.039  0.00  0.00    +0.000 A 
ATOM     27  C   UNL     1       1.662   3.889  18.002  0.00  0.00    +0.000 A 
ATOM     28  C   UNL     1       2.022   5.212  18.258  0.00  0.00    +0.000 A 
ENDBRANCH  22  23
ENDBRANCH  21  22
ENDBRANCH  20  21
ENDBRANCH   2  20
TORSDOF 7
ENDMDL
MODEL 5
REMARK VINA RESULT:      -8.1      7.911     10.843
REMARK  Name = 
REMARK  8 active torsions:
REMARK  status: ('A' for Active; 'I' for Inactive)
REMARK    1  A    between atoms: C_1  and  O_2
REMARK    2  A    between atoms: O_2  and  C_3
REMARK    3  A    between atoms: C_6  and  C_7
REMARK    4  A    between atoms: C_8  and  C_9
REMARK    5  A    between atoms: C_9  and  C_10
REMARK    6  A    between atoms: C_10  and  C_11
REMARK    7  A    between atoms: C_11  and  C_12
REMARK    8  A    between atoms: N_20  and  C_21
REMARK                            x       y       z     vdW  Elec       q    Type
REMARK                         _______ _______ _______ _____ _____    ______ ____
ROOT
ATOM      1  C   UNL     1       5.007   5.937  16.636  0.00  0.00    +0.000 C 
ATOM      2  C   UNL     1       5.978   6.685  17.612  0.00  0.00    +0.000 C 
ATOM      3  C   UNL     1       5.443   5.701  18.680  0.00  0.00    +0.000 C 
ATOM      4  O   UNL     1       5.652   5.530  19.860  0.00  0.00    +0.000 OA
ATOM      5  N   UNL     1       4.638   5.091  17.773  0.00  0.00    +0.000 N 
ENDROOT
BRANCH   1   9
ATOM      6  C   UNL     1       6.597   4.027  12.966  0.00  0.00    +0.000 A 
ATOM      7  C   UNL     1       7.412   4.851  13.732  0.00  0.00    +0.000 A 
ATOM      8  C   UNL     1       6.926   5.425  14.910  0.00  0.00    +0.000 A 
ATOM      9  C   UNL     1       5.598   5.244  15.336  0.00  0.00    +0.000 A 
ATOM     10  C   UNL     1       4.798   4.404  14.535  0.00  0.00    +0.000 A 
ATOM     11  C   UNL     1       5.285   3.801  13.369  0.00  0.00    +0.000 A 
BRANCH   6  13
ATOM     12  C   UNL     1       6.847   2.180  11.523  0.00  0.00    +0.000 C 
ATOM     13  O   UNL     1       7.172   3.530  11.829  0.00  0.00    +0.000 OA
ENDBRANCH   6  13
ENDBRANCH   1   9
BRANCH   5  14
ATOM     14  C   UNL     1       3.671   4.098  17.902  0.00  0.00    +0.000 A 
ATOM     15  C   UNL     1       2.314   4.420  18.029  0.00  0.00    +0.000 A 
ATOM     16  C   UNL     1       1.352   3.418  18.179  0.00  0.00    +0.000 A 
ATOM     17  C   UNL     1       1.736   2.081  18.229  0.00  0.00    +0.000 A 
ATOM     18  C   UNL     1       3.079   1.745  18.093  0.00  0.00    +0.000 A 
ATOM     19  C   UNL     1       4.037   2.746  17.912  0.00  0.00    +0.000 A 
ENDBRANCH   5  14
BRANCH   2  20
ATOM     20  C   UNL     1       7.486   6.659  17.367  0.00  0.00    +0.000 C 
BRANCH  20  21
ATOM     21  C   UNL     1       8.176   7.763  18.169  0.00  0.00    +0.000 C 
BRANCH  21  22
ATOM     22  C   UNL     1       7.957   9.141  17.542  0.00  0.00    +0.000 C 
BRANCH  22  23
ATOM     23  C   UNL     1       8.689  10.211  18.314  0.00  0.00    +0.000 A 
ATOM     24  C   UNL     1       9.200   9.945  19.591  0.00  0.00    +0.000 A 
ATOM     25  C   UNL     1       9.871  10.939  20.305  0.00  0.00    +0.000 A 
ATOM     26  C   UNL     1      10.031  12.208  19.752  0.00  0.00    +0.000 A 
ATOM     27  C   UNL     1       9.512  12.489  18.490  0.00  0.00    +0.000 A 
ATOM     28  C   UNL     1       8.840  11.496  17.776  0.00  0.00    +0.000 A 
ENDBRANCH  22  23
ENDBRANCH  21  22
ENDBRANCH  20  21
ENDBRANCH   2  20
TORSDOF 7
ENDMDL
MODEL 6
REMARK VINA RESULT:      -8.0      0.417      1.000
REMARK  Name = 
REMARK  8 active torsions:
REMARK  status: ('A' for Active; 'I' for Inactive)
REMARK    1  A    between atoms: C_1  and  O_2
REMARK    2  A    between atoms: O_2  and  C_3
REMARK    3  A    between atoms: C_6  and  C_7
REMARK    4  A    between atoms: C_8  and  C_9
REMARK    5  A    between atoms: C_9  and  C_10
REMARK    6  A    between atoms: C_10  and  C_11
REMARK    7  A    between atoms: C_11  and  C_12
REMARK    8  A    between atoms: N_20  and  C_21
REMARK                            x       y       z     vdW  Elec       q    Type
REMARK                         _______ _______ _______ _____ _____    ______ ____
ROOT
ATOM      1  C   UNL     1      -0.036  11.294  20.788  0.00  0.00    +0.000 C 
ATOM      2  C   UNL     1       0.759  10.026  21.251  0.00  0.00    +0.000 C 
ATOM      3  C   UNL     1       0.099  10.281  22.626  0.00  0.00    +0.000 C 
ATOM      4  O   UNL     1       0.149   9.739  23.707  0.00  0.00    +0.000 OA
ATOM      5  N   UNL     1      -0.571  11.361  22.150  0.00  0.00    +0.000 N 
ENDROOT
BRANCH   1   9
ATOM      6  C   UNL     1      -2.878  10.874  17.413  0.00  0.00    +0.000 A 
ATOM      7  C   UNL     1      -3.211  11.658  18.512  0.00  0.00    +0.000 A 
ATOM      8  C   UNL     1      -2.302  11.823  19.561  0.00  0.00    +0.000 A 
ATOM      9  C   UNL     1      -1.056  11.171  19.579  0.00  0.00    +0.000 A 
ATOM     10  C   UNL     1      -0.752  10.383  18.450  0.00  0.00    +0.000 A 
ATOM     11  C   UNL     1      -1.643  10.236  17.381  0.00  0.00    +0.000 A 
BRANCH   6  13
ATOM     12  C   UNL     1      -3.372  10.542  15.132  0.00  0.00    +0.000 C 
ATOM     13  O   UNL     1      -3.845  10.774  16.453  0.00  0.00    +0.000 OA
ENDBRANCH   6  13
ENDBRANCH   1   9
BRANCH   5  14
ATOM     14  C   UNL     1      -1.376  12.310  22.775  0.00  0.00    +0.000 A 
ATOM     15  C   UNL     1      -2.662  11.987  23.225  0.00  0.00    +0.000 A 
ATOM     16  C   UNL     1      -3.470  12.951  23.833  0.00  0.00    +0.000 A 
ATOM     17  C   UNL     1      -3.012  14.258  23.977  0.00  0.00    +0.000 A 
ATOM     18  C   UNL     1      -1.733  14.591  23.545  0.00  0.00    +0.000 A 
ATOM     19  C   UNL     1      -0.913  13.618  22.965  0.00  0.00    +0.000 A 
ENDBRANCH   5  14
BRANCH   2  20
ATOM     20  C   UNL     1       0.480   8.666  20.610  0.00  0.00    +0.000 C 
BRANCH  20  21
ATOM     21  C   UNL     1       1.777   8.044  20.092  0.00  0.00    +0.000 C 
BRANCH  21  22
ATOM     22  C   UNL     1       2.132   6.761  20.847  0.00  0.00    +0.000 C 
BRANCH  22  23
ATOM     23  C   UNL     1       1.872   5.542  19.997  0.00  0.00    +0.000 A 
ATOM     24  C   UNL     1       2.294   5.500  18.662  0.00  0.00    +0.000 A 
ATOM     25  C   UNL     1       2.045   4.374  17.877  0.00  0.00    +0.000 A 
ATOM     26  C   UNL     1       1.367   3.283  18.417  0.00  0.00    +0.000 A 
ATOM     27  C   UNL     1       0.927   3.321  19.738  0.00  0.00    +0.000 A 
ATOM     28  C   UNL     1       1.174   4.447  20.524  0.00  0.00    +0.000 A 
ENDBRANCH  22  23
ENDBRANCH  21  22
ENDBRANCH  20  21
ENDBRANCH   2  20
TORSDOF 7
ENDMDL
MODEL 7
REMARK VINA RESULT:      -7.9      4.727      8.201
REMARK  Name = 
REMARK  8 active torsions:
REMARK  status: ('A' for Active; 'I' for Inactive)
REMARK    1  A    between atoms: C_1  and  O_2
REMARK    2  A    between atoms: O_2  and  C_3
REMARK    3  A    between atoms: C_6  and  C_7
REMARK    4  A    between atoms: C_8  and  C_9
REMARK    5  A    between atoms: C_9  and  C_10
REMARK    6  A    between atoms: C_10  and  C_11
REMARK    7  A    between atoms: C_11  and  C_12
REMARK    8  A    between atoms: N_20  and  C_21
REMARK                            x       y       z     vdW  Elec       q    Type
REMARK                         _______ _______ _______ _____ _____    ______ ____
ROOT
ATOM      1  C   UNL     1       4.067   5.986  19.000  0.00  0.00    +0.000 C 
ATOM      2  C   UNL     1       4.939   5.656  17.741  0.00  0.00    +0.000 C 
ATOM      3  C   UNL     1       4.302   4.250  17.836  0.00  0.00    +0.000 C 
ATOM      4  O   UNL     1       4.408   3.223  17.203  0.00  0.00    +0.000 OA
ATOM      5  N   UNL     1       3.564   4.613  18.916  0.00  0.00    +0.000 N 
ENDROOT
BRANCH   1   9
ATOM      6  C   UNL     1       1.180   9.347  18.870  0.00  0.00    +0.000 A 
ATOM      7  C   UNL     1       2.000   9.088  17.777  0.00  0.00    +0.000 A 
ATOM      8  C   UNL     1       2.885   8.007  17.800  0.00  0.00    +0.000 A 
ATOM      9  C   UNL     1       3.024   7.180  18.929  0.00  0.00    +0.000 A 
ATOM     10  C   UNL     1       2.180   7.471  20.019  0.00  0.00    +0.000 A 
ATOM     11  C   UNL     1       1.269   8.534  19.995  0.00  0.00    +0.000 A 
BRANCH   6  13
ATOM     12  C   UNL     1      -0.833  10.392  19.509  0.00  0.00    +0.000 C 
ATOM     13  O   UNL     1       0.364  10.435  18.743  0.00  0.00    +0.000 OA
ENDBRANCH   6  13
ENDBRANCH   1   9
BRANCH   5  14
ATOM     14  C   UNL     1       2.727   3.888  19.760  0.00  0.00    +0.000 A 
ATOM     15  C   UNL     1       1.348   3.821  19.531  0.00  0.00    +0.000 A 
ATOM     16  C   UNL     1       0.513   3.108  20.395  0.00  0.00    +0.000 A 
ATOM     17  C   UNL     1       1.043   2.473  21.515  0.00  0.00    +0.000 A 
ATOM     18  C   UNL     1       2.413   2.522  21.750  0.00  0.00    +0.000 A 
ATOM     19  C   UNL     1       3.252   3.209  20.867  0.00  0.00    +0.000 A 
ENDBRANCH   5  14
BRANCH   2  20
ATOM     20  C   UNL     1       4.715   6.411  16.430  0.00  0.00    +0.000 C 
BRANCH  20  21
ATOM     21  C   UNL     1       6.050   6.686  15.738  0.00  0.00    +0.000 C 
BRANCH  21  22
ATOM     22  C   UNL     1       6.899   5.419  15.617  0.00  0.00    +0.000 C 
BRANCH  22  23
ATOM     23  C   UNL     1       6.737   4.785  14.258  0.00  0.00    +0.000 A 
ATOM     24  C   UNL     1       5.702   3.874  14.016  0.00  0.00    +0.000 A 
ATOM     25  C   UNL     1       5.559   3.283  12.759  0.00  0.00    +0.000 A 
ATOM     26  C   UNL     1       6.453   3.593  11.737  0.00  0.00    +0.000 A 
ATOM     27  C   UNL     1       7.498   4.485  11.972  0.00  0.00    +0.000 A 
ATOM     28  C   UNL     1       7.642   5.075  13.228  0.00  0.00    +0.000 A 
ENDBRANCH  22  23
ENDBRANCH  21  22
ENDBRANCH  20  21
ENDBRANCH   2  20
TORSDOF 7
ENDMDL
MODEL 8
REMARK VINA RESULT:      -7.8      1.114      1.892
REMARK  Name = 
REMARK  8 active torsions:
REMARK  status: ('A' for Active; 'I' for Inactive)
REMARK    1  A    between atoms: C_1  and  O_2
REMARK    2  A    between atoms: O_2  and  C_3
REMARK    3  A    between atoms: C_6  and  C_7
REMARK    4  A    between atoms: C_8  and  C_9
REMARK    5  A    between atoms: C_9  and  C_10
REMARK    6  A    between atoms: C_10  and  C_11
REMARK    7  A    between atoms: C_11  and  C_12
REMARK    8  A    between atoms: N_20  and  C_21
REMARK                            x       y       z     vdW  Elec       q    Type
REMARK                         _______ _______ _______ _____ _____    ______ ____
ROOT
ATOM      1  C   UNL     1       0.189  11.063  20.922  0.00  0.00    +0.000 C 
ATOM      2  C   UNL     1       0.877   9.743  21.411  0.00  0.00    +0.000 C 
ATOM      3  C   UNL     1       0.139  10.012  22.743  0.00  0.00    +0.000 C 
ATOM      4  O   UNL     1       0.082   9.449  23.813  0.00  0.00    +0.000 OA
ATOM      5  N   UNL     1      -0.435  11.137  22.245  0.00  0.00    +0.000 N 
ENDROOT
BRANCH   1   9
ATOM      6  C   UNL     1      -2.436  10.868  17.356  0.00  0.00    +0.000 A 
ATOM      7  C   UNL     1      -2.751  11.720  18.409  0.00  0.00    +0.000 A 
ATOM      8  C   UNL     1      -1.906  11.812  19.518  0.00  0.00    +0.000 A 
ATOM      9  C   UNL     1      -0.750  11.020  19.643  0.00  0.00    +0.000 A 
ATOM     10  C   UNL     1      -0.462  10.167  18.559  0.00  0.00    +0.000 A 
ATOM     11  C   UNL     1      -1.286  10.090  17.431  0.00  0.00    +0.000 A 
BRANCH   6  13
ATOM     12  C   UNL     1      -4.657  11.260  16.670  0.00  0.00    +0.000 C 
ATOM     13  O   UNL     1      -3.338  10.850  16.329  0.00  0.00    +0.000 OA
ENDBRANCH   6  13
ENDBRANCH   1   9
BRANCH   5  14
ATOM     14  C   UNL     1      -1.226  12.121  22.833  0.00  0.00    +0.000 A 
ATOM     15  C   UNL     1      -2.512  11.831  23.304  0.00  0.00    +0.000 A 
ATOM     16  C   UNL     1      -3.307  12.829  23.875  0.00  0.00    +0.000 A 
ATOM     17  C   UNL     1      -2.834  14.136  23.961  0.00  0.00    +0.000 A 
ATOM     18  C   UNL     1      -1.554  14.436  23.508  0.00  0.00    +0.000 A 
ATOM     19  C   UNL     1      -0.748  13.431  22.966  0.00  0.00    +0.000 A 
ENDBRANCH   5  14
BRANCH   2  20
ATOM     20  C   UNL     1       0.566   8.413  20.724  0.00  0.00    +0.000 C 
BRANCH  20  21
ATOM     21  C   UNL     1       1.860   7.704  20.323  0.00  0.00    +0.000 C 
BRANCH  21  22
ATOM     22  C   UNL     1       2.222   7.966  18.860  0.00  0.00    +0.000 C 
BRANCH  22  23
ATOM     23  C   UNL     1       2.841   6.745  18.227  0.00  0.00    +0.000 A 
ATOM     24  C   UNL     1       2.250   5.485  18.381  0.00  0.00    +0.000 A 
ATOM     25  C   UNL     1       2.829   4.356  17.800  0.00  0.00    +0.000 A 
ATOM     26  C   UNL     1       4.008   4.476  17.066  0.00  0.00    +0.000 A 
ATOM     27  C   UNL     1       4.615   5.722  16.922  0.00  0.00    +0.000 A 
ATOM     28  C   UNL     1       4.037   6.851  17.504  0.00  0.00    +0.000 A 
ENDBRANCH  22  23
ENDBRANCH  21  22
ENDBRANCH  20  21
ENDBRANCH   2  20
TORSDOF 7
ENDMDL
MODEL 9
REMARK VINA RESULT:      -7.8      4.631      8.447
REMARK  Name = 
REMARK  8 active torsions:
REMARK  status: ('A' for Active; 'I' for Inactive)
REMARK    1  A    between atoms: C_1  and  O_2
REMARK    2  A    between atoms: O_2  and  C_3
REMARK    3  A    between atoms: C_6  and  C_7
REMARK    4  A    between atoms: C_8  and  C_9
REMARK    5  A    between atoms: C_9  and  C_10
REMARK    6  A    between atoms: C_10  and  C_11
REMARK    7  A    between atoms: C_11  and  C_12
REMARK    8  A    between atoms: N_20  and  C_21
REMARK                            x       y       z     vdW  Elec       q    Type
REMARK                         _______ _______ _______ _____ _____    ______ ____
ROOT
ATOM      1  C   UNL     1       5.130   6.224  16.955  0.00  0.00    +0.000 C 
ATOM      2  C   UNL     1       5.425   4.734  16.572  0.00  0.00    +0.000 C 
ATOM      3  C   UNL     1       6.878   5.055  16.994  0.00  0.00    +0.000 C 
ATOM      4  O   UNL     1       7.913   4.428  17.028  0.00  0.00    +0.000 OA
ATOM      5  N   UNL     1       6.544   6.330  17.321  0.00  0.00    +0.000 N 
ENDROOT
BRANCH   1   9
ATOM      6  C   UNL     1       2.020   7.100  19.988  0.00  0.00    +0.000 A 
ATOM      7  C   UNL     1       2.933   6.073  20.201  0.00  0.00    +0.000 A 
ATOM      8  C   UNL     1       3.938   5.819  19.264  0.00  0.00    +0.000 A 
ATOM      9  C   UNL     1       4.036   6.539  18.060  0.00  0.00    +0.000 A 
ATOM     10  C   UNL     1       3.094   7.571  17.876  0.00  0.00    +0.000 A 
ATOM     11  C   UNL     1       2.102   7.853  18.822  0.00  0.00    +0.000 A 
BRANCH   6  13
ATOM     12  C   UNL     1       0.674   8.592  21.220  0.00  0.00    +0.000 C 
ATOM     13  O   UNL     1       1.074   7.252  20.963  0.00  0.00    +0.000 OA
ENDBRANCH   6  13
ENDBRANCH   1   9
BRANCH   5  14
ATOM     14  C   UNL     1       7.310   7.421  17.721  0.00  0.00    +0.000 A 
ATOM     15  C   UNL     1       8.276   7.300  18.728  0.00  0.00    +0.000 A 
ATOM     16  C   UNL     1       9.025   8.405  19.137  0.00  0.00    +0.000 A 
ATOM     17  C   UNL     1       8.803   9.654  18.562  0.00  0.00    +0.000 A 
ATOM     18  C   UNL     1       7.855   9.788  17.553  0.00  0.00    +0.000 A 
ATOM     19  C   UNL     1       7.127   8.674  17.122  0.00  0.00    +0.000 A 
ENDBRANCH   5  14
BRANCH   2  20
ATOM     20  C   UNL     1       4.739   3.595  17.327  0.00  0.00    +0.000 C 
BRANCH  20  21
ATOM     21  C   UNL     1       3.336   3.355  16.770  0.00  0.00    +0.000 C 
BRANCH  21  22
ATOM     22  C   UNL     1       2.650   2.169  17.451  0.00  0.00    +0.000 C 
BRANCH  22  23
ATOM     23  C   UNL     1       2.275   2.504  18.874  0.00  0.00    +0.000 A 
ATOM     24  C   UNL     1       3.153   2.220  19.928  0.00  0.00    +0.000 A 
ATOM     25  C   UNL     1       2.800   2.524  21.244  0.00  0.00    +0.000 A 
ATOM     26  C   UNL     1       1.566   3.109  21.517  0.00  0.00    +0.000 A 
ATOM     27  C   UNL     1       0.677   3.380  20.478  0.00  0.00    +0.000 A 
ATOM     28  C   UNL     1       1.029   3.075  19.163  0.00  0.00    +0.000 A 
ENDBRANCH  22  23
ENDBRANCH  21  22
ENDBRANCH  20  21
ENDBRANCH   2  20
TORSDOF 7
ENDMDL
