MODEL 1
REMARK VINA RESULT:      -7.6      0.000      0.000
REMARK  Name = 
REMARK  13 active torsions:
REMARK  status: ('A' for Active; 'I' for Inactive)
REMARK    1  A    between atoms: C_1  and  C_2
REMARK    2  A    between atoms: C_2  and  C_3
REMARK    3  A    between atoms: C_2  and  C_4
REMARK    4  A    between atoms: C_4  and  C_5
REMARK    5  A    between atoms: C_5  and  N_6
REMARK    6  A    between atoms: C_5  and  C_7
REMARK    7  A    between atoms: C_7  and  O_8
REMARK    8  A    between atoms: C_7  and  C_9
REMARK    9  A    between atoms: C_9  and  C_10
REMARK   10  A    between atoms: C_16  and  C_17
REMARK   11  A    between atoms: N_19  and  C_20
REMARK   12  A    between atoms: C_20  and  C_21
REMARK   13  A    between atoms: C_20  and  C_22
REMARK                            x       y       z     vdW  Elec       q    Type
REMARK                         _______ _______ _______ _____ _____    ______ ____
ROOT
ATOM      1  C   UNL     1       5.697   5.433  18.288  0.00  0.00    +0.000 C 
ATOM      2  O   UNL     1       5.937   4.824  19.333  0.00  0.00    +0.000 OA
ATOM      3  N   UNL     1       4.500   6.104  18.127  0.00  0.00    +0.000 N 
ATOM      4  C   UNL     1       4.115   6.940  17.005  0.00  0.00    +0.000 C 
ATOM      5  C   UNL     1       3.263   8.025  17.631  0.00  0.00    +0.000 C 
ATOM      6  C   UNL     1       2.551   7.321  18.778  0.00  0.00    +0.000 C 
ATOM      7  C   UNL     1       3.478   6.161  19.187  0.00  0.00    +0.000 C 
ENDROOT
BRANCH   7   8
ATOM      8  C   UNL     1       2.684   4.836  19.329  0.00  0.00    +0.000 C 
ATOM      9  O   UNL     1       1.627   4.617  18.742  0.00  0.00    +0.000 OA
ATOM     10  N   UNL     1       3.223   3.937  20.226  0.00  0.00    +0.000 N 
ATOM     11  H   UNL     1       4.203   4.071  20.477  0.00  0.00    +0.000 HD
BRANCH  10  12
ATOM     12  C   UNL     1       2.604   2.628  20.444  0.00  0.00    +0.000 C 
ATOM     13  C   UNL     1       1.262   2.790  21.154  0.00  0.00    +0.000 C 
BRANCH  12  14
ATOM     14  C   UNL     1       2.406   1.806  19.157  0.00  0.00    +0.000 C 
ATOM     15  N   UNL     1       1.125   1.630  18.724  0.00  0.00    +0.000 N 
ATOM     16  O   UNL     1       3.338   1.310  18.526  0.00  0.00    +0.000 OA
ATOM     17  H   UNL     1       0.322   1.956  19.242  0.00  0.00    +0.000 HD
ATOM     18  H   UNL     1       0.983   1.075  17.891  0.00  0.00    +0.000 HD
ENDBRANCH  12  14
ENDBRANCH  10  12
ENDBRANCH   7   8
BRANCH   1  19
ATOM     19  C   UNL     1       6.699   5.517  17.137  0.00  0.00    +0.000 C 
BRANCH  19  20
ATOM     20  C   UNL     1       6.835   4.192  16.372  0.00  0.00    +0.000 C 
BRANCH  20  21
ATOM     21  O   UNL     1       5.622   3.434  16.522  0.00  0.00    +0.000 OA
ATOM     22  H   UNL     1       5.819   2.528  16.230  0.00  0.00    +0.000 HD
ENDBRANCH  20  21
BRANCH  20  23
ATOM     23  C   UNL     1       7.116   4.397  14.845  0.00  0.00    +0.000 C 
BRANCH  23  24
ATOM     24  N   UNL     1       7.700   5.731  14.603  0.00  0.00    +0.000 NA
ATOM     25  H   UNL     1       8.138   5.737  13.680  0.00  0.00    +0.000 HD
ATOM     26  H   UNL     1       8.478   5.878  15.249  0.00  0.00    +0.000 HD
ENDBRANCH  23  24
BRANCH  23  27
ATOM     27  C   UNL     1       5.812   4.214  14.027  0.00  0.00    +0.000 C 
BRANCH  27  29
ATOM     28  C   UNL     1       4.619   3.431  11.892  0.00  0.00    +0.000 C 
ATOM     29  C   UNL     1       5.899   3.376  12.727  0.00  0.00    +0.000 C 
ATOM     30  C   UNL     1       7.074   3.874  11.876  0.00  0.00    +0.000 C 
ENDBRANCH  27  29
ENDBRANCH  23  27
ENDBRANCH  20  23
ENDBRANCH  19  20
ENDBRANCH   1  19
TORSDOF 10
ENDMDL
MODEL 2
REMARK VINA RESULT:      -7.2      1.606      1.736
REMARK  Name = 
REMARK  13 active torsions:
REMARK  status: ('A' for Active; 'I' for Inactive)
REMARK    1  A    between atoms: C_1  and  C_2
REMARK    2  A    between atoms: C_2  and  C_3
REMARK    3  A    between atoms: C_2  and  C_4
REMARK    4  A    between atoms: C_4  and  C_5
REMARK    5  A    between atoms: C_5  and  N_6
REMARK    6  A    between atoms: C_5  and  C_7
REMARK    7  A    between atoms: C_7  and  O_8
REMARK    8  A    between atoms: C_7  and  C_9
REMARK    9  A    between atoms: C_9  and  C_10
REMARK   10  A    between atoms: C_16  and  C_17
REMARK   11  A    between atoms: N_19  and  C_20
REMARK   12  A    between atoms: C_20  and  C_21
REMARK   13  A    between atoms: C_20  and  C_22
REMARK                            x       y       z     vdW  Elec       q    Type
REMARK                         _______ _______ _______ _____ _____    ______ ____
ROOT
ATOM      1  C   UNL     1       5.509   6.137  18.507  0.00  0.00    +0.000 C 
ATOM      2  O   UNL     1       5.863   5.582  19.550  0.00  0.00    +0.000 OA
ATOM      3  N   UNL     1       4.220   6.613  18.370  0.00  0.00    +0.000 N 
ATOM      4  C   UNL     1       3.686   7.369  17.251  0.00  0.00    +0.000 C 
ATOM      5  C   UNL     1       2.691   8.316  17.891  0.00  0.00    +0.000 C 
ATOM      6  C   UNL     1       2.122   7.523  19.058  0.00  0.00    +0.000 C 
ATOM      7  C   UNL     1       3.225   6.524  19.453  0.00  0.00    +0.000 C 
ENDROOT
BRANCH   7   8
ATOM      8  C   UNL     1       2.649   5.094  19.622  0.00  0.00    +0.000 C 
ATOM      9  O   UNL     1       1.652   4.843  20.297  0.00  0.00    +0.000 OA
ATOM     10  N   UNL     1       3.384   4.101  19.008  0.00  0.00    +0.000 N 
ATOM     11  H   UNL     1       4.033   4.397  18.278  0.00  0.00    +0.000 HD
BRANCH  10  12
ATOM     12  C   UNL     1       2.949   2.704  19.052  0.00  0.00    +0.000 C 
ATOM     13  C   UNL     1       2.185   2.349  17.778  0.00  0.00    +0.000 C 
BRANCH  12  14
ATOM     14  C   UNL     1       4.094   1.696  19.259  0.00  0.00    +0.000 C 
ATOM     15  N   UNL     1       4.222   0.703  18.334  0.00  0.00    +0.000 N 
ATOM     16  O   UNL     1       4.874   1.751  20.208  0.00  0.00    +0.000 OA
ATOM     17  H   UNL     1       3.567   0.572  17.576  0.00  0.00    +0.000 HD
ATOM     18  H   UNL     1       4.959   0.024  18.472  0.00  0.00    +0.000 HD
ENDBRANCH  12  14
ENDBRANCH  10  12
ENDBRANCH   7   8
BRANCH   1  19
ATOM     19  C   UNL     1       6.460   6.362  17.332  0.00  0.00    +0.000 C 
BRANCH  19  20
ATOM     20  C   UNL     1       6.760   5.071  16.556  0.00  0.00    +0.000 C 
BRANCH  20  21
ATOM     21  O   UNL     1       7.407   4.134  17.433  0.00  0.00    +0.000 OA
ATOM     22  H   UNL     1       6.734   3.481  17.694  0.00  0.00    +0.000 HD
ENDBRANCH  20  21
BRANCH  20  23
ATOM     23  C   UNL     1       5.472   4.402  15.966  0.00  0.00    +0.000 C 
BRANCH  23  24
ATOM     24  N   UNL     1       5.460   2.956  16.262  0.00  0.00    +0.000 NA
ATOM     25  H   UNL     1       4.505   2.608  16.169  0.00  0.00    +0.000 HD
ATOM     26  H   UNL     1       5.682   2.815  17.249  0.00  0.00    +0.000 HD
ENDBRANCH  23  24
BRANCH  23  27
ATOM     27  C   UNL     1       5.388   4.648  14.438  0.00  0.00    +0.000 C 
BRANCH  27  29
ATOM     28  C   UNL     1       5.802   3.261  12.318  0.00  0.00    +0.000 C 
ATOM     29  C   UNL     1       6.428   3.929  13.543  0.00  0.00    +0.000 C 
ATOM     30  C   UNL     1       7.485   4.939  13.077  0.00  0.00    +0.000 C 
ENDBRANCH  27  29
ENDBRANCH  23  27
ENDBRANCH  20  23
ENDBRANCH  19  20
ENDBRANCH   1  19
TORSDOF 10
ENDMDL
MODEL 3
REMARK VINA RESULT:      -7.1      1.221      1.480
REMARK  Name = 
REMARK  13 active torsions:
REMARK  status: ('A' for Active; 'I' for Inactive)
REMARK    1  A    between atoms: C_1  and  C_2
REMARK    2  A    between atoms: C_2  and  C_3
REMARK    3  A    between atoms: C_2  and  C_4
REMARK    4  A    between atoms: C_4  and  C_5
REMARK    5  A    between atoms: C_5  and  N_6
REMARK    6  A    between atoms: C_5  and  C_7
REMARK    7  A    between atoms: C_7  and  O_8
REMARK    8  A    between atoms: C_7  and  C_9
REMARK    9  A    between atoms: C_9  and  C_10
REMARK   10  A    between atoms: C_16  and  C_17
REMARK   11  A    between atoms: N_19  and  C_20
REMARK   12  A    between atoms: C_20  and  C_21
REMARK   13  A    between atoms: C_20  and  C_22
REMARK                            x       y       z     vdW  Elec       q    Type
REMARK                         _______ _______ _______ _____ _____    ______ ____
ROOT
ATOM      1  C   UNL     1       5.758   5.808  18.181  0.00  0.00    +0.000 C 
ATOM      2  O   UNL     1       6.268   5.441  19.242  0.00  0.00    +0.000 OA
ATOM      3  N   UNL     1       4.462   6.284  18.154  0.00  0.00    +0.000 N 
ATOM      4  C   UNL     1       3.762   6.840  17.010  0.00  0.00    +0.000 C 
ATOM      5  C   UNL     1       2.873   7.911  17.609  0.00  0.00    +0.000 C 
ATOM      6  C   UNL     1       2.490   7.354  18.973  0.00  0.00    +0.000 C 
ATOM      7  C   UNL     1       3.644   6.416  19.373  0.00  0.00    +0.000 C 
ENDROOT
BRANCH   7   8
ATOM      8  C   UNL     1       3.103   5.054  19.883  0.00  0.00    +0.000 C 
ATOM      9  O   UNL     1       2.374   4.943  20.866  0.00  0.00    +0.000 OA
ATOM     10  N   UNL     1       3.563   3.956  19.186  0.00  0.00    +0.000 N 
ATOM     11  H   UNL     1       3.948   4.131  18.257  0.00  0.00    +0.000 HD
BRANCH  10  12
ATOM     12  C   UNL     1       3.116   2.605  19.529  0.00  0.00    +0.000 C 
ATOM     13  C   UNL     1       2.073   2.121  18.524  0.00  0.00    +0.000 C 
BRANCH  12  14
ATOM     14  C   UNL     1       4.254   1.572  19.621  0.00  0.00    +0.000 C 
ATOM     15  N   UNL     1       4.304   0.615  18.651  0.00  0.00    +0.000 N 
ATOM     16  O   UNL     1       5.096   1.576  20.518  0.00  0.00    +0.000 OA
ATOM     17  H   UNL     1       3.600   0.525  17.933  0.00  0.00    +0.000 HD
ATOM     18  H   UNL     1       5.037  -0.079  18.713  0.00  0.00    +0.000 HD
ENDBRANCH  12  14
ENDBRANCH  10  12
ENDBRANCH   7   8
BRANCH   1  19
ATOM     19  C   UNL     1       6.519   5.795  16.856  0.00  0.00    +0.000 C 
BRANCH  19  20
ATOM     20  C   UNL     1       6.768   4.373  16.329  0.00  0.00    +0.000 C 
BRANCH  20  21
ATOM     21  O   UNL     1       5.629   3.551  16.636  0.00  0.00    +0.000 OA
ATOM     22  H   UNL     1       5.385   3.092  15.814  0.00  0.00    +0.000 HD
ENDBRANCH  20  21
BRANCH  20  23
ATOM     23  C   UNL     1       7.018   4.332  14.783  0.00  0.00    +0.000 C 
BRANCH  23  24
ATOM     24  N   UNL     1       7.643   5.590  14.328  0.00  0.00    +0.000 NA
ATOM     25  H   UNL     1       6.914   6.293  14.199  0.00  0.00    +0.000 HD
ATOM     26  H   UNL     1       8.026   5.453  13.391  0.00  0.00    +0.000 HD
ENDBRANCH  23  24
BRANCH  23  27
ATOM     27  C   UNL     1       5.688   4.079  14.028  0.00  0.00    +0.000 C 
BRANCH  27  29
ATOM     28  C   UNL     1       6.903   2.999  12.041  0.00  0.00    +0.000 C 
ATOM     29  C   UNL     1       5.763   3.914  12.490  0.00  0.00    +0.000 C 
ATOM     30  C   UNL     1       4.434   3.349  11.971  0.00  0.00    +0.000 C 
ENDBRANCH  27  29
ENDBRANCH  23  27
ENDBRANCH  20  23
ENDBRANCH  19  20
ENDBRANCH   1  19
TORSDOF 10
ENDMDL
MODEL 4
REMARK VINA RESULT:      -7.1      1.367      1.384
REMARK  Name = 
REMARK  13 active torsions:
REMARK  status: ('A' for Active; 'I' for Inactive)
REMARK    1  A    between atoms: C_1  and  C_2
REMARK    2  A    between atoms: C_2  and  C_3
REMARK    3  A    between atoms: C_2  and  C_4
REMARK    4  A    between atoms: C_4  and  C_5
REMARK    5  A    between atoms: C_5  and  N_6
REMARK    6  A    between atoms: C_5  and  C_7
REMARK    7  A    between atoms: C_7  and  O_8
REMARK    8  A    between atoms: C_7  and  C_9
REMARK    9  A    between atoms: C_9  and  C_10
REMARK   10  A    between atoms: C_16  and  C_17
REMARK   11  A    between atoms: N_19  and  C_20
REMARK   12  A    between atoms: C_20  and  C_21
REMARK   13  A    between atoms: C_20  and  C_22
REMARK                            x       y       z     vdW  Elec       q    Type
REMARK                         _______ _______ _______ _____ _____    ______ ____
ROOT
ATOM      1  C   UNL     1       5.663   5.902  18.319  0.00  0.00    +0.000 C 
ATOM      2  O   UNL     1       5.880   5.155  19.276  0.00  0.00    +0.000 OA
ATOM      3  N   UNL     1       4.416   6.469  18.141  0.00  0.00    +0.000 N 
ATOM      4  C   UNL     1       4.037   7.437  17.129  0.00  0.00    +0.000 C 
ATOM      5  C   UNL     1       3.017   8.315  17.825  0.00  0.00    +0.000 C 
ATOM      6  C   UNL     1       2.294   7.366  18.770  0.00  0.00    +0.000 C 
ATOM      7  C   UNL     1       3.308   6.251  19.087  0.00  0.00    +0.000 C 
ENDROOT
BRANCH   7   8
ATOM      8  C   UNL     1       2.660   4.849  18.940  0.00  0.00    +0.000 C 
ATOM      9  O   UNL     1       1.686   4.628  18.223  0.00  0.00    +0.000 OA
ATOM     10  N   UNL     1       3.219   3.871  19.736  0.00  0.00    +0.000 N 
ATOM     11  H   UNL     1       4.153   4.057  20.103  0.00  0.00    +0.000 HD
BRANCH  10  12
ATOM     12  C   UNL     1       2.736   2.490  19.684  0.00  0.00    +0.000 C 
ATOM     13  C   UNL     1       1.229   2.448  19.928  0.00  0.00    +0.000 C 
BRANCH  12  14
ATOM     14  C   UNL     1       3.061   1.761  18.368  0.00  0.00    +0.000 C 
ATOM     15  N   UNL     1       4.192   0.999  18.344  0.00  0.00    +0.000 N 
ATOM     16  O   UNL     1       2.358   1.842  17.362  0.00  0.00    +0.000 OA
ATOM     17  H   UNL     1       4.839   0.953  19.118  0.00  0.00    +0.000 HD
ATOM     18  H   UNL     1       4.425   0.531  17.478  0.00  0.00    +0.000 HD
ENDBRANCH  12  14
ENDBRANCH  10  12
ENDBRANCH   7   8
BRANCH   1  19
ATOM     19  C   UNL     1       6.744   6.271  17.303  0.00  0.00    +0.000 C 
BRANCH  19  20
ATOM     20  C   UNL     1       7.010   5.152  16.286  0.00  0.00    +0.000 C 
BRANCH  20  21
ATOM     21  O   UNL     1       7.845   4.152  16.894  0.00  0.00    +0.000 OA
ATOM     22  H   UNL     1       7.353   3.314  16.858  0.00  0.00    +0.000 HD
ENDBRANCH  20  21
BRANCH  20  23
ATOM     23  C   UNL     1       5.695   4.468  15.776  0.00  0.00    +0.000 C 
BRANCH  23  24
ATOM     24  N   UNL     1       5.704   3.028  16.100  0.00  0.00    +0.000 NA
ATOM     25  H   UNL     1       4.742   2.716  16.242  0.00  0.00    +0.000 HD
ATOM     26  H   UNL     1       6.147   2.892  17.011  0.00  0.00    +0.000 HD
ENDBRANCH  23  24
BRANCH  23  27
ATOM     27  C   UNL     1       5.531   4.684  14.250  0.00  0.00    +0.000 C 
BRANCH  27  29
ATOM     28  C   UNL     1       5.785   3.191  12.177  0.00  0.00    +0.000 C 
ATOM     29  C   UNL     1       6.501   3.919  13.315  0.00  0.00    +0.000 C 
ATOM     30  C   UNL     1       7.517   4.903  12.719  0.00  0.00    +0.000 C 
ENDBRANCH  27  29
ENDBRANCH  23  27
ENDBRANCH  20  23
ENDBRANCH  19  20
ENDBRANCH   1  19
TORSDOF 10
ENDMDL
MODEL 5
REMARK VINA RESULT:      -7.1      1.339      1.344
REMARK  Name = 
REMARK  13 active torsions:
REMARK  status: ('A' for Active; 'I' for Inactive)
REMARK    1  A    between atoms: C_1  and  C_2
REMARK    2  A    between atoms: C_2  and  C_3
REMARK    3  A    between atoms: C_2  and  C_4
REMARK    4  A    between atoms: C_4  and  C_5
REMARK    5  A    between atoms: C_5  and  N_6
REMARK    6  A    between atoms: C_5  and  C_7
REMARK    7  A    between atoms: C_7  and  O_8
REMARK    8  A    between atoms: C_7  and  C_9
REMARK    9  A    between atoms: C_9  and  C_10
REMARK   10  A    between atoms: C_16  and  C_17
REMARK   11  A    between atoms: N_19  and  C_20
REMARK   12  A    between atoms: C_20  and  C_21
REMARK   13  A    between atoms: C_20  and  C_22
REMARK                            x       y       z     vdW  Elec       q    Type
REMARK                         _______ _______ _______ _____ _____    ______ ____
ROOT
ATOM      1  C   UNL     1       6.422   6.041  17.926  0.00  0.00    +0.000 C 
ATOM      2  O   UNL     1       7.074   5.665  18.903  0.00  0.00    +0.000 OA
ATOM      3  N   UNL     1       5.055   6.219  18.023  0.00  0.00    +0.000 N 
ATOM      4  C   UNL     1       4.172   6.745  16.999  0.00  0.00    +0.000 C 
ATOM      5  C   UNL     1       3.122   7.510  17.779  0.00  0.00    +0.000 C 
ATOM      6  C   UNL     1       2.966   6.716  19.068  0.00  0.00    +0.000 C 
ATOM      7  C   UNL     1       4.320   6.012  19.283  0.00  0.00    +0.000 C 
ENDROOT
BRANCH   7   8
ATOM      8  C   UNL     1       4.120   4.512  19.623  0.00  0.00    +0.000 C 
ATOM      9  O   UNL     1       5.024   3.681  19.566  0.00  0.00    +0.000 OA
ATOM     10  N   UNL     1       2.822   4.160  19.931  0.00  0.00    +0.000 N 
ATOM     11  H   UNL     1       2.193   4.918  20.199  0.00  0.00    +0.000 HD
BRANCH  10  12
ATOM     12  C   UNL     1       2.483   2.786  20.304  0.00  0.00    +0.000 C 
ATOM     13  C   UNL     1       1.291   2.777  21.260  0.00  0.00    +0.000 C 
BRANCH  12  14
ATOM     14  C   UNL     1       2.184   1.865  19.107  0.00  0.00    +0.000 C 
ATOM     15  N   UNL     1       0.890   1.795  18.685  0.00  0.00    +0.000 N 
ATOM     16  O   UNL     1       3.050   1.205  18.534  0.00  0.00    +0.000 OA
ATOM     17  H   UNL     1       0.132   2.262  19.162  0.00  0.00    +0.000 HD
ATOM     18  H   UNL     1       0.680   1.179  17.912  0.00  0.00    +0.000 HD
ENDBRANCH  12  14
ENDBRANCH  10  12
ENDBRANCH   7   8
BRANCH   1  19
ATOM     19  C   UNL     1       7.069   6.362  16.580  0.00  0.00    +0.000 C 
BRANCH  19  20
ATOM     20  C   UNL     1       7.468   5.102  15.798  0.00  0.00    +0.000 C 
BRANCH  20  21
ATOM     21  O   UNL     1       7.961   4.113  16.717  0.00  0.00    +0.000 OA
ATOM     22  H   UNL     1       7.467   3.294  16.542  0.00  0.00    +0.000 HD
ENDBRANCH  20  21
BRANCH  20  23
ATOM     23  C   UNL     1       6.276   4.486  14.988  0.00  0.00    +0.000 C 
BRANCH  23  24
ATOM     24  N   UNL     1       5.968   3.127  15.477  0.00  0.00    +0.000 NA
ATOM     25  H   UNL     1       5.015   3.118  15.845  0.00  0.00    +0.000 HD
ATOM     26  H   UNL     1       6.552   2.925  16.291  0.00  0.00    +0.000 HD
ENDBRANCH  23  24
BRANCH  23  27
ATOM     27  C   UNL     1       6.609   4.459  13.474  0.00  0.00    +0.000 C 
BRANCH  27  29
ATOM     28  C   UNL     1       4.752   3.553  11.950  0.00  0.00    +0.000 C 
ATOM     29  C   UNL     1       6.079   3.259  12.650  0.00  0.00    +0.000 C 
ATOM     30  C   UNL     1       7.124   2.862  11.598  0.00  0.00    +0.000 C 
ENDBRANCH  27  29
ENDBRANCH  23  27
ENDBRANCH  20  23
ENDBRANCH  19  20
ENDBRANCH   1  19
TORSDOF 10
ENDMDL
MODEL 6
REMARK VINA RESULT:      -7.1      1.993      6.978
REMARK  Name = 
REMARK  13 active torsions:
REMARK  status: ('A' for Active; 'I' for Inactive)
REMARK    1  A    between atoms: C_1  and  C_2
REMARK    2  A    between atoms: C_2  and  C_3
REMARK    3  A    between atoms: C_2  and  C_4
REMARK    4  A    between atoms: C_4  and  C_5
REMARK    5  A    between atoms: C_5  and  N_6
REMARK    6  A    between atoms: C_5  and  C_7
REMARK    7  A    between atoms: C_7  and  O_8
REMARK    8  A    between atoms: C_7  and  C_9
REMARK    9  A    between atoms: C_9  and  C_10
REMARK   10  A    between atoms: C_16  and  C_17
REMARK   11  A    between atoms: N_19  and  C_20
REMARK   12  A    between atoms: C_20  and  C_21
REMARK   13  A    between atoms: C_20  and  C_22
REMARK                            x       y       z     vdW  Elec       q    Type
REMARK                         _______ _______ _______ _____ _____    ______ ____
ROOT
ATOM      1  C   UNL     1       4.210   3.472  17.405  0.00  0.00    +0.000 C 
ATOM      2  O   UNL     1       3.716   3.611  16.284  0.00  0.00    +0.000 OA
ATOM      3  N   UNL     1       5.284   4.246  17.798  0.00  0.00    +0.000 N 
ATOM      4  C   UNL     1       5.908   4.268  19.109  0.00  0.00    +0.000 C 
ATOM      5  C   UNL     1       6.335   5.711  19.287  0.00  0.00    +0.000 C 
ATOM      6  C   UNL     1       6.705   6.164  17.881  0.00  0.00    +0.000 C 
ATOM      7  C   UNL     1       5.865   5.288  16.933  0.00  0.00    +0.000 C 
ENDROOT
BRANCH   7   8
ATOM      8  C   UNL     1       6.739   4.703  15.793  0.00  0.00    +0.000 C 
ATOM      9  O   UNL     1       7.919   4.392  15.940  0.00  0.00    +0.000 OA
ATOM     10  N   UNL     1       6.108   4.622  14.569  0.00  0.00    +0.000 N 
ATOM     11  H   UNL     1       5.088   4.657  14.576  0.00  0.00    +0.000 HD
BRANCH  10  12
ATOM     12  C   UNL     1       6.794   4.061  13.404  0.00  0.00    +0.000 C 
ATOM     13  C   UNL     1       5.792   3.366  12.484  0.00  0.00    +0.000 C 
BRANCH  12  14
ATOM     14  C   UNL     1       7.601   5.093  12.594  0.00  0.00    +0.000 C 
ATOM     15  N   UNL     1       8.528   5.827  13.272  0.00  0.00    +0.000 N 
ATOM     16  O   UNL     1       7.439   5.277  11.388  0.00  0.00    +0.000 OA
ATOM     17  H   UNL     1       8.652   5.764  14.273  0.00  0.00    +0.000 HD
ATOM     18  H   UNL     1       9.049   6.521  12.754  0.00  0.00    +0.000 HD
ENDBRANCH  12  14
ENDBRANCH  10  12
ENDBRANCH   7   8
BRANCH   1  19
ATOM     19  C   UNL     1       3.659   2.480  18.429  0.00  0.00    +0.000 C 
BRANCH  19  20
ATOM     20  C   UNL     1       2.214   2.797  18.843  0.00  0.00    +0.000 C 
BRANCH  20  21
ATOM     21  O   UNL     1       1.395   1.636  18.621  0.00  0.00    +0.000 OA
ATOM     22  H   UNL     1       0.696   1.900  17.998  0.00  0.00    +0.000 HD
ENDBRANCH  20  21
BRANCH  20  23
ATOM     23  C   UNL     1       2.090   3.220  20.346  0.00  0.00    +0.000 C 
BRANCH  23  24
ATOM     24  N   UNL     1       0.685   3.133  20.792  0.00  0.00    +0.000 NA
ATOM     25  H   UNL     1       0.118   3.759  20.218  0.00  0.00    +0.000 HD
ATOM     26  H   UNL     1       0.609   3.521  21.734  0.00  0.00    +0.000 HD
ENDBRANCH  23  24
BRANCH  23  27
ATOM     27  C   UNL     1       2.640   4.655  20.550  0.00  0.00    +0.000 C 
BRANCH  27  29
ATOM     28  C   UNL     1       1.453   6.905  20.900  0.00  0.00    +0.000 C 
ATOM     29  C   UNL     1       1.851   5.819  19.899  0.00  0.00    +0.000 C 
ATOM     30  C   UNL     1       2.698   6.450  18.786  0.00  0.00    +0.000 C 
ENDBRANCH  27  29
ENDBRANCH  23  27
ENDBRANCH  20  23
ENDBRANCH  19  20
ENDBRANCH   1  19
TORSDOF 10
ENDMDL
MODEL 7
REMARK VINA RESULT:      -7.1      1.463      1.810
REMARK  Name = 
REMARK  13 active torsions:
REMARK  status: ('A' for Active; 'I' for Inactive)
REMARK    1  A    between atoms: C_1  and  C_2
REMARK    2  A    between atoms: C_2  and  C_3
REMARK    3  A    between atoms: C_2  and  C_4
REMARK    4  A    between atoms: C_4  and  C_5
REMARK    5  A    between atoms: C_5  and  N_6
REMARK    6  A    between atoms: C_5  and  C_7
REMARK    7  A    between atoms: C_7  and  O_8
REMARK    8  A    between atoms: C_7  and  C_9
REMARK    9  A    between atoms: C_9  and  C_10
REMARK   10  A    between atoms: C_16  and  C_17
REMARK   11  A    between atoms: N_19  and  C_20
REMARK   12  A    between atoms: C_20  and  C_21
REMARK   13  A    between atoms: C_20  and  C_22
REMARK                            x       y       z     vdW  Elec       q    Type
REMARK                         _______ _______ _______ _____ _____    ______ ____
ROOT
ATOM      1  C   UNL     1       5.649   6.085  17.900  0.00  0.00    +0.000 C 
ATOM      2  O   UNL     1       6.032   5.435  18.875  0.00  0.00    +0.000 OA
ATOM      3  N   UNL     1       4.368   6.601  17.861  0.00  0.00    +0.000 N 
ATOM      4  C   UNL     1       3.807   7.461  16.836  0.00  0.00    +0.000 C 
ATOM      5  C   UNL     1       2.866   8.373  17.596  0.00  0.00    +0.000 C 
ATOM      6  C   UNL     1       2.326   7.495  18.717  0.00  0.00    +0.000 C 
ATOM      7  C   UNL     1       3.419   6.442  18.976  0.00  0.00    +0.000 C 
ENDROOT
BRANCH   7   8
ATOM      8  C   UNL     1       2.812   5.016  19.049  0.00  0.00    +0.000 C 
ATOM      9  O   UNL     1       1.858   4.652  18.365  0.00  0.00    +0.000 OA
ATOM     10  N   UNL     1       3.384   4.196  20.000  0.00  0.00    +0.000 N 
ATOM     11  H   UNL     1       4.306   4.466  20.344  0.00  0.00    +0.000 HD
BRANCH  10  12
ATOM     12  C   UNL     1       2.940   2.811  20.166  0.00  0.00    +0.000 C 
ATOM     13  C   UNL     1       4.083   1.949  20.696  0.00  0.00    +0.000 C 
BRANCH  12  14
ATOM     14  C   UNL     1       1.712   2.651  21.082  0.00  0.00    +0.000 C 
ATOM     15  N   UNL     1       0.497   2.968  20.552  0.00  0.00    +0.000 N 
ATOM     16  O   UNL     1       1.788   2.262  22.246  0.00  0.00    +0.000 OA
ATOM     17  H   UNL     1       0.387   3.357  19.626  0.00  0.00    +0.000 HD
ATOM     18  H   UNL     1      -0.314   2.886  21.151  0.00  0.00    +0.000 HD
ENDBRANCH  12  14
ENDBRANCH  10  12
ENDBRANCH   7   8
BRANCH   1  19
ATOM     19  C   UNL     1       6.555   6.388  16.708  0.00  0.00    +0.000 C 
BRANCH  19  20
ATOM     20  C   UNL     1       7.008   5.120  15.970  0.00  0.00    +0.000 C 
BRANCH  20  21
ATOM     21  O   UNL     1       7.850   4.344  16.840  0.00  0.00    +0.000 OA
ATOM     22  H   UNL     1       8.255   4.966  17.468  0.00  0.00    +0.000 HD
ENDBRANCH  20  21
BRANCH  20  23
ATOM     23  C   UNL     1       5.809   4.227  15.501  0.00  0.00    +0.000 C 
BRANCH  23  24
ATOM     24  N   UNL     1       5.404   3.302  16.578  0.00  0.00    +0.000 NA
ATOM     25  H   UNL     1       5.645   3.718  17.479  0.00  0.00    +0.000 HD
ATOM     26  H   UNL     1       5.980   2.460  16.530  0.00  0.00    +0.000 HD
ENDBRANCH  23  24
BRANCH  23  27
ATOM     27  C   UNL     1       6.189   3.442  14.220  0.00  0.00    +0.000 C 
BRANCH  27  29
ATOM     28  C   UNL     1       7.263   4.364  12.078  0.00  0.00    +0.000 C 
ATOM     29  C   UNL     1       5.967   4.149  12.860  0.00  0.00    +0.000 C 
ATOM     30  C   UNL     1       4.999   3.319  12.006  0.00  0.00    +0.000 C 
ENDBRANCH  27  29
ENDBRANCH  23  27
ENDBRANCH  20  23
ENDBRANCH  19  20
ENDBRANCH   1  19
TORSDOF 10
ENDMDL
MODEL 8
REMARK VINA RESULT:      -7.0      1.435      1.606
REMARK  Name = 
REMARK  13 active torsions:
REMARK  status: ('A' for Active; 'I' for Inactive)
REMARK    1  A    between atoms: C_1  and  C_2
REMARK    2  A    between atoms: C_2  and  C_3
REMARK    3  A    between atoms: C_2  and  C_4
REMARK    4  A    between atoms: C_4  and  C_5
REMARK    5  A    between atoms: C_5  and  N_6
REMARK    6  A    between atoms: C_5  and  C_7
REMARK    7  A    between atoms: C_7  and  O_8
REMARK    8  A    between atoms: C_7  and  C_9
REMARK    9  A    between atoms: C_9  and  C_10
REMARK   10  A    between atoms: C_16  and  C_17
REMARK   11  A    between atoms: N_19  and  C_20
REMARK   12  A    between atoms: C_20  and  C_21
REMARK   13  A    between atoms: C_20  and  C_22
REMARK                            x       y       z     vdW  Elec       q    Type
REMARK                         _______ _______ _______ _____ _____    ______ ____
ROOT
ATOM      1  C   UNL     1       4.457   5.875  18.053  0.00  0.00    +0.000 C 
ATOM      2  O   UNL     1       4.978   5.365  19.047  0.00  0.00    +0.000 OA
ATOM      3  N   UNL     1       3.376   6.725  18.187  0.00  0.00    +0.000 N 
ATOM      4  C   UNL     1       2.721   7.473  17.130  0.00  0.00    +0.000 C 
ATOM      5  C   UNL     1       2.294   8.761  17.803  0.00  0.00    +0.000 C 
ATOM      6  C   UNL     1       1.960   8.342  19.228  0.00  0.00    +0.000 C 
ATOM      7  C   UNL     1       2.820   7.094  19.501  0.00  0.00    +0.000 C 
ENDROOT
BRANCH   7   8
ATOM      8  C   UNL     1       1.971   5.959  20.133  0.00  0.00    +0.000 C 
ATOM      9  O   UNL     1       1.239   6.127  21.106  0.00  0.00    +0.000 OA
ATOM     10  N   UNL     1       2.154   4.718  19.561  0.00  0.00    +0.000 N 
ATOM     11  H   UNL     1       2.567   4.699  18.628  0.00  0.00    +0.000 HD
BRANCH  10  12
ATOM     12  C   UNL     1       1.398   3.554  20.029  0.00  0.00    +0.000 C 
ATOM     13  C   UNL     1       1.040   2.649  18.853  0.00  0.00    +0.000 C 
BRANCH  12  14
ATOM     14  C   UNL     1       2.122   2.728  21.108  0.00  0.00    +0.000 C 
ATOM     15  N   UNL     1       1.386   2.335  22.186  0.00  0.00    +0.000 N 
ATOM     16  O   UNL     1       3.312   2.423  21.036  0.00  0.00    +0.000 OA
ATOM     17  H   UNL     1       0.427   2.616  22.327  0.00  0.00    +0.000 HD
ATOM     18  H   UNL     1       1.857   1.809  22.910  0.00  0.00    +0.000 HD
ENDBRANCH  12  14
ENDBRANCH  10  12
ENDBRANCH   7   8
BRANCH   1  19
ATOM     19  C   UNL     1       4.980   5.636  16.637  0.00  0.00    +0.000 C 
BRANCH  19  20
ATOM     20  C   UNL     1       5.933   4.435  16.552  0.00  0.00    +0.000 C 
BRANCH  20  21
ATOM     21  O   UNL     1       5.188   3.226  16.774  0.00  0.00    +0.000 OA
ATOM     22  H   UNL     1       5.834   2.500  16.813  0.00  0.00    +0.000 HD
ENDBRANCH  20  21
BRANCH  20  23
ATOM     23  C   UNL     1       6.660   4.332  15.168  0.00  0.00    +0.000 C 
BRANCH  23  24
ATOM     24  N   UNL     1       7.641   5.425  15.018  0.00  0.00    +0.000 NA
ATOM     25  H   UNL     1       7.220   6.171  14.463  0.00  0.00    +0.000 HD
ATOM     26  H   UNL     1       8.421   5.097  14.446  0.00  0.00    +0.000 HD
ENDBRANCH  23  24
BRANCH  23  27
ATOM     27  C   UNL     1       5.627   4.362  14.012  0.00  0.00    +0.000 C 
BRANCH  27  29
ATOM     28  C   UNL     1       4.691   3.302  11.869  0.00  0.00    +0.000 C 
ATOM     29  C   UNL     1       5.904   3.456  12.787  0.00  0.00    +0.000 C 
ATOM     30  C   UNL     1       7.073   4.035  11.978  0.00  0.00    +0.000 C 
ENDBRANCH  27  29
ENDBRANCH  23  27
ENDBRANCH  20  23
ENDBRANCH  19  20
ENDBRANCH   1  19
TORSDOF 10
ENDMDL
MODEL 9
REMARK VINA RESULT:      -6.9      1.239      1.411
REMARK  Name = 
REMARK  13 active torsions:
REMARK  status: ('A' for Active; 'I' for Inactive)
REMARK    1  A    between atoms: C_1  and  C_2
REMARK    2  A    between atoms: C_2  and  C_3
REMARK    3  A    between atoms: C_2  and  C_4
REMARK    4  A    between atoms: C_4  and  C_5
REMARK    5  A    between atoms: C_5  and  N_6
REMARK    6  A    between atoms: C_5  and  C_7
REMARK    7  A    between atoms: C_7  and  O_8
REMARK    8  A    between atoms: C_7  and  C_9
REMARK    9  A    between atoms: C_9  and  C_10
REMARK   10  A    between atoms: C_16  and  C_17
REMARK   11  A    between atoms: N_19  and  C_20
REMARK   12  A    between atoms: C_20  and  C_21
REMARK   13  A    between atoms: C_20  and  C_22
REMARK                            x       y       z     vdW  Elec       q    Type
REMARK                         _______ _______ _______ _____ _____    ______ ____
ROOT
ATOM      1  C   UNL     1       5.662   5.979  18.556  0.00  0.00    +0.000 C 
ATOM      2  O   UNL     1       6.073   5.505  19.618  0.00  0.00    +0.000 OA
ATOM      3  N   UNL     1       4.364   6.442  18.451  0.00  0.00    +0.000 N 
ATOM      4  C   UNL     1       3.769   7.110  17.308  0.00  0.00    +0.000 C 
ATOM      5  C   UNL     1       2.804   8.101  17.925  0.00  0.00    +0.000 C 
ATOM      6  C   UNL     1       2.300   7.398  19.178  0.00  0.00    +0.000 C 
ATOM      7  C   UNL     1       3.429   6.433  19.589  0.00  0.00    +0.000 C 
ENDROOT
BRANCH   7   8
ATOM      8  C   UNL     1       2.869   5.019  19.896  0.00  0.00    +0.000 C 
ATOM      9  O   UNL     1       2.124   4.779  20.843  0.00  0.00    +0.000 OA
ATOM     10  N   UNL     1       3.330   4.025  19.058  0.00  0.00    +0.000 N 
ATOM     11  H   UNL     1       3.731   4.324  18.169  0.00  0.00    +0.000 HD
BRANCH  10  12
ATOM     12  C   UNL     1       2.867   2.644  19.202  0.00  0.00    +0.000 C 
ATOM     13  C   UNL     1       1.816   2.325  18.142  0.00  0.00    +0.000 C 
BRANCH  12  14
ATOM     14  C   UNL     1       3.992   1.594  19.139  0.00  0.00    +0.000 C 
ATOM     15  N   UNL     1       5.005   1.716  20.043  0.00  0.00    +0.000 N 
ATOM     16  O   UNL     1       4.011   0.677  18.319  0.00  0.00    +0.000 OA
ATOM     17  H   UNL     1       5.073   2.488  20.690  0.00  0.00    +0.000 HD
ATOM     18  H   UNL     1       5.759   1.043  19.997  0.00  0.00    +0.000 HD
ENDBRANCH  12  14
ENDBRANCH  10  12
ENDBRANCH   7   8
BRANCH   1  19
ATOM     19  C   UNL     1       6.549   6.115  17.319  0.00  0.00    +0.000 C 
BRANCH  19  20
ATOM     20  C   UNL     1       6.684   4.800  16.539  0.00  0.00    +0.000 C 
BRANCH  20  21
ATOM     21  O   UNL     1       5.713   3.860  17.027  0.00  0.00    +0.000 OA
ATOM     22  H   UNL     1       5.221   3.536  16.253  0.00  0.00    +0.000 HD
ENDBRANCH  20  21
BRANCH  20  23
ATOM     23  C   UNL     1       6.477   4.983  14.996  0.00  0.00    +0.000 C 
BRANCH  23  24
ATOM     24  N   UNL     1       5.635   6.165  14.727  0.00  0.00    +0.000 NA
ATOM     25  H   UNL     1       6.210   7.005  14.811  0.00  0.00    +0.000 HD
ATOM     26  H   UNL     1       4.943   6.260  15.472  0.00  0.00    +0.000 HD
ENDBRANCH  23  24
BRANCH  23  27
ATOM     27  C   UNL     1       5.844   3.709  14.381  0.00  0.00    +0.000 C 
BRANCH  27  29
ATOM     28  C   UNL     1       4.922   3.472  11.997  0.00  0.00    +0.000 C 
ATOM     29  C   UNL     1       6.157   3.405  12.895  0.00  0.00    +0.000 C 
ATOM     30  C   UNL     1       7.206   4.401  12.381  0.00  0.00    +0.000 C 
ENDBRANCH  27  29
ENDBRANCH  23  27
ENDBRANCH  20  23
ENDBRANCH  19  20
ENDBRANCH   1  19
TORSDOF 10
ENDMDL
