MODEL 1
REMARK VINA RESULT:      -6.1      0.000      0.000
REMARK  Name = 
REMARK  3 active torsions:
REMARK  status: ('A' for Active; 'I' for Inactive)
REMARK    1  A    between atoms: C_1  and  C_2
REMARK    2  A    between atoms: C_2  and  C_4
REMARK    3  A    between atoms: C_5  and  C_6
REMARK                            x       y       z     vdW  Elec       q    Type
REMARK                         _______ _______ _______ _____ _____    ______ ____
ROOT
ATOM      1  C   UNL     1       3.894   4.379  17.197  0.00  0.00    +0.000 A 
ATOM      2  C   UNL     1       3.748   5.600  17.873  0.00  0.00    +0.000 A 
ATOM      3  C   UNL     1       2.718   5.790  18.797  0.00  0.00    +0.000 A 
ATOM      4  C   UNL     1       1.806   4.766  19.042  0.00  0.00    +0.000 A 
ATOM      5  C   UNL     1       1.928   3.558  18.357  0.00  0.00    +0.000 A 
ATOM      6 CL   UNL     1       0.793   2.297  18.651  0.00  0.00    +0.000 Cl
ATOM      7  C   UNL     1       2.959   3.363  17.436  0.00  0.00    +0.000 A 
ENDROOT
BRANCH   1   9
ATOM      8  C   UNL     1       5.490   5.118  15.448  0.00  0.00    +0.000 C 
ATOM      9  C   UNL     1       4.961   4.150  16.210  0.00  0.00    +0.000 C 
BRANCH   8  11
ATOM     10  C   UNL     1       6.233   3.801  13.407  0.00  0.00    +0.000 C 
ATOM     11  C   UNL     1       6.569   4.816  14.466  0.00  0.00    +0.000 C 
ATOM     12  O   UNL     1       7.668   5.360  14.524  0.00  0.00    +0.000 OA
ENDBRANCH   8  11
ENDBRANCH   1   9
TORSDOF 2
ENDMDL
MODEL 2
REMARK VINA RESULT:      -6.0      2.403      2.924
REMARK  Name = 
REMARK  3 active torsions:
REMARK  status: ('A' for Active; 'I' for Inactive)
REMARK    1  A    between atoms: C_1  and  C_2
REMARK    2  A    between atoms: C_2  and  C_4
REMARK    3  A    between atoms: C_5  and  C_6
REMARK                            x       y       z     vdW  Elec       q    Type
REMARK                         _______ _______ _______ _____ _____    ______ ____
ROOT
ATOM      1  C   UNL     1       3.772   4.104  18.978  0.00  0.00    +0.000 A 
ATOM      2  C   UNL     1       2.921   4.260  17.873  0.00  0.00    +0.000 A 
ATOM      3  C   UNL     1       1.567   3.924  17.957  0.00  0.00    +0.000 A 
ATOM      4  C   UNL     1       1.050   3.410  19.143  0.00  0.00    +0.000 A 
ATOM      5  C   UNL     1       1.893   3.228  20.239  0.00  0.00    +0.000 A 
ATOM      6 CL   UNL     1       1.257   2.580  21.701  0.00  0.00    +0.000 Cl
ATOM      7  C   UNL     1       3.245   3.566  20.161  0.00  0.00    +0.000 A 
ENDROOT
BRANCH   1   9
ATOM      8  C   UNL     1       5.900   4.532  17.778  0.00  0.00    +0.000 C 
ATOM      9  C   UNL     1       5.204   4.437  18.920  0.00  0.00    +0.000 C 
BRANCH   8  11
ATOM     10  C   UNL     1       7.741   6.067  18.618  0.00  0.00    +0.000 C 
ATOM     11  C   UNL     1       7.350   4.872  17.791  0.00  0.00    +0.000 C 
ATOM     12  O   UNL     1       8.174   4.216  17.160  0.00  0.00    +0.000 OA
ENDBRANCH   8  11
ENDBRANCH   1   9
TORSDOF 2
ENDMDL
MODEL 3
REMARK VINA RESULT:      -6.0      1.604      2.256
REMARK  Name = 
REMARK  3 active torsions:
REMARK  status: ('A' for Active; 'I' for Inactive)
REMARK    1  A    between atoms: C_1  and  C_2
REMARK    2  A    between atoms: C_2  and  C_4
REMARK    3  A    between atoms: C_5  and  C_6
REMARK                            x       y       z     vdW  Elec       q    Type
REMARK                         _______ _______ _______ _____ _____    ______ ____
ROOT
ATOM      1  C   UNL     1       3.135   3.781  17.608  0.00  0.00    +0.000 A 
ATOM      2  C   UNL     1       2.368   2.607  17.660  0.00  0.00    +0.000 A 
ATOM      3  C   UNL     1       1.366   2.447  18.620  0.00  0.00    +0.000 A 
ATOM      4  C   UNL     1       1.130   3.453  19.554  0.00  0.00    +0.000 A 
ATOM      5  C   UNL     1       1.902   4.612  19.526  0.00  0.00    +0.000 A 
ATOM      6 CL   UNL     1       1.620   5.850  20.688  0.00  0.00    +0.000 Cl
ATOM      7  C   UNL     1       2.903   4.778  18.566  0.00  0.00    +0.000 A 
ENDROOT
BRANCH   1   9
ATOM      8  C   UNL     1       5.494   4.162  16.943  0.00  0.00    +0.000 C 
ATOM      9  C   UNL     1       4.206   3.977  16.618  0.00  0.00    +0.000 C 
BRANCH   8  11
ATOM     10  C   UNL     1       6.112   4.014  14.483  0.00  0.00    +0.000 C 
ATOM     11  C   UNL     1       6.528   4.356  15.889  0.00  0.00    +0.000 C 
ATOM     12  O   UNL     1       7.655   4.765  16.155  0.00  0.00    +0.000 OA
ENDBRANCH   8  11
ENDBRANCH   1   9
TORSDOF 2
ENDMDL
MODEL 4
REMARK VINA RESULT:      -5.9      3.560      5.528
REMARK  Name = 
REMARK  3 active torsions:
REMARK  status: ('A' for Active; 'I' for Inactive)
REMARK    1  A    between atoms: C_1  and  C_2
REMARK    2  A    between atoms: C_2  and  C_4
REMARK    3  A    between atoms: C_5  and  C_6
REMARK                            x       y       z     vdW  Elec       q    Type
REMARK                         _______ _______ _______ _____ _____    ______ ____
ROOT
ATOM      1  C   UNL     1       3.896   4.746  17.403  0.00  0.00    +0.000 A 
ATOM      2  C   UNL     1       4.096   6.133  17.481  0.00  0.00    +0.000 A 
ATOM      3  C   UNL     1       4.930   6.789  16.572  0.00  0.00    +0.000 A 
ATOM      4  C   UNL     1       5.590   6.063  15.584  0.00  0.00    +0.000 A 
ATOM      5  C   UNL     1       5.417   4.682  15.515  0.00  0.00    +0.000 A 
ATOM      6 CL   UNL     1       6.244   3.782  14.302  0.00  0.00    +0.000 Cl
ATOM      7  C   UNL     1       4.582   4.022  16.418  0.00  0.00    +0.000 A 
ENDROOT
BRANCH   1   9
ATOM      8  C   UNL     1       1.749   3.725  18.110  0.00  0.00    +0.000 C 
ATOM      9  C   UNL     1       3.034   4.022  18.351  0.00  0.00    +0.000 C 
BRANCH   8  11
ATOM     10  C   UNL     1       1.068   3.450  20.542  0.00  0.00    +0.000 C 
ATOM     11  C   UNL     1       0.932   2.989  19.116  0.00  0.00    +0.000 C 
ATOM     12  O   UNL     1       0.197   2.059  18.797  0.00  0.00    +0.000 OA
ENDBRANCH   8  11
ENDBRANCH   1   9
TORSDOF 2
ENDMDL
MODEL 5
REMARK VINA RESULT:      -5.9      0.905      1.073
REMARK  Name = 
REMARK  3 active torsions:
REMARK  status: ('A' for Active; 'I' for Inactive)
REMARK    1  A    between atoms: C_1  and  C_2
REMARK    2  A    between atoms: C_2  and  C_4
REMARK    3  A    between atoms: C_5  and  C_6
REMARK                            x       y       z     vdW  Elec       q    Type
REMARK                         _______ _______ _______ _____ _____    ______ ____
ROOT
ATOM      1  C   UNL     1       3.462   5.008  17.922  0.00  0.00    +0.000 A 
ATOM      2  C   UNL     1       3.353   5.879  19.016  0.00  0.00    +0.000 A 
ATOM      3  C   UNL     1       2.420   5.645  20.029  0.00  0.00    +0.000 A 
ATOM      4  C   UNL     1       1.570   4.544  19.951  0.00  0.00    +0.000 A 
ATOM      5  C   UNL     1       1.654   3.686  18.856  0.00  0.00    +0.000 A 
ATOM      6 CL   UNL     1       0.595   2.334  18.752  0.00  0.00    +0.000 Cl
ATOM      7  C   UNL     1       2.588   3.915  17.843  0.00  0.00    +0.000 A 
ENDROOT
BRANCH   1   9
ATOM      8  C   UNL     1       5.602   4.594  16.736  0.00  0.00    +0.000 C 
ATOM      9  C   UNL     1       4.425   5.232  16.832  0.00  0.00    +0.000 C 
BRANCH   8  11
ATOM     10  C   UNL     1       6.296   4.076  14.349  0.00  0.00    +0.000 C 
ATOM     11  C   UNL     1       6.531   4.870  15.606  0.00  0.00    +0.000 C 
ATOM     12  O   UNL     1       7.438   5.692  15.699  0.00  0.00    +0.000 OA
ENDBRANCH   8  11
ENDBRANCH   1   9
TORSDOF 2
ENDMDL
MODEL 6
REMARK VINA RESULT:      -5.8      1.613      1.814
REMARK  Name = 
REMARK  3 active torsions:
REMARK  status: ('A' for Active; 'I' for Inactive)
REMARK    1  A    between atoms: C_1  and  C_2
REMARK    2  A    between atoms: C_2  and  C_4
REMARK    3  A    between atoms: C_5  and  C_6
REMARK                            x       y       z     vdW  Elec       q    Type
REMARK                         _______ _______ _______ _____ _____    ______ ____
ROOT
ATOM      1  C   UNL     1       3.645   3.588  17.892  0.00  0.00    +0.000 A 
ATOM      2  C   UNL     1       2.397   3.923  17.346  0.00  0.00    +0.000 A 
ATOM      3  C   UNL     1       1.240   3.892  18.128  0.00  0.00    +0.000 A 
ATOM      4  C   UNL     1       1.314   3.506  19.464  0.00  0.00    +0.000 A 
ATOM      5  C   UNL     1       2.545   3.148  20.010  0.00  0.00    +0.000 A 
ATOM      6 CL   UNL     1       2.635   2.657  21.657  0.00  0.00    +0.000 Cl
ATOM      7  C   UNL     1       3.705   3.181  19.233  0.00  0.00    +0.000 A 
ENDROOT
BRANCH   1   9
ATOM      8  C   UNL     1       5.121   4.473  16.106  0.00  0.00    +0.000 C 
ATOM      9  C   UNL     1       4.881   3.599  17.094  0.00  0.00    +0.000 C 
BRANCH   8  11
ATOM     10  C   UNL     1       6.282   3.998  13.897  0.00  0.00    +0.000 C 
ATOM     11  C   UNL     1       6.395   4.428  15.335  0.00  0.00    +0.000 C 
ATOM     12  O   UNL     1       7.472   4.719  15.848  0.00  0.00    +0.000 OA
ENDBRANCH   8  11
ENDBRANCH   1   9
TORSDOF 2
ENDMDL
MODEL 7
REMARK VINA RESULT:      -5.8      3.611      5.567
REMARK  Name = 
REMARK  3 active torsions:
REMARK  status: ('A' for Active; 'I' for Inactive)
REMARK    1  A    between atoms: C_1  and  C_2
REMARK    2  A    between atoms: C_2  and  C_4
REMARK    3  A    between atoms: C_5  and  C_6
REMARK                            x       y       z     vdW  Elec       q    Type
REMARK                         _______ _______ _______ _____ _____    ______ ____
ROOT
ATOM      1  C   UNL     1       4.739   4.056  17.980  0.00  0.00    +0.000 A 
ATOM      2  C   UNL     1       5.860   4.575  18.644  0.00  0.00    +0.000 A 
ATOM      3  C   UNL     1       7.031   4.879  17.945  0.00  0.00    +0.000 A 
ATOM      4  C   UNL     1       7.102   4.651  16.573  0.00  0.00    +0.000 A 
ATOM      5  C   UNL     1       6.001   4.112  15.909  0.00  0.00    +0.000 A 
ATOM      6 CL   UNL     1       6.093   3.817  14.215  0.00  0.00    +0.000 Cl
ATOM      7  C   UNL     1       4.828   3.810  16.602  0.00  0.00    +0.000 A 
ENDROOT
BRANCH   1   9
ATOM      8  C   UNL     1       2.351   3.389  18.066  0.00  0.00    +0.000 C 
ATOM      9  C   UNL     1       3.495   3.714  18.687  0.00  0.00    +0.000 C 
BRANCH   8  11
ATOM     10  C   UNL     1       0.942   3.798  20.140  0.00  0.00    +0.000 C 
ATOM     11  C   UNL     1       1.126   3.054  18.845  0.00  0.00    +0.000 C 
ATOM     12  O   UNL     1       0.320   2.215  18.453  0.00  0.00    +0.000 OA
ENDBRANCH   8  11
ENDBRANCH   1   9
TORSDOF 2
ENDMDL
MODEL 8
REMARK VINA RESULT:      -5.8      1.478      2.026
REMARK  Name = 
REMARK  3 active torsions:
REMARK  status: ('A' for Active; 'I' for Inactive)
REMARK    1  A    between atoms: C_1  and  C_2
REMARK    2  A    between atoms: C_2  and  C_4
REMARK    3  A    between atoms: C_5  and  C_6
REMARK                            x       y       z     vdW  Elec       q    Type
REMARK                         _______ _______ _______ _____ _____    ______ ____
ROOT
ATOM      1  C   UNL     1       3.934   4.321  17.195  0.00  0.00    +0.000 A 
ATOM      2  C   UNL     1       2.988   3.286  17.234  0.00  0.00    +0.000 A 
ATOM      3  C   UNL     1       1.841   3.391  18.024  0.00  0.00    +0.000 A 
ATOM      4  C   UNL     1       1.634   4.527  18.802  0.00  0.00    +0.000 A 
ATOM      5  C   UNL     1       2.580   5.551  18.790  0.00  0.00    +0.000 A 
ATOM      6 CL   UNL     1       2.332   6.950  19.762  0.00  0.00    +0.000 Cl
ATOM      7  C   UNL     1       3.726   5.452  17.999  0.00  0.00    +0.000 A 
ENDROOT
BRANCH   1   9
ATOM      8  C   UNL     1       5.295   4.820  15.183  0.00  0.00    +0.000 C 
ATOM      9  C   UNL     1       5.158   4.238  16.383  0.00  0.00    +0.000 C 
BRANCH   8  11
ATOM     10  C   UNL     1       6.492   3.880  13.148  0.00  0.00    +0.000 C 
ATOM     11  C   UNL     1       6.564   4.694  14.412  0.00  0.00    +0.000 C 
ATOM     12  O   UNL     1       7.607   5.221  14.791  0.00  0.00    +0.000 OA
ENDBRANCH   8  11
ENDBRANCH   1   9
TORSDOF 2
ENDMDL
MODEL 9
REMARK VINA RESULT:      -5.8      2.365      3.051
REMARK  Name = 
REMARK  3 active torsions:
REMARK  status: ('A' for Active; 'I' for Inactive)
REMARK    1  A    between atoms: C_1  and  C_2
REMARK    2  A    between atoms: C_2  and  C_4
REMARK    3  A    between atoms: C_5  and  C_6
REMARK                            x       y       z     vdW  Elec       q    Type
REMARK                         _______ _______ _______ _____ _____    ______ ____
ROOT
ATOM      1  C   UNL     1       4.028   3.890  18.669  0.00  0.00    +0.000 A 
ATOM      2  C   UNL     1       3.626   3.084  17.593  0.00  0.00    +0.000 A 
ATOM      3  C   UNL     1       2.548   2.204  17.720  0.00  0.00    +0.000 A 
ATOM      4  C   UNL     1       1.869   2.106  18.932  0.00  0.00    +0.000 A 
ATOM      5  C   UNL     1       2.277   2.885  20.014  0.00  0.00    +0.000 A 
ATOM      6 CL   UNL     1       1.447   2.753  21.516  0.00  0.00    +0.000 Cl
ATOM      7  C   UNL     1       3.351   3.768  19.890  0.00  0.00    +0.000 A 
ENDROOT
BRANCH   1   9
ATOM      8  C   UNL     1       6.020   4.844  17.539  0.00  0.00    +0.000 C 
ATOM      9  C   UNL     1       5.166   4.818  18.573  0.00  0.00    +0.000 C 
BRANCH   8  11
ATOM     10  C   UNL     1       7.832   6.078  18.822  0.00  0.00    +0.000 C 
ATOM     11  C   UNL     1       7.153   5.810  17.506  0.00  0.00    +0.000 C 
ATOM     12  O   UNL     1       7.506   6.359  16.466  0.00  0.00    +0.000 OA
ENDBRANCH   8  11
ENDBRANCH   1   9
TORSDOF 2
ENDMDL
