MODEL 1
REMARK VINA RESULT:      -8.7      0.000      0.000
REMARK  Name = 
REMARK  9 active torsions:
REMARK  status: ('A' for Active; 'I' for Inactive)
REMARK    1  A    between atoms: C_1  and  C_2
REMARK    2  A    between atoms: C_3  and  C_4
REMARK    3  A    between atoms: C_3  and  C_13
REMARK    4  A    between atoms: C_7  and  C_8
REMARK    5  A    between atoms: C_8  and  O_10
REMARK    6  A    between atoms: C_19  and  C_20
REMARK    7  A    between atoms: C_19  and  C_21
REMARK    8  A    between atoms: C_24  and  C_25
REMARK    9  A    between atoms: C_24  and  C_26
REMARK                            x       y       z     vdW  Elec       q    Type
REMARK                         _______ _______ _______ _____ _____    ______ ____
ROOT
ATOM      1  C   UNL     1       2.429   7.252  19.181  0.00  0.00    +0.000 A 
ATOM      2  C   UNL     1       2.254   8.227  18.177  0.00  0.00    +0.000 A 
ATOM      3  C   UNL     1       1.495   9.448  18.373  0.00  0.00    +0.000 A 
ATOM      4  C   UNL     1       0.848   9.760  19.591  0.00  0.00    +0.000 A 
ATOM      5  C   UNL     1       1.092   8.795  20.581  0.00  0.00    +0.000 A 
ATOM      6  C   UNL     1       1.854   7.588  20.388  0.00  0.00    +0.000 A 
ATOM      7  C   UNL     1       0.470   9.012  21.981  0.00  0.00    +0.000 C 
ATOM      8  C   UNL     1       1.845   9.776  22.251  0.00  0.00    +0.000 C 
ATOM      9  C   UNL     1      -0.682   8.025  21.414  0.00  0.00    +0.000 C 
ATOM     10  C   UNL     1      -0.428  10.102  22.485  0.00  0.00    +0.000 C 
ATOM     11  C   UNL     1      -0.812  11.032  21.368  0.00  0.00    +0.000 C 
ATOM     12  C   UNL     1      -0.148  10.920  19.898  0.00  0.00    +0.000 C 
ATOM     13  C   UNL     1      -1.295  10.738  18.872  0.00  0.00    +0.000 C 
ATOM     14  C   UNL     1       0.387  12.345  19.674  0.00  0.00    +0.000 C 
ENDROOT
BRANCH   1  17
ATOM     15  C   UNL     1       3.348   3.525  19.983  0.00  0.00    +0.000 C 
ATOM     16  C   UNL     1       2.789   4.923  19.935  0.00  0.00    +0.000 C 
ATOM     17  C   UNL     1       3.126   5.912  19.071  0.00  0.00    +0.000 C 
BRANCH  17  18
ATOM     18  C   UNL     1       4.106   5.547  17.978  0.00  0.00    +0.000 A 
ATOM     19  C   UNL     1       5.294   6.256  17.760  0.00  0.00    +0.000 A 
ATOM     20  C   UNL     1       6.161   5.950  16.707  0.00  0.00    +0.000 A 
ATOM     21  C   UNL     1       5.840   4.926  15.815  0.00  0.00    +0.000 A 
ATOM     22  C   UNL     1       4.667   4.178  16.018  0.00  0.00    +0.000 A 
ATOM     23  C   UNL     1       3.812   4.503  17.092  0.00  0.00    +0.000 A 
BRANCH  21  24
ATOM     24  C   UNL     1       6.774   4.616  14.697  0.00  0.00    +0.000 C 
ATOM     25  O   UNL     1       7.726   5.331  14.403  0.00  0.00    +0.000 OA
BRANCH  24  26
ATOM     26  O   UNL     1       6.444   3.504  13.996  0.00  0.00    +0.000 OA
ATOM     27  H   UNL     1       6.948   3.370  13.176  0.00  0.00    +0.000 HD
ENDBRANCH  24  26
ENDBRANCH  21  24
ENDBRANCH  17  18
ENDBRANCH   1  17
TORSDOF 4
ENDMDL
MODEL 2
REMARK VINA RESULT:      -8.7      1.131      1.259
REMARK  Name = 
REMARK  9 active torsions:
REMARK  status: ('A' for Active; 'I' for Inactive)
REMARK    1  A    between atoms: C_1  and  C_2
REMARK    2  A    between atoms: C_3  and  C_4
REMARK    3  A    between atoms: C_3  and  C_13
REMARK    4  A    between atoms: C_7  and  C_8
REMARK    5  A    between atoms: C_8  and  O_10
REMARK    6  A    between atoms: C_19  and  C_20
REMARK    7  A    between atoms: C_19  and  C_21
REMARK    8  A    between atoms: C_24  and  C_25
REMARK    9  A    between atoms: C_24  and  C_26
REMARK                            x       y       z     vdW  Elec       q    Type
REMARK                         _______ _______ _______ _____ _____    ______ ____
ROOT
ATOM      1  C   UNL     1       2.024   7.258  19.636  0.00  0.00    +0.000 A 
ATOM      2  C   UNL     1       2.021   8.280  18.664  0.00  0.00    +0.000 A 
ATOM      3  C   UNL     1       1.434   9.589  18.882  0.00  0.00    +0.000 A 
ATOM      4  C   UNL     1       0.796   9.949  20.090  0.00  0.00    +0.000 A 
ATOM      5  C   UNL     1       0.869   8.928  21.052  0.00  0.00    +0.000 A 
ATOM      6  C   UNL     1       1.460   7.633  20.838  0.00  0.00    +0.000 A 
ATOM      7  C   UNL     1       0.235   9.187  22.440  0.00  0.00    +0.000 C 
ATOM      8  C   UNL     1       1.693   9.740  22.778  0.00  0.00    +0.000 C 
ATOM      9  C   UNL     1      -1.023   8.391  21.803  0.00  0.00    +0.000 C 
ATOM     10  C   UNL     1      -0.518  10.376  22.956  0.00  0.00    +0.000 C 
ATOM     11  C   UNL     1      -0.730  11.385  21.863  0.00  0.00    +0.000 C 
ATOM     12  C   UNL     1      -0.038  11.228  20.410  0.00  0.00    +0.000 C 
ATOM     13  C   UNL     1      -1.163  11.243  19.345  0.00  0.00    +0.000 C 
ATOM     14  C   UNL     1       0.699  12.570  20.254  0.00  0.00    +0.000 C 
ENDROOT
BRANCH   1  17
ATOM     15  C   UNL     1       2.079   3.347  19.912  0.00  0.00    +0.000 C 
ATOM     16  C   UNL     1       1.767   4.820  19.966  0.00  0.00    +0.000 C 
ATOM     17  C   UNL     1       2.530   5.837  19.498  0.00  0.00    +0.000 C 
BRANCH  17  18
ATOM     18  C   UNL     1       3.793   5.450  18.762  0.00  0.00    +0.000 A 
ATOM     19  C   UNL     1       5.045   5.389  19.388  0.00  0.00    +0.000 A 
ATOM     20  C   UNL     1       6.215   5.092  18.683  0.00  0.00    +0.000 A 
ATOM     21  C   UNL     1       6.163   4.870  17.307  0.00  0.00    +0.000 A 
ATOM     22  C   UNL     1       4.920   4.899  16.650  0.00  0.00    +0.000 A 
ATOM     23  C   UNL     1       3.753   5.196  17.385  0.00  0.00    +0.000 A 
BRANCH  21  24
ATOM     24  C   UNL     1       7.420   4.558  16.573  0.00  0.00    +0.000 C 
ATOM     25  O   UNL     1       7.563   4.765  15.372  0.00  0.00    +0.000 OA
BRANCH  24  26
ATOM     26  O   UNL     1       8.374   3.972  17.336  0.00  0.00    +0.000 OA
ATOM     27  H   UNL     1       8.357   3.000  17.342  0.00  0.00    +0.000 HD
ENDBRANCH  24  26
ENDBRANCH  21  24
ENDBRANCH  17  18
ENDBRANCH   1  17
TORSDOF 4
ENDMDL
MODEL 3
REMARK VINA RESULT:      -8.0      4.141      7.925
REMARK  Name = 
REMARK  9 active torsions:
REMARK  status: ('A' for Active; 'I' for Inactive)
REMARK    1  A    between atoms: C_1  and  C_2
REMARK    2  A    between atoms: C_3  and  C_4
REMARK    3  A    between atoms: C_3  and  C_13
REMARK    4  A    between atoms: C_7  and  C_8
REMARK    5  A    between atoms: C_8  and  O_10
REMARK    6  A    between atoms: C_19  and  C_20
REMARK    7  A    between atoms: C_19  and  C_21
REMARK    8  A    between atoms: C_24  and  C_25
REMARK    9  A    between atoms: C_24  and  C_26
REMARK                            x       y       z     vdW  Elec       q    Type
REMARK                         _______ _______ _______ _____ _____    ______ ____
ROOT
ATOM      1  C   UNL     1       2.034   8.301  17.991  0.00  0.00    +0.000 A 
ATOM      2  C   UNL     1       3.327   8.303  17.429  0.00  0.00    +0.000 A 
ATOM      3  C   UNL     1       4.192   7.139  17.408  0.00  0.00    +0.000 A 
ATOM      4  C   UNL     1       3.817   5.897  17.969  0.00  0.00    +0.000 A 
ATOM      5  C   UNL     1       2.504   5.918  18.468  0.00  0.00    +0.000 A 
ATOM      6  C   UNL     1       1.643   7.071  18.479  0.00  0.00    +0.000 A 
ATOM      7  C   UNL     1       1.940   4.618  19.092  0.00  0.00    +0.000 C 
ATOM      8  C   UNL     1       1.468   4.344  17.593  0.00  0.00    +0.000 C 
ATOM      9  C   UNL     1       2.396   5.312  20.482  0.00  0.00    +0.000 C 
ATOM     10  C   UNL     1       2.590   3.285  19.309  0.00  0.00    +0.000 C 
ATOM     11  C   UNL     1       4.042   3.333  18.923  0.00  0.00    +0.000 C 
ATOM     12  C   UNL     1       4.689   4.624  18.195  0.00  0.00    +0.000 C 
ATOM     13  C   UNL     1       5.880   5.109  19.060  0.00  0.00    +0.000 C 
ATOM     14  C   UNL     1       5.318   4.005  16.934  0.00  0.00    +0.000 C 
ENDROOT
BRANCH   1  17
ATOM     15  C   UNL     1      -1.301  10.352  17.776  0.00  0.00    +0.000 C 
ATOM     16  C   UNL     1      -0.198   9.328  17.705  0.00  0.00    +0.000 C 
ATOM     17  C   UNL     1       1.077   9.465  18.142  0.00  0.00    +0.000 C 
BRANCH  17  18
ATOM     18  C   UNL     1       1.409  10.754  18.860  0.00  0.00    +0.000 A 
ATOM     19  C   UNL     1       0.975  11.028  20.163  0.00  0.00    +0.000 A 
ATOM     20  C   UNL     1       1.234  12.249  20.794  0.00  0.00    +0.000 A 
ATOM     21  C   UNL     1       1.923  13.252  20.113  0.00  0.00    +0.000 A 
ATOM     22  C   UNL     1       2.396  13.003  18.811  0.00  0.00    +0.000 A 
ATOM     23  C   UNL     1       2.126  11.761  18.200  0.00  0.00    +0.000 A 
BRANCH  21  24
ATOM     24  C   UNL     1       2.187  14.547  20.798  0.00  0.00    +0.000 C 
ATOM     25  O   UNL     1       2.488  15.573  20.198  0.00  0.00    +0.000 OA
BRANCH  24  26
ATOM     26  O   UNL     1       2.121  14.478  22.150  0.00  0.00    +0.000 OA
ATOM     27  H   UNL     1       2.000  15.332  22.600  0.00  0.00    +0.000 HD
ENDBRANCH  24  26
ENDBRANCH  21  24
ENDBRANCH  17  18
ENDBRANCH   1  17
TORSDOF 4
ENDMDL
MODEL 4
REMARK VINA RESULT:      -8.0      1.763      2.251
REMARK  Name = 
REMARK  9 active torsions:
REMARK  status: ('A' for Active; 'I' for Inactive)
REMARK    1  A    between atoms: C_1  and  C_2
REMARK    2  A    between atoms: C_3  and  C_4
REMARK    3  A    between atoms: C_3  and  C_13
REMARK    4  A    between atoms: C_7  and  C_8
REMARK    5  A    between atoms: C_8  and  O_10
REMARK    6  A    between atoms: C_19  and  C_20
REMARK    7  A    between atoms: C_19  and  C_21
REMARK    8  A    between atoms: C_24  and  C_25
REMARK    9  A    between atoms: C_24  and  C_26
REMARK                            x       y       z     vdW  Elec       q    Type
REMARK                         _______ _______ _______ _____ _____    ______ ____
ROOT
ATOM      1  C   UNL     1       1.898   7.736  18.942  0.00  0.00    +0.000 A 
ATOM      2  C   UNL     1       1.813   8.930  18.196  0.00  0.00    +0.000 A 
ATOM      3  C   UNL     1       1.268  10.165  18.726  0.00  0.00    +0.000 A 
ATOM      4  C   UNL     1       0.755  10.275  20.039  0.00  0.00    +0.000 A 
ATOM      5  C   UNL     1       0.908   9.084  20.766  0.00  0.00    +0.000 A 
ATOM      6  C   UNL     1       1.459   7.861  20.243  0.00  0.00    +0.000 A 
ATOM      7  C   UNL     1       0.416   9.057  22.234  0.00  0.00    +0.000 C 
ATOM      8  C   UNL     1       1.907   9.541  22.530  0.00  0.00    +0.000 C 
ATOM      9  C   UNL     1      -0.908   8.394  21.578  0.00  0.00    +0.000 C 
ATOM     10  C   UNL     1      -0.268  10.114  23.047  0.00  0.00    +0.000 C 
ATOM     11  C   UNL     1      -0.573  11.319  22.202  0.00  0.00    +0.000 C 
ATOM     12  C   UNL     1      -0.027  11.459  20.686  0.00  0.00    +0.000 C 
ATOM     13  C   UNL     1      -1.251  11.677  19.760  0.00  0.00    +0.000 C 
ATOM     14  C   UNL     1       0.708  12.810  20.728  0.00  0.00    +0.000 C 
ENDROOT
BRANCH   1  17
ATOM     15  C   UNL     1       1.740   4.141  17.382  0.00  0.00    +0.000 C 
ATOM     16  C   UNL     1       1.474   5.523  17.919  0.00  0.00    +0.000 C 
ATOM     17  C   UNL     1       2.370   6.374  18.475  0.00  0.00    +0.000 C 
BRANCH  17  18
ATOM     18  C   UNL     1       3.814   5.925  18.477  0.00  0.00    +0.000 A 
ATOM     19  C   UNL     1       4.332   5.048  19.438  0.00  0.00    +0.000 A 
ATOM     20  C   UNL     1       5.684   4.690  19.468  0.00  0.00    +0.000 A 
ATOM     21  C   UNL     1       6.569   5.232  18.537  0.00  0.00    +0.000 A 
ATOM     22  C   UNL     1       6.079   6.098  17.542  0.00  0.00    +0.000 A 
ATOM     23  C   UNL     1       4.710   6.439  17.531  0.00  0.00    +0.000 A 
BRANCH  21  24
ATOM     24  C   UNL     1       8.005   4.843  18.586  0.00  0.00    +0.000 C 
ATOM     25  O   UNL     1       8.532   4.122  17.745  0.00  0.00    +0.000 OA
BRANCH  24  26
ATOM     26  O   UNL     1       8.665   5.309  19.674  0.00  0.00    +0.000 OA
ATOM     27  H   UNL     1       9.567   5.629  19.502  0.00  0.00    +0.000 HD
ENDBRANCH  24  26
ENDBRANCH  21  24
ENDBRANCH  17  18
ENDBRANCH   1  17
TORSDOF 4
ENDMDL
MODEL 5
REMARK VINA RESULT:      -7.9      4.258      8.205
REMARK  Name = 
REMARK  9 active torsions:
REMARK  status: ('A' for Active; 'I' for Inactive)
REMARK    1  A    between atoms: C_1  and  C_2
REMARK    2  A    between atoms: C_3  and  C_4
REMARK    3  A    between atoms: C_3  and  C_13
REMARK    4  A    between atoms: C_7  and  C_8
REMARK    5  A    between atoms: C_8  and  O_10
REMARK    6  A    between atoms: C_19  and  C_20
REMARK    7  A    between atoms: C_19  and  C_21
REMARK    8  A    between atoms: C_24  and  C_25
REMARK    9  A    between atoms: C_24  and  C_26
REMARK                            x       y       z     vdW  Elec       q    Type
REMARK                         _______ _______ _______ _____ _____    ______ ____
ROOT
ATOM      1  C   UNL     1       1.726   7.886  19.247  0.00  0.00    +0.000 A 
ATOM      2  C   UNL     1       1.551   7.371  20.548  0.00  0.00    +0.000 A 
ATOM      3  C   UNL     1       1.782   5.981  20.895  0.00  0.00    +0.000 A 
ATOM      4  C   UNL     1       2.189   5.014  19.947  0.00  0.00    +0.000 A 
ATOM      5  C   UNL     1       2.407   5.576  18.679  0.00  0.00    +0.000 A 
ATOM      6  C   UNL     1       2.188   6.957  18.339  0.00  0.00    +0.000 A 
ATOM      7  C   UNL     1       2.884   4.643  17.540  0.00  0.00    +0.000 C 
ATOM      8  C   UNL     1       4.328   5.058  18.077  0.00  0.00    +0.000 C 
ATOM      9  C   UNL     1       1.309   4.606  17.167  0.00  0.00    +0.000 C 
ATOM     10  C   UNL     1       3.127   3.163  17.536  0.00  0.00    +0.000 C 
ATOM     11  C   UNL     1       2.729   2.556  18.852  0.00  0.00    +0.000 C 
ATOM     12  C   UNL     1       2.295   3.467  20.115  0.00  0.00    +0.000 C 
ATOM     13  C   UNL     1       0.879   3.020  20.558  0.00  0.00    +0.000 C 
ATOM     14  C   UNL     1       3.249   2.971  21.216  0.00  0.00    +0.000 C 
ENDROOT
BRANCH   1  17
ATOM     15  C   UNL     1       2.395  11.442  17.734  0.00  0.00    +0.000 C 
ATOM     16  C   UNL     1       2.467  10.041  18.283  0.00  0.00    +0.000 C 
ATOM     17  C   UNL     1       1.441   9.289  18.751  0.00  0.00    +0.000 C 
BRANCH  17  18
ATOM     18  C   UNL     1       0.057   9.886  18.629  0.00  0.00    +0.000 A 
ATOM     19  C   UNL     1      -0.782   9.633  17.537  0.00  0.00    +0.000 A 
ATOM     20  C   UNL     1      -2.034  10.241  17.403  0.00  0.00    +0.000 A 
ATOM     21  C   UNL     1      -2.472  11.153  18.364  0.00  0.00    +0.000 A 
ATOM     22  C   UNL     1      -1.665  11.412  19.487  0.00  0.00    +0.000 A 
ATOM     23  C   UNL     1      -0.409  10.782  19.600  0.00  0.00    +0.000 A 
BRANCH  21  24
ATOM     24  C   UNL     1      -3.807  11.793  18.204  0.00  0.00    +0.000 C 
ATOM     25  O   UNL     1      -4.542  12.053  19.150  0.00  0.00    +0.000 OA
BRANCH  24  26
ATOM     26  O   UNL     1      -4.162  12.011  16.915  0.00  0.00    +0.000 OA
ATOM     27  H   UNL     1      -3.435  12.283  16.328  0.00  0.00    +0.000 HD
ENDBRANCH  24  26
ENDBRANCH  21  24
ENDBRANCH  17  18
ENDBRANCH   1  17
TORSDOF 4
ENDMDL
MODEL 6
REMARK VINA RESULT:      -7.8      1.634      1.990
REMARK  Name = 
REMARK  9 active torsions:
REMARK  status: ('A' for Active; 'I' for Inactive)
REMARK    1  A    between atoms: C_1  and  C_2
REMARK    2  A    between atoms: C_3  and  C_4
REMARK    3  A    between atoms: C_3  and  C_13
REMARK    4  A    between atoms: C_7  and  C_8
REMARK    5  A    between atoms: C_8  and  O_10
REMARK    6  A    between atoms: C_19  and  C_20
REMARK    7  A    between atoms: C_19  and  C_21
REMARK    8  A    between atoms: C_24  and  C_25
REMARK    9  A    between atoms: C_24  and  C_26
REMARK                            x       y       z     vdW  Elec       q    Type
REMARK                         _______ _______ _______ _____ _____    ______ ____
ROOT
ATOM      1  C   UNL     1       1.845   7.789  18.980  0.00  0.00    +0.000 A 
ATOM      2  C   UNL     1       1.708   8.983  18.243  0.00  0.00    +0.000 A 
ATOM      3  C   UNL     1       1.148  10.203  18.794  0.00  0.00    +0.000 A 
ATOM      4  C   UNL     1       0.673  10.294  20.122  0.00  0.00    +0.000 A 
ATOM      5  C   UNL     1       0.878   9.105  20.840  0.00  0.00    +0.000 A 
ATOM      6  C   UNL     1       1.443   7.898  20.295  0.00  0.00    +0.000 A 
ATOM      7  C   UNL     1       0.433   9.061  22.322  0.00  0.00    +0.000 C 
ATOM      8  C   UNL     1       1.919   9.582  22.574  0.00  0.00    +0.000 C 
ATOM      9  C   UNL     1      -0.895   8.368  21.704  0.00  0.00    +0.000 C 
ATOM     10  C   UNL     1      -0.253  10.098  23.160  0.00  0.00    +0.000 C 
ATOM     11  C   UNL     1      -0.613  11.299  22.329  0.00  0.00    +0.000 C 
ATOM     12  C   UNL     1      -0.118  11.457  20.798  0.00  0.00    +0.000 C 
ATOM     13  C   UNL     1      -1.374  11.647  19.911  0.00  0.00    +0.000 C 
ATOM     14  C   UNL     1       0.584  12.826  20.823  0.00  0.00    +0.000 C 
ENDROOT
BRANCH   1  17
ATOM     15  C   UNL     1       1.727   4.192  17.422  0.00  0.00    +0.000 C 
ATOM     16  C   UNL     1       1.443   5.565  17.972  0.00  0.00    +0.000 C 
ATOM     17  C   UNL     1       2.336   6.441  18.494  0.00  0.00    +0.000 C 
BRANCH  17  18
ATOM     18  C   UNL     1       3.792   6.033  18.439  0.00  0.00    +0.000 A 
ATOM     19  C   UNL     1       4.653   6.438  17.412  0.00  0.00    +0.000 A 
ATOM     20  C   UNL     1       5.979   6.003  17.337  0.00  0.00    +0.000 A 
ATOM     21  C   UNL     1       6.476   5.115  18.292  0.00  0.00    +0.000 A 
ATOM     22  C   UNL     1       5.646   4.706  19.351  0.00  0.00    +0.000 A 
ATOM     23  C   UNL     1       4.313   5.164  19.406  0.00  0.00    +0.000 A 
BRANCH  21  24
ATOM     24  C   UNL     1       7.890   4.659  18.194  0.00  0.00    +0.000 C 
ATOM     25  O   UNL     1       8.701   4.795  19.104  0.00  0.00    +0.000 OA
BRANCH  24  26
ATOM     26  O   UNL     1       8.218   4.132  16.990  0.00  0.00    +0.000 OA
ATOM     27  H   UNL     1       7.465   3.824  16.457  0.00  0.00    +0.000 HD
ENDBRANCH  24  26
ENDBRANCH  21  24
ENDBRANCH  17  18
ENDBRANCH   1  17
TORSDOF 4
ENDMDL
MODEL 7
REMARK VINA RESULT:      -7.8      2.365      3.318
REMARK  Name = 
REMARK  9 active torsions:
REMARK  status: ('A' for Active; 'I' for Inactive)
REMARK    1  A    between atoms: C_1  and  C_2
REMARK    2  A    between atoms: C_3  and  C_4
REMARK    3  A    between atoms: C_3  and  C_13
REMARK    4  A    between atoms: C_7  and  C_8
REMARK    5  A    between atoms: C_8  and  O_10
REMARK    6  A    between atoms: C_19  and  C_20
REMARK    7  A    between atoms: C_19  and  C_21
REMARK    8  A    between atoms: C_24  and  C_25
REMARK    9  A    between atoms: C_24  and  C_26
REMARK                            x       y       z     vdW  Elec       q    Type
REMARK                         _______ _______ _______ _____ _____    ______ ____
ROOT
ATOM      1  C   UNL     1       2.270   8.581  18.643  0.00  0.00    +0.000 A 
ATOM      2  C   UNL     1       1.935   9.866  18.167  0.00  0.00    +0.000 A 
ATOM      3  C   UNL     1       1.136  10.813  18.921  0.00  0.00    +0.000 A 
ATOM      4  C   UNL     1       0.606  10.521  20.199  0.00  0.00    +0.000 A 
ATOM      5  C   UNL     1       1.006   9.258  20.661  0.00  0.00    +0.000 A 
ATOM      6  C   UNL     1       1.809   8.322  19.916  0.00  0.00    +0.000 A 
ATOM      7  C   UNL     1       0.526   8.806  22.061  0.00  0.00    +0.000 C 
ATOM      8  C   UNL     1       1.877   9.513  22.530  0.00  0.00    +0.000 C 
ATOM      9  C   UNL     1      -0.624   8.045  21.212  0.00  0.00    +0.000 C 
ATOM     10  C   UNL     1      -0.373   9.493  23.046  0.00  0.00    +0.000 C 
ATOM     11  C   UNL     1      -0.924  10.765  22.464  0.00  0.00    +0.000 C 
ATOM     12  C   UNL     1      -0.414  11.345  21.044  0.00  0.00    +0.000 C 
ATOM     13  C   UNL     1      -1.652  11.503  20.125  0.00  0.00    +0.000 C 
ATOM     14  C   UNL     1       0.015  12.776  21.412  0.00  0.00    +0.000 C 
ENDROOT
BRANCH   1  17
ATOM     15  C   UNL     1       4.829   6.896  16.195  0.00  0.00    +0.000 C 
ATOM     16  C   UNL     1       3.964   7.826  17.005  0.00  0.00    +0.000 C 
ATOM     17  C   UNL     1       3.024   7.484  17.920  0.00  0.00    +0.000 C 
BRANCH  17  18
ATOM     18  C   UNL     1       2.889   6.010  18.229  0.00  0.00    +0.000 A 
ATOM     19  C   UNL     1       3.812   5.316  19.022  0.00  0.00    +0.000 A 
ATOM     20  C   UNL     1       3.712   3.940  19.249  0.00  0.00    +0.000 A 
ATOM     21  C   UNL     1       2.683   3.208  18.655  0.00  0.00    +0.000 A 
ATOM     22  C   UNL     1       1.725   3.877  17.872  0.00  0.00    +0.000 A 
ATOM     23  C   UNL     1       1.845   5.267  17.664  0.00  0.00    +0.000 A 
BRANCH  21  24
ATOM     24  C   UNL     1       2.594   1.743  18.904  0.00  0.00    +0.000 C 
ATOM     25  O   UNL     1       3.563   0.994  18.844  0.00  0.00    +0.000 OA
BRANCH  24  26
ATOM     26  O   UNL     1       1.337   1.301  19.148  0.00  0.00    +0.000 OA
ATOM     27  H   UNL     1       1.054   1.355  20.077  0.00  0.00    +0.000 HD
ENDBRANCH  24  26
ENDBRANCH  21  24
ENDBRANCH  17  18
ENDBRANCH   1  17
TORSDOF 4
ENDMDL
MODEL 8
REMARK VINA RESULT:      -7.7      1.038      1.330
REMARK  Name = 
REMARK  9 active torsions:
REMARK  status: ('A' for Active; 'I' for Inactive)
REMARK    1  A    between atoms: C_1  and  C_2
REMARK    2  A    between atoms: C_3  and  C_4
REMARK    3  A    between atoms: C_3  and  C_13
REMARK    4  A    between atoms: C_7  and  C_8
REMARK    5  A    between atoms: C_8  and  O_10
REMARK    6  A    between atoms: C_19  and  C_20
REMARK    7  A    between atoms: C_19  and  C_21
REMARK    8  A    between atoms: C_24  and  C_25
REMARK    9  A    between atoms: C_24  and  C_26
REMARK                            x       y       z     vdW  Elec       q    Type
REMARK                         _______ _______ _______ _____ _____    ______ ____
ROOT
ATOM      1  C   UNL     1       2.001   7.418  19.526  0.00  0.00    +0.000 A 
ATOM      2  C   UNL     1       1.790   8.262  18.416  0.00  0.00    +0.000 A 
ATOM      3  C   UNL     1       1.067   9.517  18.493  0.00  0.00    +0.000 A 
ATOM      4  C   UNL     1       0.492   9.997  19.692  0.00  0.00    +0.000 A 
ATOM      5  C   UNL     1       0.771   9.159  20.784  0.00  0.00    +0.000 A 
ATOM      6  C   UNL     1       1.498   7.918  20.708  0.00  0.00    +0.000 A 
ATOM      7  C   UNL     1       0.230   9.568  22.175  0.00  0.00    +0.000 C 
ATOM      8  C   UNL     1       1.631  10.324  22.274  0.00  0.00    +0.000 C 
ATOM      9  C   UNL     1      -0.970   8.547  21.798  0.00  0.00    +0.000 C 
ATOM     10  C   UNL     1      -0.619  10.736  22.580  0.00  0.00    +0.000 C 
ATOM     11  C   UNL     1      -1.045  11.526  21.374  0.00  0.00    +0.000 C 
ATOM     12  C   UNL     1      -0.463  11.212  19.899  0.00  0.00    +0.000 C 
ATOM     13  C   UNL     1      -1.667  10.931  18.965  0.00  0.00    +0.000 C 
ATOM     14  C   UNL     1       0.086  12.583  19.468  0.00  0.00    +0.000 C 
ENDROOT
BRANCH   1  17
ATOM     15  C   UNL     1       2.596   3.650  20.435  0.00  0.00    +0.000 C 
ATOM     16  C   UNL     1       2.106   5.066  20.289  0.00  0.00    +0.000 C 
ATOM     17  C   UNL     1       2.666   6.057  19.552  0.00  0.00    +0.000 C 
BRANCH  17  18
ATOM     18  C   UNL     1       3.865   5.677  18.713  0.00  0.00    +0.000 A 
ATOM     19  C   UNL     1       3.768   5.366  17.351  0.00  0.00    +0.000 A 
ATOM     20  C   UNL     1       4.873   4.955  16.600  0.00  0.00    +0.000 A 
ATOM     21  C   UNL     1       6.119   4.817  17.212  0.00  0.00    +0.000 A 
ATOM     22  C   UNL     1       6.259   5.144  18.573  0.00  0.00    +0.000 A 
ATOM     23  C   UNL     1       5.128   5.562  19.307  0.00  0.00    +0.000 A 
BRANCH  21  24
ATOM     24  C   UNL     1       7.284   4.374  16.398  0.00  0.00    +0.000 C 
ATOM     25  O   UNL     1       8.373   4.091  16.886  0.00  0.00    +0.000 OA
BRANCH  24  26
ATOM     26  O   UNL     1       7.052   4.367  15.063  0.00  0.00    +0.000 OA
ATOM     27  H   UNL     1       6.828   3.498  14.689  0.00  0.00    +0.000 HD
ENDBRANCH  24  26
ENDBRANCH  21  24
ENDBRANCH  17  18
ENDBRANCH   1  17
TORSDOF 4
ENDMDL
MODEL 9
REMARK VINA RESULT:      -7.7      3.979      8.089
REMARK  Name = 
REMARK  9 active torsions:
REMARK  status: ('A' for Active; 'I' for Inactive)
REMARK    1  A    between atoms: C_1  and  C_2
REMARK    2  A    between atoms: C_3  and  C_4
REMARK    3  A    between atoms: C_3  and  C_13
REMARK    4  A    between atoms: C_7  and  C_8
REMARK    5  A    between atoms: C_8  and  O_10
REMARK    6  A    between atoms: C_19  and  C_20
REMARK    7  A    between atoms: C_19  and  C_21
REMARK    8  A    between atoms: C_24  and  C_25
REMARK    9  A    between atoms: C_24  and  C_26
REMARK                            x       y       z     vdW  Elec       q    Type
REMARK                         _______ _______ _______ _____ _____    ______ ____
ROOT
ATOM      1  C   UNL     1       2.024   8.076  19.051  0.00  0.00    +0.000 A 
ATOM      2  C   UNL     1       2.816   8.644  18.031  0.00  0.00    +0.000 A 
ATOM      3  C   UNL     1       3.757   7.882  17.233  0.00  0.00    +0.000 A 
ATOM      4  C   UNL     1       3.976   6.498  17.421  0.00  0.00    +0.000 A 
ATOM      5  C   UNL     1       3.131   5.958  18.404  0.00  0.00    +0.000 A 
ATOM      6  C   UNL     1       2.189   6.714  19.189  0.00  0.00    +0.000 A 
ATOM      7  C   UNL     1       3.234   4.444  18.705  0.00  0.00    +0.000 C 
ATOM      8  C   UNL     1       2.126   4.346  17.562  0.00  0.00    +0.000 C 
ATOM      9  C   UNL     1       4.191   4.942  19.912  0.00  0.00    +0.000 C 
ATOM     10  C   UNL     1       4.152   3.403  18.137  0.00  0.00    +0.000 C 
ATOM     11  C   UNL     1       5.158   4.030  17.212  0.00  0.00    +0.000 C 
ATOM     12  C   UNL     1       5.071   5.587  16.786  0.00  0.00    +0.000 C 
ATOM     13  C   UNL     1       6.414   6.259  17.169  0.00  0.00    +0.000 C 
ATOM     14  C   UNL     1       5.072   5.504  15.250  0.00  0.00    +0.000 C 
ENDROOT
BRANCH   1  17
ATOM     15  C   UNL     1      -0.236   8.671  22.200  0.00  0.00    +0.000 C 
ATOM     16  C   UNL     1       0.684   8.145  21.130  0.00  0.00    +0.000 C 
ATOM     17  C   UNL     1       1.072   8.779  19.997  0.00  0.00    +0.000 C 
BRANCH  17  18
ATOM     18  C   UNL     1       0.603  10.207  19.829  0.00  0.00    +0.000 A 
ATOM     19  C   UNL     1      -0.375  10.577  18.897  0.00  0.00    +0.000 A 
ATOM     20  C   UNL     1      -0.756  11.909  18.706  0.00  0.00    +0.000 A 
ATOM     21  C   UNL     1      -0.135  12.922  19.438  0.00  0.00    +0.000 A 
ATOM     22  C   UNL     1       0.834  12.585  20.399  0.00  0.00    +0.000 A 
ATOM     23  C   UNL     1       1.196  11.233  20.576  0.00  0.00    +0.000 A 
BRANCH  21  24
ATOM     24  C   UNL     1      -0.551  14.336  19.219  0.00  0.00    +0.000 C 
ATOM     25  O   UNL     1       0.152  15.158  18.641  0.00  0.00    +0.000 OA
BRANCH  24  26
ATOM     26  O   UNL     1      -1.750  14.648  19.766  0.00  0.00    +0.000 OA
ATOM     27  H   UNL     1      -2.183  13.924  20.250  0.00  0.00    +0.000 HD
ENDBRANCH  24  26
ENDBRANCH  21  24
ENDBRANCH  17  18
ENDBRANCH   1  17
TORSDOF 4
ENDMDL
