MODEL 1
REMARK VINA RESULT:      -7.6      0.000      0.000
REMARK  Name = 
REMARK  6 active torsions:
REMARK  status: ('A' for Active; 'I' for Inactive)
REMARK    1  A    between atoms: C_1  and  C_2
REMARK    2  A    between atoms: C_2  and  C_4
REMARK    3  A    between atoms: C_7  and  O_8
REMARK    4  A    between atoms: O_8  and  C_9
REMARK    5  A    between atoms: C_9  and  C_10
REMARK    6  A    between atoms: C_14  and  C_15
REMARK                            x       y       z     vdW  Elec       q    Type
REMARK                         _______ _______ _______ _____ _____    ______ ____
ROOT
ATOM      1  C   UNL     1       6.361   4.569  16.228  0.00  0.00    +0.000 C 
ENDROOT
BRANCH   1   2
ATOM      2  C   UNL     1       6.568   4.537  14.736  0.00  0.00    +0.000 A 
ATOM      3  C   UNL     1       7.686   5.146  14.156  0.00  0.00    +0.000 A 
ATOM      4  C   UNL     1       7.873   5.101  12.775  0.00  0.00    +0.000 A 
ATOM      5  C   UNL     1       6.940   4.456  11.962  0.00  0.00    +0.000 A 
ATOM      6  C   UNL     1       5.805   3.853  12.520  0.00  0.00    +0.000 A 
ATOM      7  C   UNL     1       5.628   3.902  13.911  0.00  0.00    +0.000 A 
BRANCH   6   8
ATOM      8  C   UNL     1       4.781   3.156  11.659  0.00  0.00    +0.000 C 
ATOM      9  F   UNL     1       5.184   1.936  11.206  0.00  0.00    +0.000 F 
ATOM     10  F   UNL     1       3.609   2.938  12.319  0.00  0.00    +0.000 F 
ATOM     11  F   UNL     1       4.454   3.876  10.549  0.00  0.00    +0.000 F 
ENDBRANCH   6   8
ENDBRANCH   1   2
BRANCH   1  12
ATOM     12  O   UNL     1       5.287   5.464  16.524  0.00  0.00    +0.000 OA
BRANCH  12  16
ATOM     13  C   UNL     1       2.161   3.509  18.462  0.00  0.00    +0.000 A 
ATOM     14  C   UNL     1       2.112   4.901  18.336  0.00  0.00    +0.000 A 
ATOM     15  C   UNL     1       3.120   5.584  17.656  0.00  0.00    +0.000 A 
ATOM     16  C   UNL     1       4.207   4.884  17.132  0.00  0.00    +0.000 A 
ATOM     17  C   UNL     1       4.240   3.491  17.223  0.00  0.00    +0.000 A 
ATOM     18  C   UNL     1       3.220   2.799  17.888  0.00  0.00    +0.000 A 
BRANCH  13  20
ATOM     19  C   UNL     1       1.116   2.918  20.735  0.00  0.00    +0.000 C 
ATOM     20  C   UNL     1       1.078   2.846  19.235  0.00  0.00    +0.000 C 
ATOM     21  O   UNL     1       0.199   2.228  18.638  0.00  0.00    +0.000 OA
ENDBRANCH  13  20
ENDBRANCH  12  16
ENDBRANCH   1  12
TORSDOF 5
ENDMDL
MODEL 2
REMARK VINA RESULT:      -7.6      5.346      8.266
REMARK  Name = 
REMARK  6 active torsions:
REMARK  status: ('A' for Active; 'I' for Inactive)
REMARK    1  A    between atoms: C_1  and  C_2
REMARK    2  A    between atoms: C_2  and  C_4
REMARK    3  A    between atoms: C_7  and  O_8
REMARK    4  A    between atoms: O_8  and  C_9
REMARK    5  A    between atoms: C_9  and  C_10
REMARK    6  A    between atoms: C_14  and  C_15
REMARK                            x       y       z     vdW  Elec       q    Type
REMARK                         _______ _______ _______ _____ _____    ______ ____
ROOT
ATOM      1  C   UNL     1       3.083   5.334  19.500  0.00  0.00    +0.000 C 
ENDROOT
BRANCH   1   2
ATOM      2  C   UNL     1       2.487   6.703  19.293  0.00  0.00    +0.000 A 
ATOM      3  C   UNL     1       2.497   7.304  18.031  0.00  0.00    +0.000 A 
ATOM      4  C   UNL     1       1.933   8.567  17.850  0.00  0.00    +0.000 A 
ATOM      5  C   UNL     1       1.363   9.242  18.931  0.00  0.00    +0.000 A 
ATOM      6  C   UNL     1       1.356   8.664  20.208  0.00  0.00    +0.000 A 
ATOM      7  C   UNL     1       1.924   7.393  20.378  0.00  0.00    +0.000 A 
BRANCH   6   8
ATOM      8  C   UNL     1       0.751   9.379  21.391  0.00  0.00    +0.000 C 
ATOM      9  F   UNL     1       1.099  10.693  21.474  0.00  0.00    +0.000 F 
ATOM     10  F   UNL     1      -0.612   9.356  21.370  0.00  0.00    +0.000 F 
ATOM     11  F   UNL     1       1.114   8.821  22.580  0.00  0.00    +0.000 F 
ENDBRANCH   6   8
ENDBRANCH   1   2
BRANCH   1  12
ATOM     12  O   UNL     1       4.505   5.456  19.562  0.00  0.00    +0.000 OA
BRANCH  12  16
ATOM     13  C   UNL     1       6.233   4.901  15.813  0.00  0.00    +0.000 A 
ATOM     14  C   UNL     1       6.738   5.902  16.648  0.00  0.00    +0.000 A 
ATOM     15  C   UNL     1       6.213   6.087  17.926  0.00  0.00    +0.000 A 
ATOM     16  C   UNL     1       5.147   5.300  18.364  0.00  0.00    +0.000 A 
ATOM     17  C   UNL     1       4.665   4.275  17.548  0.00  0.00    +0.000 A 
ATOM     18  C   UNL     1       5.204   4.071  16.272  0.00  0.00    +0.000 A 
BRANCH  13  20
ATOM     19  C   UNL     1       6.168   3.830  13.478  0.00  0.00    +0.000 C 
ATOM     20  C   UNL     1       6.808   4.782  14.448  0.00  0.00    +0.000 C 
ATOM     21  O   UNL     1       7.806   5.434  14.152  0.00  0.00    +0.000 OA
ENDBRANCH  13  20
ENDBRANCH  12  16
ENDBRANCH   1  12
TORSDOF 5
ENDMDL
MODEL 3
REMARK VINA RESULT:      -7.5      4.397      7.622
REMARK  Name = 
REMARK  6 active torsions:
REMARK  status: ('A' for Active; 'I' for Inactive)
REMARK    1  A    between atoms: C_1  and  C_2
REMARK    2  A    between atoms: C_2  and  C_4
REMARK    3  A    between atoms: C_7  and  O_8
REMARK    4  A    between atoms: O_8  and  C_9
REMARK    5  A    between atoms: C_9  and  C_10
REMARK    6  A    between atoms: C_14  and  C_15
REMARK                            x       y       z     vdW  Elec       q    Type
REMARK                         _______ _______ _______ _____ _____    ______ ____
ROOT
ATOM      1  C   UNL     1       3.635   6.438  18.339  0.00  0.00    +0.000 C 
ENDROOT
BRANCH   1   2
ATOM      2  C   UNL     1       2.761   5.257  18.670  0.00  0.00    +0.000 A 
ATOM      3  C   UNL     1       1.896   4.715  17.713  0.00  0.00    +0.000 A 
ATOM      4  C   UNL     1       1.100   3.615  18.029  0.00  0.00    +0.000 A 
ATOM      5  C   UNL     1       1.153   3.053  19.305  0.00  0.00    +0.000 A 
ATOM      6  C   UNL     1       2.000   3.589  20.285  0.00  0.00    +0.000 A 
ATOM      7  C   UNL     1       2.800   4.695  19.956  0.00  0.00    +0.000 A 
BRANCH   6   8
ATOM      8  C   UNL     1       2.069   3.002  21.673  0.00  0.00    +0.000 C 
ATOM      9  F   UNL     1       0.917   2.392  22.067  0.00  0.00    +0.000 F 
ATOM     10  F   UNL     1       3.048   2.061  21.790  0.00  0.00    +0.000 F 
ATOM     11  F   UNL     1       2.340   3.939  22.624  0.00  0.00    +0.000 F 
ENDBRANCH   6   8
ENDBRANCH   1   2
BRANCH   1  12
ATOM     12  O   UNL     1       4.984   5.987  18.199  0.00  0.00    +0.000 OA
BRANCH  12  16
ATOM     13  C   UNL     1       5.972   4.541  14.420  0.00  0.00    +0.000 A 
ATOM     14  C   UNL     1       6.063   3.680  15.518  0.00  0.00    +0.000 A 
ATOM     15  C   UNL     1       5.699   4.118  16.790  0.00  0.00    +0.000 A 
ATOM     16  C   UNL     1       5.281   5.435  16.983  0.00  0.00    +0.000 A 
ATOM     17  C   UNL     1       5.152   6.286  15.883  0.00  0.00    +0.000 A 
ATOM     18  C   UNL     1       5.497   5.845  14.600  0.00  0.00    +0.000 A 
BRANCH  13  20
ATOM     19  C   UNL     1       7.528   4.740  12.384  0.00  0.00    +0.000 C 
ATOM     20  C   UNL     1       6.414   4.027  13.097  0.00  0.00    +0.000 C 
ATOM     21  O   UNL     1       5.844   3.057  12.602  0.00  0.00    +0.000 OA
ENDBRANCH  13  20
ENDBRANCH  12  16
ENDBRANCH   1  12
TORSDOF 5
ENDMDL
MODEL 4
REMARK VINA RESULT:      -7.4      4.384      7.578
REMARK  Name = 
REMARK  6 active torsions:
REMARK  status: ('A' for Active; 'I' for Inactive)
REMARK    1  A    between atoms: C_1  and  C_2
REMARK    2  A    between atoms: C_2  and  C_4
REMARK    3  A    between atoms: C_7  and  O_8
REMARK    4  A    between atoms: O_8  and  C_9
REMARK    5  A    between atoms: C_9  and  C_10
REMARK    6  A    between atoms: C_14  and  C_15
REMARK                            x       y       z     vdW  Elec       q    Type
REMARK                         _______ _______ _______ _____ _____    ______ ____
ROOT
ATOM      1  C   UNL     1       4.525   5.997  18.228  0.00  0.00    +0.000 C 
ENDROOT
BRANCH   1   2
ATOM      2  C   UNL     1       3.370   5.096  18.579  0.00  0.00    +0.000 A 
ATOM      3  C   UNL     1       2.364   4.826  17.645  0.00  0.00    +0.000 A 
ATOM      4  C   UNL     1       1.306   3.982  17.978  0.00  0.00    +0.000 A 
ATOM      5  C   UNL     1       1.238   3.408  19.249  0.00  0.00    +0.000 A 
ATOM      6  C   UNL     1       2.227   3.677  20.205  0.00  0.00    +0.000 A 
ATOM      7  C   UNL     1       3.289   4.526  19.859  0.00  0.00    +0.000 A 
BRANCH   6   8
ATOM      8  C   UNL     1       2.171   3.073  21.586  0.00  0.00    +0.000 C 
ATOM      9  F   UNL     1       3.104   2.104  21.799  0.00  0.00    +0.000 F 
ATOM     10  F   UNL     1       2.367   3.998  22.567  0.00  0.00    +0.000 F 
ATOM     11  F   UNL     1       0.966   2.496  21.855  0.00  0.00    +0.000 F 
ENDBRANCH   6   8
ENDBRANCH   1   2
BRANCH   1  12
ATOM     12  O   UNL     1       5.696   5.197  18.050  0.00  0.00    +0.000 OA
BRANCH  12  16
ATOM     13  C   UNL     1       6.345   4.167  14.067  0.00  0.00    +0.000 A 
ATOM     14  C   UNL     1       7.003   5.284  14.592  0.00  0.00    +0.000 A 
ATOM     15  C   UNL     1       6.843   5.632  15.932  0.00  0.00    +0.000 A 
ATOM     16  C   UNL     1       5.988   4.891  16.749  0.00  0.00    +0.000 A 
ATOM     17  C   UNL     1       5.359   3.754  16.238  0.00  0.00    +0.000 A 
ATOM     18  C   UNL     1       5.534   3.388  14.898  0.00  0.00    +0.000 A 
BRANCH  13  20
ATOM     19  C   UNL     1       5.568   2.925  11.955  0.00  0.00    +0.000 C 
ATOM     20  C   UNL     1       6.524   3.874  12.621  0.00  0.00    +0.000 C 
ATOM     21  O   UNL     1       7.462   4.382  12.011  0.00  0.00    +0.000 OA
ENDBRANCH  13  20
ENDBRANCH  12  16
ENDBRANCH   1  12
TORSDOF 5
ENDMDL
MODEL 5
REMARK VINA RESULT:      -7.4      3.244      6.399
REMARK  Name = 
REMARK  6 active torsions:
REMARK  status: ('A' for Active; 'I' for Inactive)
REMARK    1  A    between atoms: C_1  and  C_2
REMARK    2  A    between atoms: C_2  and  C_4
REMARK    3  A    between atoms: C_7  and  O_8
REMARK    4  A    between atoms: O_8  and  C_9
REMARK    5  A    between atoms: C_9  and  C_10
REMARK    6  A    between atoms: C_14  and  C_15
REMARK                            x       y       z     vdW  Elec       q    Type
REMARK                         _______ _______ _______ _____ _____    ______ ____
ROOT
ATOM      1  C   UNL     1       6.231   5.367  19.337  0.00  0.00    +0.000 C 
ENDROOT
BRANCH   1   2
ATOM      2  C   UNL     1       4.770   5.017  19.224  0.00  0.00    +0.000 A 
ATOM      3  C   UNL     1       3.783   5.986  19.432  0.00  0.00    +0.000 A 
ATOM      4  C   UNL     1       2.435   5.652  19.314  0.00  0.00    +0.000 A 
ATOM      5  C   UNL     1       2.061   4.345  18.998  0.00  0.00    +0.000 A 
ATOM      6  C   UNL     1       3.032   3.354  18.802  0.00  0.00    +0.000 A 
ATOM      7  C   UNL     1       4.386   3.702  18.920  0.00  0.00    +0.000 A 
BRANCH   6   8
ATOM      8  C   UNL     1       2.650   1.934  18.466  0.00  0.00    +0.000 C 
ATOM      9  F   UNL     1       2.212   1.772  17.186  0.00  0.00    +0.000 F 
ATOM     10  F   UNL     1       3.691   1.067  18.614  0.00  0.00    +0.000 F 
ATOM     11  F   UNL     1       1.653   1.458  19.264  0.00  0.00    +0.000 F 
ENDBRANCH   6   8
ENDBRANCH   1   2
BRANCH   1  12
ATOM     12  O   UNL     1       6.564   6.290  18.299  0.00  0.00    +0.000 OA
BRANCH  12  16
ATOM     13  C   UNL     1       6.120   4.591  14.522  0.00  0.00    +0.000 A 
ATOM     14  C   UNL     1       5.322   5.685  14.868  0.00  0.00    +0.000 A 
ATOM     15  C   UNL     1       5.474   6.306  16.107  0.00  0.00    +0.000 A 
ATOM     16  C   UNL     1       6.397   5.810  17.029  0.00  0.00    +0.000 A 
ATOM     17  C   UNL     1       7.222   4.741  16.672  0.00  0.00    +0.000 A 
ATOM     18  C   UNL     1       7.087   4.128  15.420  0.00  0.00    +0.000 A 
BRANCH  13  20
ATOM     19  C   UNL     1       7.024   3.842  12.236  0.00  0.00    +0.000 C 
ATOM     20  C   UNL     1       5.880   3.948  13.203  0.00  0.00    +0.000 C 
ATOM     21  O   UNL     1       4.753   3.549  12.920  0.00  0.00    +0.000 OA
ENDBRANCH  13  20
ENDBRANCH  12  16
ENDBRANCH   1  12
TORSDOF 5
ENDMDL
MODEL 6
REMARK VINA RESULT:      -7.3      5.229      7.105
REMARK  Name = 
REMARK  6 active torsions:
REMARK  status: ('A' for Active; 'I' for Inactive)
REMARK    1  A    between atoms: C_1  and  C_2
REMARK    2  A    between atoms: C_2  and  C_4
REMARK    3  A    between atoms: C_7  and  O_8
REMARK    4  A    between atoms: O_8  and  C_9
REMARK    5  A    between atoms: C_9  and  C_10
REMARK    6  A    between atoms: C_14  and  C_15
REMARK                            x       y       z     vdW  Elec       q    Type
REMARK                         _______ _______ _______ _____ _____    ______ ____
ROOT
ATOM      1  C   UNL     1       3.294   7.340  18.184  0.00  0.00    +0.000 C 
ENDROOT
BRANCH   1   2
ATOM      2  C   UNL     1       3.232   5.849  17.980  0.00  0.00    +0.000 A 
ATOM      3  C   UNL     1       4.117   5.209  17.106  0.00  0.00    +0.000 A 
ATOM      4  C   UNL     1       4.056   3.826  16.934  0.00  0.00    +0.000 A 
ATOM      5  C   UNL     1       3.107   3.074  17.626  0.00  0.00    +0.000 A 
ATOM      6  C   UNL     1       2.200   3.696  18.496  0.00  0.00    +0.000 A 
ATOM      7  C   UNL     1       2.271   5.087  18.663  0.00  0.00    +0.000 A 
BRANCH   6   8
ATOM      8  C   UNL     1       1.162   2.903  19.250  0.00  0.00    +0.000 C 
ATOM      9  F   UNL     1       0.237   2.309  18.446  0.00  0.00    +0.000 F 
ATOM     10  F   UNL     1       1.711   1.899  19.990  0.00  0.00    +0.000 F 
ATOM     11  F   UNL     1       0.456   3.669  20.128  0.00  0.00    +0.000 F 
ENDBRANCH   6   8
ENDBRANCH   1   2
BRANCH   1  12
ATOM     12  O   UNL     1       1.975   7.876  18.063  0.00  0.00    +0.000 OA
BRANCH  12  16
ATOM     13  C   UNL     1       0.371   9.925  21.316  0.00  0.00    +0.000 A 
ATOM     14  C   UNL     1       1.034   8.714  21.540  0.00  0.00    +0.000 A 
ATOM     15  C   UNL     1       1.620   8.023  20.480  0.00  0.00    +0.000 A 
ATOM     16  C   UNL     1       1.511   8.517  19.180  0.00  0.00    +0.000 A 
ATOM     17  C   UNL     1       0.884   9.744  18.957  0.00  0.00    +0.000 A 
ATOM     18  C   UNL     1       0.312  10.452  20.022  0.00  0.00    +0.000 A 
BRANCH  13  20
ATOM     19  C   UNL     1      -0.744  12.007  22.328  0.00  0.00    +0.000 C 
ATOM     20  C   UNL     1      -0.268  10.591  22.481  0.00  0.00    +0.000 C 
ATOM     21  O   UNL     1      -0.364   9.986  23.547  0.00  0.00    +0.000 OA
ENDBRANCH  13  20
ENDBRANCH  12  16
ENDBRANCH   1  12
TORSDOF 5
ENDMDL
MODEL 7
REMARK VINA RESULT:      -7.3      0.778      1.561
REMARK  Name = 
REMARK  6 active torsions:
REMARK  status: ('A' for Active; 'I' for Inactive)
REMARK    1  A    between atoms: C_1  and  C_2
REMARK    2  A    between atoms: C_2  and  C_4
REMARK    3  A    between atoms: C_7  and  O_8
REMARK    4  A    between atoms: O_8  and  C_9
REMARK    5  A    between atoms: C_9  and  C_10
REMARK    6  A    between atoms: C_14  and  C_15
REMARK                            x       y       z     vdW  Elec       q    Type
REMARK                         _______ _______ _______ _____ _____    ______ ____
ROOT
ATOM      1  C   UNL     1       6.559   4.858  16.043  0.00  0.00    +0.000 C 
ENDROOT
BRANCH   1   2
ATOM      2  C   UNL     1       6.702   4.706  14.551  0.00  0.00    +0.000 A 
ATOM      3  C   UNL     1       7.804   5.245  13.879  0.00  0.00    +0.000 A 
ATOM      4  C   UNL     1       7.930   5.089  12.499  0.00  0.00    +0.000 A 
ATOM      5  C   UNL     1       6.953   4.402  11.778  0.00  0.00    +0.000 A 
ATOM      6  C   UNL     1       5.832   3.866  12.429  0.00  0.00    +0.000 A 
ATOM      7  C   UNL     1       5.716   4.027  13.818  0.00  0.00    +0.000 A 
BRANCH   6   8
ATOM      8  C   UNL     1       4.761   3.125  11.669  0.00  0.00    +0.000 C 
ATOM      9  F   UNL     1       4.369   3.750  10.523  0.00  0.00    +0.000 F 
ATOM     10  F   UNL     1       5.159   1.877  11.293  0.00  0.00    +0.000 F 
ATOM     11  F   UNL     1       3.627   2.948  12.403  0.00  0.00    +0.000 F 
ENDBRANCH   6   8
ENDBRANCH   1   2
BRANCH   1  12
ATOM     12  O   UNL     1       5.436   5.698  16.314  0.00  0.00    +0.000 OA
BRANCH  12  16
ATOM     13  C   UNL     1       2.342   4.168  18.646  0.00  0.00    +0.000 A 
ATOM     14  C   UNL     1       3.221   3.278  18.022  0.00  0.00    +0.000 A 
ATOM     15  C   UNL     1       4.293   3.756  17.270  0.00  0.00    +0.000 A 
ATOM     16  C   UNL     1       4.470   5.129  17.100  0.00  0.00    +0.000 A 
ATOM     17  C   UNL     1       3.617   6.021  17.752  0.00  0.00    +0.000 A 
ATOM     18  C   UNL     1       2.551   5.546  18.526  0.00  0.00    +0.000 A 
BRANCH  13  20
ATOM     19  C   UNL     1       0.608   2.294  18.934  0.00  0.00    +0.000 C 
ATOM     20  C   UNL     1       1.195   3.595  19.400  0.00  0.00    +0.000 C 
ATOM     21  O   UNL     1       0.734   4.209  20.359  0.00  0.00    +0.000 OA
ENDBRANCH  13  20
ENDBRANCH  12  16
ENDBRANCH   1  12
TORSDOF 5
ENDMDL
MODEL 8
REMARK VINA RESULT:      -7.3      6.795      8.883
REMARK  Name = 
REMARK  6 active torsions:
REMARK  status: ('A' for Active; 'I' for Inactive)
REMARK    1  A    between atoms: C_1  and  C_2
REMARK    2  A    between atoms: C_2  and  C_4
REMARK    3  A    between atoms: C_7  and  O_8
REMARK    4  A    between atoms: O_8  and  C_9
REMARK    5  A    between atoms: C_9  and  C_10
REMARK    6  A    between atoms: C_14  and  C_15
REMARK                            x       y       z     vdW  Elec       q    Type
REMARK                         _______ _______ _______ _____ _____    ______ ____
ROOT
ATOM      1  C   UNL     1       8.034   8.836  17.881  0.00  0.00    +0.000 C 
ENDROOT
BRANCH   1   2
ATOM      2  C   UNL     1       7.754   7.359  17.767  0.00  0.00    +0.000 A 
ATOM      3  C   UNL     1       7.985   6.502  18.848  0.00  0.00    +0.000 A 
ATOM      4  C   UNL     1       7.712   5.140  18.735  0.00  0.00    +0.000 A 
ATOM      5  C   UNL     1       7.216   4.621  17.538  0.00  0.00    +0.000 A 
ATOM      6  C   UNL     1       6.992   5.458  16.437  0.00  0.00    +0.000 A 
ATOM      7  C   UNL     1       7.267   6.829  16.563  0.00  0.00    +0.000 A 
BRANCH   6   8
ATOM      8  C   UNL     1       6.462   4.918  15.132  0.00  0.00    +0.000 C 
ATOM      9  F   UNL     1       5.282   5.478  14.746  0.00  0.00    +0.000 F 
ATOM     10  F   UNL     1       7.325   5.120  14.097  0.00  0.00    +0.000 F 
ATOM     11  F   UNL     1       6.241   3.574  15.174  0.00  0.00    +0.000 F 
ENDBRANCH   6   8
ENDBRANCH   1   2
BRANCH   1  12
ATOM     12  O   UNL     1       8.873   9.059  19.015  0.00  0.00    +0.000 OA
BRANCH  12  16
ATOM     13  C   UNL     1       9.971  13.066  19.309  0.00  0.00    +0.000 A 
ATOM     14  C   UNL     1       9.805  12.324  20.482  0.00  0.00    +0.000 A 
ATOM     15  C   UNL     1       9.480  10.969  20.420  0.00  0.00    +0.000 A 
ATOM     16  C   UNL     1       9.276  10.356  19.184  0.00  0.00    +0.000 A 
ATOM     17  C   UNL     1       9.478  11.085  18.010  0.00  0.00    +0.000 A 
ATOM     18  C   UNL     1       9.825  12.440  18.067  0.00  0.00    +0.000 A 
BRANCH  13  20
ATOM     19  C   UNL     1      11.672  14.925  19.817  0.00  0.00    +0.000 C 
ATOM     20  C   UNL     1      10.276  14.515  19.444  0.00  0.00    +0.000 C 
ATOM     21  O   UNL     1       9.380  15.341  19.281  0.00  0.00    +0.000 OA
ENDBRANCH  13  20
ENDBRANCH  12  16
ENDBRANCH   1  12
TORSDOF 5
ENDMDL
MODEL 9
REMARK VINA RESULT:      -7.3      3.213      6.470
REMARK  Name = 
REMARK  6 active torsions:
REMARK  status: ('A' for Active; 'I' for Inactive)
REMARK    1  A    between atoms: C_1  and  C_2
REMARK    2  A    between atoms: C_2  and  C_4
REMARK    3  A    between atoms: C_7  and  O_8
REMARK    4  A    between atoms: O_8  and  C_9
REMARK    5  A    between atoms: C_9  and  C_10
REMARK    6  A    between atoms: C_14  and  C_15
REMARK                            x       y       z     vdW  Elec       q    Type
REMARK                         _______ _______ _______ _____ _____    ______ ____
ROOT
ATOM      1  C   UNL     1       5.977   5.184  19.239  0.00  0.00    +0.000 C 
ENDROOT
BRANCH   1   2
ATOM      2  C   UNL     1       4.479   5.023  19.213  0.00  0.00    +0.000 A 
ATOM      3  C   UNL     1       3.639   6.094  19.535  0.00  0.00    +0.000 A 
ATOM      4  C   UNL     1       2.254   5.935  19.497  0.00  0.00    +0.000 A 
ATOM      5  C   UNL     1       1.698   4.704  19.147  0.00  0.00    +0.000 A 
ATOM      6  C   UNL     1       2.521   3.613  18.836  0.00  0.00    +0.000 A 
ATOM      7  C   UNL     1       3.913   3.784  18.874  0.00  0.00    +0.000 A 
BRANCH   6   8
ATOM      8  C   UNL     1       1.941   2.272  18.460  0.00  0.00    +0.000 C 
ATOM      9  F   UNL     1       2.268   1.272  19.326  0.00  0.00    +0.000 F 
ATOM     10  F   UNL     1       0.580   2.290  18.411  0.00  0.00    +0.000 F 
ATOM     11  F   UNL     1       2.352   1.851  17.231  0.00  0.00    +0.000 F 
ENDBRANCH   6   8
ENDBRANCH   1   2
BRANCH   1  12
ATOM     12  O   UNL     1       6.355   6.131  18.238  0.00  0.00    +0.000 OA
BRANCH  12  16
ATOM     13  C   UNL     1       6.047   4.527  14.406  0.00  0.00    +0.000 A 
ATOM     14  C   UNL     1       5.255   5.629  14.743  0.00  0.00    +0.000 A 
ATOM     15  C   UNL     1       5.363   6.218  16.002  0.00  0.00    +0.000 A 
ATOM     16  C   UNL     1       6.235   5.683  16.950  0.00  0.00    +0.000 A 
ATOM     17  C   UNL     1       7.055   4.606  16.605  0.00  0.00    +0.000 A 
ATOM     18  C   UNL     1       6.964   4.025  15.334  0.00  0.00    +0.000 A 
BRANCH  13  20
ATOM     19  C   UNL     1       7.048   3.759  12.167  0.00  0.00    +0.000 C 
ATOM     20  C   UNL     1       5.853   3.920  13.063  0.00  0.00    +0.000 C 
ATOM     21  O   UNL     1       4.725   3.594  12.702  0.00  0.00    +0.000 OA
ENDBRANCH  13  20
ENDBRANCH  12  16
ENDBRANCH   1  12
TORSDOF 5
ENDMDL
