MODEL 1
REMARK VINA RESULT:      -8.1      0.000      0.000
REMARK  Name = 
REMARK  12 active torsions:
REMARK  status: ('A' for Active; 'I' for Inactive)
REMARK    1  A    between atoms: C_1  and  O_2
REMARK    2  A    between atoms: O_2  and  C_3
REMARK    3  A    between atoms: C_3  and  C_5
REMARK    4  A    between atoms: C_12  and  C_13
REMARK    5  A    between atoms: C_15  and  C_16
REMARK    6  A    between atoms: C_17  and  C_18
REMARK    7  A    between atoms: N_20  and  CA_21
REMARK    8  A    between atoms: CA_21  and  CB_22
REMARK    9  A    between atoms: CA_21  and  C_29
REMARK   10  A    between atoms: CB_22  and  CG_23
REMARK   11  A    between atoms: C_29  and  OXT_31
REMARK   12  A    between atoms: C_32  and  C_33
REMARK                            x       y       z     vdW  Elec       q    Type
REMARK                         _______ _______ _______ _____ _____    ______ ____
ROOT
ATOM      1  C   UNK A   0       0.140  10.387  18.511  0.00  0.00    +0.000 A 
ATOM      2  N   UNK A   0       0.428  11.277  19.500  0.00  0.00    +0.000 N 
ATOM      3  C   UNK A   0      -0.712  11.925  19.924  0.00  0.00    +0.000 A 
ATOM      4  C   UNK A   0      -0.597  12.808  21.116  0.00  0.00    +0.000 C 
ATOM      5  C   UNK A   0      -1.757  11.547  19.078  0.00  0.00    +0.000 A 
ATOM      6  C   UNK A   0      -1.200  10.524  18.197  0.00  0.00    +0.000 A 
ATOM      7  C   UNK A   0      -1.909   9.689  17.183  0.00  0.00    +0.000 C 
ATOM      8  H   UNK A   0       1.338  11.374  19.931  0.00  0.00    +0.000 HD
ENDROOT
BRANCH   1  16
ATOM      9  C   UNK A   0       4.497   6.372  17.466  0.00  0.00    +0.000 A 
ATOM     10  C   UNK A   0       4.527   5.476  18.563  0.00  0.00    +0.000 A 
ATOM     11  C   UNK A   0       3.656   5.629  19.641  0.00  0.00    +0.000 A 
ATOM     12  C   UNK A   0       2.766   6.679  19.588  0.00  0.00    +0.000 A 
ATOM     13  C   UNK A   0       2.699   7.568  18.507  0.00  0.00    +0.000 A 
ATOM     14  C   UNK A   0       3.566   7.430  17.434  0.00  0.00    +0.000 A 
ATOM     15  C   UNK A   0       1.634   8.527  18.849  0.00  0.00    +0.000 C 
ATOM     16  C   UNK A   0       1.174   9.524  18.074  0.00  0.00    +0.000 C 
ATOM     17  C   UNK A   0       1.139   8.163  20.233  0.00  0.00    +0.000 C 
ATOM     18  O   UNK A   0       0.326   8.724  20.939  0.00  0.00    +0.000 OA
ATOM     19  N   UNK A   0       1.856   7.027  20.574  0.00  0.00    +0.000 N 
ATOM     20  H   UNK A   0       1.731   6.560  21.458  0.00  0.00    +0.000 HD
BRANCH   9  21
ATOM     21  C   UNK A   0       5.493   6.141  16.382  0.00  0.00    +0.000 C 
ATOM     22  O   UNK A   0       5.459   5.173  15.639  0.00  0.00    +0.000 OA
BRANCH  21  24
ATOM     23  C   UNK A   0       7.401   6.999  17.399  0.00  0.00    +0.000 C 
ATOM     24  O   UNK A   0       6.426   7.123  16.360  0.00  0.00    +0.000 OA
ENDBRANCH  21  24
ENDBRANCH   9  21
ENDBRANCH   1  16
BRANCH   5  25
ATOM     25  C   UNK A   0      -3.157  12.003  19.027  0.00  0.00    +0.000 C 
ATOM     26  O   UNK A   0      -3.775  12.110  17.965  0.00  0.00    +0.000 OA
ATOM     27  N   PHE A   1      -3.852  12.258  20.189  0.00  0.00    +0.000 N 
ATOM     28  H   PHE A   1      -3.463  11.978  21.076  0.00  0.00    +0.000 HD
BRANCH  27  29
ATOM     29  CA  PHE A   1      -5.244  12.764  20.125  0.00  0.00    +0.000 C 
BRANCH  29  30
ATOM     30  C   PHE A   1      -6.263  11.613  20.227  0.00  0.00    +0.000 C 
ATOM     31  O   PHE A   1      -6.895  11.333  21.239  0.00  0.00    +0.000 OA
BRANCH  30  32
ATOM     32  OXT PHE A   1      -6.486  10.983  19.051  0.00  0.00    +0.000 OA
ATOM     33  HXT PHE A   1      -5.647  10.700  18.605  0.00  0.00    +0.000 HD
ENDBRANCH  30  32
ENDBRANCH  29  30
BRANCH  29  34
ATOM     34  CB  PHE A   1      -5.571  13.859  21.158  0.00  0.00    +0.000 C 
BRANCH  34  35
ATOM     35  CG  PHE A   1      -4.626  13.965  22.335  0.00  0.00    +0.000 A 
ATOM     36  CD1 PHE A   1      -4.667  13.081  23.422  0.00  0.00    +0.000 A 
ATOM     37  CE1 PHE A   1      -3.886  13.315  24.553  0.00  0.00    +0.000 A 
ATOM     38  CZ  PHE A   1      -3.012  14.397  24.587  0.00  0.00    +0.000 A 
ATOM     39  CE2 PHE A   1      -2.882  15.218  23.469  0.00  0.00    +0.000 A 
ATOM     40  CD2 PHE A   1      -3.678  14.998  22.345  0.00  0.00    +0.000 A 
ENDBRANCH  34  35
ENDBRANCH  29  34
ENDBRANCH  27  29
ENDBRANCH   5  25
TORSDOF 9
ENDMDL
MODEL 2
REMARK VINA RESULT:      -8.0      2.054      3.176
REMARK  Name = 
REMARK  12 active torsions:
REMARK  status: ('A' for Active; 'I' for Inactive)
REMARK    1  A    between atoms: C_1  and  O_2
REMARK    2  A    between atoms: O_2  and  C_3
REMARK    3  A    between atoms: C_3  and  C_5
REMARK    4  A    between atoms: C_12  and  C_13
REMARK    5  A    between atoms: C_15  and  C_16
REMARK    6  A    between atoms: C_17  and  C_18
REMARK    7  A    between atoms: N_20  and  CA_21
REMARK    8  A    between atoms: CA_21  and  CB_22
REMARK    9  A    between atoms: CA_21  and  C_29
REMARK   10  A    between atoms: CB_22  and  CG_23
REMARK   11  A    between atoms: C_29  and  OXT_31
REMARK   12  A    between atoms: C_32  and  C_33
REMARK                            x       y       z     vdW  Elec       q    Type
REMARK                         _______ _______ _______ _____ _____    ______ ____
ROOT
ATOM      1  C   UNK A   0       0.241  10.868  19.360  0.00  0.00    +0.000 A 
ATOM      2  N   UNK A   0       0.766  11.860  20.130  0.00  0.00    +0.000 N 
ATOM      3  C   UNK A   0      -0.228  12.540  20.799  0.00  0.00    +0.000 A 
ATOM      4  C   UNK A   0       0.190  13.545  21.814  0.00  0.00    +0.000 C 
ATOM      5  C   UNK A   0      -1.457  12.068  20.333  0.00  0.00    +0.000 A 
ATOM      6  C   UNK A   0      -1.137  10.961  19.433  0.00  0.00    +0.000 A 
ATOM      7  C   UNK A   0      -2.074  10.019  18.755  0.00  0.00    +0.000 C 
ATOM      8  H   UNK A   0       1.757  12.008  20.269  0.00  0.00    +0.000 HD
ENDROOT
BRANCH   1  16
ATOM      9  C   UNK A   0       4.039   6.611  17.448  0.00  0.00    +0.000 A 
ATOM     10  C   UNK A   0       4.050   5.579  18.419  0.00  0.00    +0.000 A 
ATOM     11  C   UNK A   0       3.283   5.675  19.580  0.00  0.00    +0.000 A 
ATOM     12  C   UNK A   0       2.513   6.806  19.735  0.00  0.00    +0.000 A 
ATOM     13  C   UNK A   0       2.465   7.833  18.783  0.00  0.00    +0.000 A 
ATOM     14  C   UNK A   0       3.231   7.752  17.630  0.00  0.00    +0.000 A 
ATOM     15  C   UNK A   0       1.541   8.840  19.333  0.00  0.00    +0.000 C 
ATOM     16  C   UNK A   0       1.138   9.972  18.731  0.00  0.00    +0.000 C 
ATOM     17  C   UNK A   0       1.112   8.347  20.698  0.00  0.00    +0.000 C 
ATOM     18  O   UNK A   0       0.420   8.887  21.537  0.00  0.00    +0.000 OA
ATOM     19  N   UNK A   0       1.722   7.109  20.832  0.00  0.00    +0.000 N 
ATOM     20  H   UNK A   0       1.612   6.544  21.659  0.00  0.00    +0.000 HD
BRANCH   9  21
ATOM     21  C   UNK A   0       4.920   6.427  16.261  0.00  0.00    +0.000 C 
ATOM     22  O   UNK A   0       4.895   7.165  15.289  0.00  0.00    +0.000 OA
BRANCH  21  24
ATOM     23  C   UNK A   0       6.288   4.887  15.178  0.00  0.00    +0.000 C 
ATOM     24  O   UNK A   0       5.713   5.337  16.407  0.00  0.00    +0.000 OA
ENDBRANCH  21  24
ENDBRANCH   9  21
ENDBRANCH   1  16
BRANCH   5  25
ATOM     25  C   UNK A   0      -2.829  12.505  20.643  0.00  0.00    +0.000 C 
ATOM     26  O   UNK A   0      -3.365  12.264  21.727  0.00  0.00    +0.000 OA
ATOM     27  N   PHE A   1      -3.539  13.272  19.745  0.00  0.00    +0.000 N 
ATOM     28  H   PHE A   1      -3.067  13.673  18.948  0.00  0.00    +0.000 HD
BRANCH  27  29
ATOM     29  CA  PHE A   1      -4.936  13.664  20.046  0.00  0.00    +0.000 C 
BRANCH  29  30
ATOM     30  C   PHE A   1      -5.109  15.194  20.001  0.00  0.00    +0.000 C 
ATOM     31  O   PHE A   1      -4.548  15.979  20.759  0.00  0.00    +0.000 OA
BRANCH  30  32
ATOM     32  OXT PHE A   1      -5.868  15.623  18.968  0.00  0.00    +0.000 OA
ATOM     33  HXT PHE A   1      -5.886  16.611  18.892  0.00  0.00    +0.000 HD
ENDBRANCH  30  32
ENDBRANCH  29  30
BRANCH  29  34
ATOM     34  CB  PHE A   1      -5.993  12.982  19.158  0.00  0.00    +0.000 C 
BRANCH  34  35
ATOM     35  CG  PHE A   1      -6.534  11.662  19.662  0.00  0.00    +0.000 A 
ATOM     36  CD1 PHE A   1      -6.329  10.452  18.986  0.00  0.00    +0.000 A 
ATOM     37  CE1 PHE A   1      -6.979   9.290  19.402  0.00  0.00    +0.000 A 
ATOM     38  CZ  PHE A   1      -7.792   9.311  20.531  0.00  0.00    +0.000 A 
ATOM     39  CE2 PHE A   1      -7.914  10.483  21.275  0.00  0.00    +0.000 A 
ATOM     40  CD2 PHE A   1      -7.282  11.650  20.848  0.00  0.00    +0.000 A 
ENDBRANCH  34  35
ENDBRANCH  29  34
ENDBRANCH  27  29
ENDBRANCH   5  25
TORSDOF 9
ENDMDL
MODEL 3
REMARK VINA RESULT:      -8.0      1.484      1.972
REMARK  Name = 
REMARK  12 active torsions:
REMARK  status: ('A' for Active; 'I' for Inactive)
REMARK    1  A    between atoms: C_1  and  O_2
REMARK    2  A    between atoms: O_2  and  C_3
REMARK    3  A    between atoms: C_3  and  C_5
REMARK    4  A    between atoms: C_12  and  C_13
REMARK    5  A    between atoms: C_15  and  C_16
REMARK    6  A    between atoms: C_17  and  C_18
REMARK    7  A    between atoms: N_20  and  CA_21
REMARK    8  A    between atoms: CA_21  and  CB_22
REMARK    9  A    between atoms: CA_21  and  C_29
REMARK   10  A    between atoms: CB_22  and  CG_23
REMARK   11  A    between atoms: C_29  and  OXT_31
REMARK   12  A    between atoms: C_32  and  C_33
REMARK                            x       y       z     vdW  Elec       q    Type
REMARK                         _______ _______ _______ _____ _____    ______ ____
ROOT
ATOM      1  C   UNK A   0       0.349  10.521  18.884  0.00  0.00    +0.000 A 
ATOM      2  N   UNK A   0       0.730  11.340  19.902  0.00  0.00    +0.000 N 
ATOM      3  C   UNK A   0      -0.347  12.043  20.396  0.00  0.00    +0.000 A 
ATOM      4  C   UNK A   0      -0.132  12.857  21.623  0.00  0.00    +0.000 C 
ATOM      5  C   UNK A   0      -1.443  11.779  19.572  0.00  0.00    +0.000 A 
ATOM      6  C   UNK A   0      -0.987  10.765  18.624  0.00  0.00    +0.000 A 
ATOM      7  C   UNK A   0      -1.786  10.030  17.599  0.00  0.00    +0.000 C 
ATOM      8  H   UNK A   0       1.659  11.353  20.304  0.00  0.00    +0.000 HD
ENDROOT
BRANCH   1  16
ATOM      9  C   UNK A   0       4.360   6.258  17.490  0.00  0.00    +0.000 A 
ATOM     10  C   UNK A   0       4.334   5.291  18.524  0.00  0.00    +0.000 A 
ATOM     11  C   UNK A   0       3.492   5.438  19.627  0.00  0.00    +0.000 A 
ATOM     12  C   UNK A   0       2.688   6.555  19.661  0.00  0.00    +0.000 A 
ATOM     13  C   UNK A   0       2.676   7.518  18.642  0.00  0.00    +0.000 A 
ATOM     14  C   UNK A   0       3.515   7.385  17.547  0.00  0.00    +0.000 A 
ATOM     15  C   UNK A   0       1.695   8.532  19.069  0.00  0.00    +0.000 C 
ATOM     16  C   UNK A   0       1.305   9.612  18.371  0.00  0.00    +0.000 C 
ATOM     17  C   UNK A   0       1.192   8.114  20.434  0.00  0.00    +0.000 C 
ATOM     18  O   UNK A   0       0.437   8.687  21.192  0.00  0.00    +0.000 OA
ATOM     19  N   UNK A   0       1.822   6.905  20.685  0.00  0.00    +0.000 N 
ATOM     20  H   UNK A   0       1.673   6.390  21.539  0.00  0.00    +0.000 HD
BRANCH   9  21
ATOM     21  C   UNK A   0       5.318   6.024  16.374  0.00  0.00    +0.000 C 
ATOM     22  O   UNK A   0       5.260   5.055  15.634  0.00  0.00    +0.000 OA
BRANCH  21  24
ATOM     23  C   UNK A   0       7.312   6.831  17.264  0.00  0.00    +0.000 C 
ATOM     24  O   UNK A   0       6.252   7.006  16.320  0.00  0.00    +0.000 OA
ENDBRANCH  21  24
ENDBRANCH   9  21
ENDBRANCH   1  16
BRANCH   5  25
ATOM     25  C   UNK A   0      -2.808  12.332  19.592  0.00  0.00    +0.000 C 
ATOM     26  O   UNK A   0      -3.086  13.373  20.193  0.00  0.00    +0.000 OA
ATOM     27  N   PHE A   1      -3.817  11.733  18.869  0.00  0.00    +0.000 N 
ATOM     28  H   PHE A   1      -3.591  11.015  18.197  0.00  0.00    +0.000 HD
BRANCH  27  29
ATOM     29  CA  PHE A   1      -5.197  12.268  18.937  0.00  0.00    +0.000 C 
BRANCH  29  30
ATOM     30  C   PHE A   1      -5.945  12.055  17.607  0.00  0.00    +0.000 C 
ATOM     31  O   PHE A   1      -7.082  12.453  17.379  0.00  0.00    +0.000 OA
BRANCH  30  32
ATOM     32  OXT PHE A   1      -5.192  11.466  16.651  0.00  0.00    +0.000 OA
ATOM     33  HXT PHE A   1      -5.144  10.482  16.756  0.00  0.00    +0.000 HD
ENDBRANCH  30  32
ENDBRANCH  29  30
BRANCH  29  34
ATOM     34  CB  PHE A   1      -6.032  11.725  20.112  0.00  0.00    +0.000 C 
BRANCH  34  35
ATOM     35  CG  PHE A   1      -6.507  12.749  21.119  0.00  0.00    +0.000 A 
ATOM     36  CD1 PHE A   1      -7.614  13.579  20.893  0.00  0.00    +0.000 A 
ATOM     37  CE1 PHE A   1      -7.916  14.613  21.778  0.00  0.00    +0.000 A 
ATOM     38  CZ  PHE A   1      -7.153  14.792  22.928  0.00  0.00    +0.000 A 
ATOM     39  CE2 PHE A   1      -6.119  13.905  23.220  0.00  0.00    +0.000 A 
ATOM     40  CD2 PHE A   1      -5.803  12.884  22.325  0.00  0.00    +0.000 A 
ENDBRANCH  34  35
ENDBRANCH  29  34
ENDBRANCH  27  29
ENDBRANCH   5  25
TORSDOF 9
ENDMDL
MODEL 4
REMARK VINA RESULT:      -7.9      0.881      1.261
REMARK  Name = 
REMARK  12 active torsions:
REMARK  status: ('A' for Active; 'I' for Inactive)
REMARK    1  A    between atoms: C_1  and  O_2
REMARK    2  A    between atoms: O_2  and  C_3
REMARK    3  A    between atoms: C_3  and  C_5
REMARK    4  A    between atoms: C_12  and  C_13
REMARK    5  A    between atoms: C_15  and  C_16
REMARK    6  A    between atoms: C_17  and  C_18
REMARK    7  A    between atoms: N_20  and  CA_21
REMARK    8  A    between atoms: CA_21  and  CB_22
REMARK    9  A    between atoms: CA_21  and  C_29
REMARK   10  A    between atoms: CB_22  and  CG_23
REMARK   11  A    between atoms: C_29  and  OXT_31
REMARK   12  A    between atoms: C_32  and  C_33
REMARK                            x       y       z     vdW  Elec       q    Type
REMARK                         _______ _______ _______ _____ _____    ______ ____
ROOT
ATOM      1  C   UNK A   0       0.209  10.476  18.941  0.00  0.00    +0.000 A 
ATOM      2  N   UNK A   0       0.595  11.285  19.965  0.00  0.00    +0.000 N 
ATOM      3  C   UNK A   0      -0.482  11.975  20.478  0.00  0.00    +0.000 A 
ATOM      4  C   UNK A   0      -0.261  12.775  21.712  0.00  0.00    +0.000 C 
ATOM      5  C   UNK A   0      -1.584  11.715  19.660  0.00  0.00    +0.000 A 
ATOM      6  C   UNK A   0      -1.130  10.715  18.696  0.00  0.00    +0.000 A 
ATOM      7  C   UNK A   0      -1.934   9.988  17.670  0.00  0.00    +0.000 C 
ATOM      8  H   UNK A   0       1.527  11.299  20.359  0.00  0.00    +0.000 HD
ENDROOT
BRANCH   1  16
ATOM      9  C   UNK A   0       4.263   6.280  17.471  0.00  0.00    +0.000 A 
ATOM     10  C   UNK A   0       4.298   5.331  18.522  0.00  0.00    +0.000 A 
ATOM     11  C   UNK A   0       3.496   5.480  19.653  0.00  0.00    +0.000 A 
ATOM     12  C   UNK A   0       2.667   6.579  19.698  0.00  0.00    +0.000 A 
ATOM     13  C   UNK A   0       2.595   7.523  18.664  0.00  0.00    +0.000 A 
ATOM     14  C   UNK A   0       3.395   7.389  17.540  0.00  0.00    +0.000 A 
ATOM     15  C   UNK A   0       1.608   8.522  19.109  0.00  0.00    +0.000 C 
ATOM     16  C   UNK A   0       1.167   9.580  18.408  0.00  0.00    +0.000 C 
ATOM     17  C   UNK A   0       1.166   8.118  20.499  0.00  0.00    +0.000 C 
ATOM     18  O   UNK A   0       0.426   8.687  21.275  0.00  0.00    +0.000 OA
ATOM     19  N   UNK A   0       1.833   6.927  20.747  0.00  0.00    +0.000 N 
ATOM     20  H   UNK A   0       1.727   6.426  21.615  0.00  0.00    +0.000 HD
BRANCH   9  21
ATOM     21  C   UNK A   0       5.185   6.048  16.324  0.00  0.00    +0.000 C 
ATOM     22  O   UNK A   0       5.207   6.756  15.330  0.00  0.00    +0.000 OA
BRANCH  21  24
ATOM     23  C   UNK A   0       5.955   4.043  15.426  0.00  0.00    +0.000 C 
ATOM     24  O   UNK A   0       5.954   4.951  16.531  0.00  0.00    +0.000 OA
ENDBRANCH  21  24
ENDBRANCH   9  21
ENDBRANCH   1  16
BRANCH   5  25
ATOM     25  C   UNK A   0      -2.952  12.258  19.700  0.00  0.00    +0.000 C 
ATOM     26  O   UNK A   0      -3.659  12.332  18.692  0.00  0.00    +0.000 OA
ATOM     27  N   PHE A   1      -3.520  12.639  20.896  0.00  0.00    +0.000 N 
ATOM     28  H   PHE A   1      -3.066  12.396  21.764  0.00  0.00    +0.000 HD
BRANCH  27  29
ATOM     29  CA  PHE A   1      -4.878  13.231  20.918  0.00  0.00    +0.000 C 
BRANCH  29  30
ATOM     30  C   PHE A   1      -5.940  12.179  21.291  0.00  0.00    +0.000 C 
ATOM     31  O   PHE A   1      -6.327  11.287  20.544  0.00  0.00    +0.000 OA
BRANCH  30  32
ATOM     32  OXT PHE A   1      -6.350  12.257  22.578  0.00  0.00    +0.000 OA
ATOM     33  HXT PHE A   1      -6.419  13.192  22.900  0.00  0.00    +0.000 HD
ENDBRANCH  30  32
ENDBRANCH  29  30
BRANCH  29  34
ATOM     34  CB  PHE A   1      -5.017  14.472  21.820  0.00  0.00    +0.000 C 
BRANCH  34  35
ATOM     35  CG  PHE A   1      -3.878  14.723  22.784  0.00  0.00    +0.000 A 
ATOM     36  CD1 PHE A   1      -3.808  14.121  24.048  0.00  0.00    +0.000 A 
ATOM     37  CE1 PHE A   1      -2.827  14.506  24.961  0.00  0.00    +0.000 A 
ATOM     38  CZ  PHE A   1      -1.869  15.449  24.602  0.00  0.00    +0.000 A 
ATOM     39  CE2 PHE A   1      -1.863  15.972  23.310  0.00  0.00    +0.000 A 
ATOM     40  CD2 PHE A   1      -2.856  15.605  22.403  0.00  0.00    +0.000 A 
ENDBRANCH  34  35
ENDBRANCH  29  34
ENDBRANCH  27  29
ENDBRANCH   5  25
TORSDOF 9
ENDMDL
MODEL 5
REMARK VINA RESULT:      -7.8      2.900      4.690
REMARK  Name = 
REMARK  12 active torsions:
REMARK  status: ('A' for Active; 'I' for Inactive)
REMARK    1  A    between atoms: C_1  and  O_2
REMARK    2  A    between atoms: O_2  and  C_3
REMARK    3  A    between atoms: C_3  and  C_5
REMARK    4  A    between atoms: C_12  and  C_13
REMARK    5  A    between atoms: C_15  and  C_16
REMARK    6  A    between atoms: C_17  and  C_18
REMARK    7  A    between atoms: N_20  and  CA_21
REMARK    8  A    between atoms: CA_21  and  CB_22
REMARK    9  A    between atoms: CA_21  and  C_29
REMARK   10  A    between atoms: CB_22  and  CG_23
REMARK   11  A    between atoms: C_29  and  OXT_31
REMARK   12  A    between atoms: C_32  and  C_33
REMARK                            x       y       z     vdW  Elec       q    Type
REMARK                         _______ _______ _______ _____ _____    ______ ____
ROOT
ATOM      1  C   UNK A   0       1.446   9.696  17.963  0.00  0.00    +0.000 A 
ATOM      2  N   UNK A   0       0.148   9.297  18.051  0.00  0.00    +0.000 N 
ATOM      3  C   UNK A   0      -0.679  10.369  18.303  0.00  0.00    +0.000 A 
ATOM      4  C   UNK A   0      -2.147  10.129  18.260  0.00  0.00    +0.000 C 
ATOM      5  C   UNK A   0       0.127  11.486  18.533  0.00  0.00    +0.000 A 
ATOM      6  C   UNK A   0       1.495  11.043  18.271  0.00  0.00    +0.000 A 
ATOM      7  C   UNK A   0       2.743  11.861  18.243  0.00  0.00    +0.000 C 
ATOM      8  H   UNK A   0      -0.172   8.357  17.857  0.00  0.00    +0.000 HD
ENDROOT
BRANCH   1  16
ATOM      9  C   UNK A   0       5.454   5.307  17.027  0.00  0.00    +0.000 A 
ATOM     10  C   UNK A   0       5.392   4.427  18.136  0.00  0.00    +0.000 A 
ATOM     11  C   UNK A   0       4.524   4.670  19.200  0.00  0.00    +0.000 A 
ATOM     12  C   UNK A   0       3.729   5.791  19.121  0.00  0.00    +0.000 A 
ATOM     13  C   UNK A   0       3.752   6.668  18.028  0.00  0.00    +0.000 A 
ATOM     14  C   UNK A   0       4.618   6.441  16.970  0.00  0.00    +0.000 A 
ATOM     15  C   UNK A   0       2.770   7.720  18.344  0.00  0.00    +0.000 C 
ATOM     16  C   UNK A   0       2.407   8.742  17.551  0.00  0.00    +0.000 C 
ATOM     17  C   UNK A   0       2.227   7.419  19.725  0.00  0.00    +0.000 C 
ATOM     18  O   UNK A   0       1.458   8.056  20.414  0.00  0.00    +0.000 OA
ATOM     19  N   UNK A   0       2.840   6.229  20.090  0.00  0.00    +0.000 N 
ATOM     20  H   UNK A   0       2.664   5.788  20.979  0.00  0.00    +0.000 HD
BRANCH   9  21
ATOM     21  C   UNK A   0       6.439   4.976  15.960  0.00  0.00    +0.000 C 
ATOM     22  O   UNK A   0       7.387   5.692  15.680  0.00  0.00    +0.000 OA
BRANCH  21  24
ATOM     23  C   UNK A   0       6.064   3.916  13.922  0.00  0.00    +0.000 C 
ATOM     24  O   UNK A   0       6.119   3.810  15.347  0.00  0.00    +0.000 OA
ENDBRANCH  21  24
ENDBRANCH   9  21
ENDBRANCH   1  16
BRANCH   5  25
ATOM     25  C   UNK A   0      -0.232  12.858  18.928  0.00  0.00    +0.000 C 
ATOM     26  O   UNK A   0      -0.718  13.666  18.131  0.00  0.00    +0.000 OA
ATOM     27  N   PHE A   1      -0.103  13.266  20.238  0.00  0.00    +0.000 N 
ATOM     28  H   PHE A   1       0.080  12.583  20.958  0.00  0.00    +0.000 HD
BRANCH  27  29
ATOM     29  CA  PHE A   1      -0.420  14.664  20.615  0.00  0.00    +0.000 C 
BRANCH  29  30
ATOM     30  C   PHE A   1      -1.525  14.717  21.688  0.00  0.00    +0.000 C 
ATOM     31  O   PHE A   1      -2.350  13.830  21.879  0.00  0.00    +0.000 OA
BRANCH  30  32
ATOM     32  OXT PHE A   1      -1.447  15.802  22.491  0.00  0.00    +0.000 OA
ATOM     33  HXT PHE A   1      -0.967  16.558  22.065  0.00  0.00    +0.000 HD
ENDBRANCH  30  32
ENDBRANCH  29  30
BRANCH  29  34
ATOM     34  CB  PHE A   1       0.798  15.493  21.062  0.00  0.00    +0.000 C 
BRANCH  34  35
ATOM     35  CG  PHE A   1       1.969  15.523  20.106  0.00  0.00    +0.000 A 
ATOM     36  CD1 PHE A   1       1.867  16.012  18.796  0.00  0.00    +0.000 A 
ATOM     37  CE1 PHE A   1       2.929  15.872  17.904  0.00  0.00    +0.000 A 
ATOM     38  CZ  PHE A   1       4.124  15.297  18.325  0.00  0.00    +0.000 A 
ATOM     39  CE2 PHE A   1       4.275  14.908  19.654  0.00  0.00    +0.000 A 
ATOM     40  CD2 PHE A   1       3.207  15.028  20.542  0.00  0.00    +0.000 A 
ENDBRANCH  34  35
ENDBRANCH  29  34
ENDBRANCH  27  29
ENDBRANCH   5  25
TORSDOF 9
ENDMDL
MODEL 6
REMARK VINA RESULT:      -7.8      1.259      1.759
REMARK  Name = 
REMARK  12 active torsions:
REMARK  status: ('A' for Active; 'I' for Inactive)
REMARK    1  A    between atoms: C_1  and  O_2
REMARK    2  A    between atoms: O_2  and  C_3
REMARK    3  A    between atoms: C_3  and  C_5
REMARK    4  A    between atoms: C_12  and  C_13
REMARK    5  A    between atoms: C_15  and  C_16
REMARK    6  A    between atoms: C_17  and  C_18
REMARK    7  A    between atoms: N_20  and  CA_21
REMARK    8  A    between atoms: CA_21  and  CB_22
REMARK    9  A    between atoms: CA_21  and  C_29
REMARK   10  A    between atoms: CB_22  and  CG_23
REMARK   11  A    between atoms: C_29  and  OXT_31
REMARK   12  A    between atoms: C_32  and  C_33
REMARK                            x       y       z     vdW  Elec       q    Type
REMARK                         _______ _______ _______ _____ _____    ______ ____
ROOT
ATOM      1  C   UNK A   0       0.698  10.293  18.595  0.00  0.00    +0.000 A 
ATOM      2  N   UNK A   0       1.104  11.175  19.549  0.00  0.00    +0.000 N 
ATOM      3  C   UNK A   0       0.032  11.875  20.057  0.00  0.00    +0.000 A 
ATOM      4  C   UNK A   0       0.281  12.759  21.227  0.00  0.00    +0.000 C 
ATOM      5  C   UNK A   0      -1.094  11.541  19.301  0.00  0.00    +0.000 A 
ATOM      6  C   UNK A   0      -0.654  10.488  18.387  0.00  0.00    +0.000 A 
ATOM      7  C   UNK A   0      -1.479   9.680  17.441  0.00  0.00    +0.000 C 
ATOM      8  H   UNK A   0       2.049  11.232  19.905  0.00  0.00    +0.000 HD
ENDROOT
BRANCH   1  16
ATOM      9  C   UNK A   0       4.718   6.032  17.220  0.00  0.00    +0.000 A 
ATOM     10  C   UNK A   0       4.706   5.078  18.267  0.00  0.00    +0.000 A 
ATOM     11  C   UNK A   0       3.874   5.235  19.374  0.00  0.00    +0.000 A 
ATOM     12  C   UNK A   0       3.064   6.348  19.401  0.00  0.00    +0.000 A 
ATOM     13  C   UNK A   0       3.038   7.298  18.371  0.00  0.00    +0.000 A 
ATOM     14  C   UNK A   0       3.868   7.156  17.270  0.00  0.00    +0.000 A 
ATOM     15  C   UNK A   0       2.057   8.313  18.793  0.00  0.00    +0.000 C 
ATOM     16  C   UNK A   0       1.655   9.382  18.085  0.00  0.00    +0.000 C 
ATOM     17  C   UNK A   0       1.568   7.910  20.168  0.00  0.00    +0.000 C 
ATOM     18  O   UNK A   0       0.816   8.489  20.925  0.00  0.00    +0.000 OA
ATOM     19  N   UNK A   0       2.206   6.707  20.429  0.00  0.00    +0.000 N 
ATOM     20  H   UNK A   0       2.067   6.203  21.290  0.00  0.00    +0.000 HD
BRANCH   9  21
ATOM     21  C   UNK A   0       5.668   5.788  16.098  0.00  0.00    +0.000 C 
ATOM     22  O   UNK A   0       6.755   6.337  16.011  0.00  0.00    +0.000 OA
BRANCH  21  24
ATOM     23  C   UNK A   0       6.119   3.997  14.682  0.00  0.00    +0.000 C 
ATOM     24  O   UNK A   0       5.150   4.911  15.203  0.00  0.00    +0.000 OA
ENDBRANCH  21  24
ENDBRANCH   9  21
ENDBRANCH   1  16
BRANCH   5  25
ATOM     25  C   UNK A   0      -2.471  12.059  19.357  0.00  0.00    +0.000 C 
ATOM     26  O   UNK A   0      -3.257  11.939  18.414  0.00  0.00    +0.000 OA
ATOM     27  N   PHE A   1      -2.954  12.637  20.511  0.00  0.00    +0.000 N 
ATOM     28  H   PHE A   1      -2.426  12.561  21.367  0.00  0.00    +0.000 HD
BRANCH  27  29
ATOM     29  CA  PHE A   1      -4.325  13.200  20.541  0.00  0.00    +0.000 C 
BRANCH  29  30
ATOM     30  C   PHE A   1      -5.223  12.433  21.530  0.00  0.00    +0.000 C 
ATOM     31  O   PHE A   1      -5.150  12.529  22.751  0.00  0.00    +0.000 OA
BRANCH  30  32
ATOM     32  OXT PHE A   1      -6.190  11.705  20.929  0.00  0.00    +0.000 OA
ATOM     33  HXT PHE A   1      -7.080  11.831  21.350  0.00  0.00    +0.000 HD
ENDBRANCH  30  32
ENDBRANCH  29  30
BRANCH  29  34
ATOM     34  CB  PHE A   1      -4.385  14.712  20.828  0.00  0.00    +0.000 C 
BRANCH  34  35
ATOM     35  CG  PHE A   1      -3.146  15.321  21.446  0.00  0.00    +0.000 A 
ATOM     36  CD1 PHE A   1      -2.875  15.258  22.820  0.00  0.00    +0.000 A 
ATOM     37  CE1 PHE A   1      -1.806  15.969  23.364  0.00  0.00    +0.000 A 
ATOM     38  CZ  PHE A   1      -0.961  16.701  22.535  0.00  0.00    +0.000 A 
ATOM     39  CE2 PHE A   1      -1.155  16.682  21.156  0.00  0.00    +0.000 A 
ATOM     40  CD2 PHE A   1      -2.237  15.988  20.613  0.00  0.00    +0.000 A 
ENDBRANCH  34  35
ENDBRANCH  29  34
ENDBRANCH  27  29
ENDBRANCH   5  25
TORSDOF 9
ENDMDL
MODEL 7
REMARK VINA RESULT:      -7.8      1.671      2.855
REMARK  Name = 
REMARK  12 active torsions:
REMARK  status: ('A' for Active; 'I' for Inactive)
REMARK    1  A    between atoms: C_1  and  O_2
REMARK    2  A    between atoms: O_2  and  C_3
REMARK    3  A    between atoms: C_3  and  C_5
REMARK    4  A    between atoms: C_12  and  C_13
REMARK    5  A    between atoms: C_15  and  C_16
REMARK    6  A    between atoms: C_17  and  C_18
REMARK    7  A    between atoms: N_20  and  CA_21
REMARK    8  A    between atoms: CA_21  and  CB_22
REMARK    9  A    between atoms: CA_21  and  C_29
REMARK   10  A    between atoms: CB_22  and  CG_23
REMARK   11  A    between atoms: C_29  and  OXT_31
REMARK   12  A    between atoms: C_32  and  C_33
REMARK                            x       y       z     vdW  Elec       q    Type
REMARK                         _______ _______ _______ _____ _____    ______ ____
ROOT
ATOM      1  C   UNK A   0       0.333  10.474  18.660  0.00  0.00    +0.000 A 
ATOM      2  N   UNK A   0       0.692  11.413  19.578  0.00  0.00    +0.000 N 
ATOM      3  C   UNK A   0      -0.415  12.072  20.064  0.00  0.00    +0.000 A 
ATOM      4  C   UNK A   0      -0.212  13.012  21.199  0.00  0.00    +0.000 C 
ATOM      5  C   UNK A   0      -1.523  11.648  19.327  0.00  0.00    +0.000 A 
ATOM      6  C   UNK A   0      -1.029  10.587  18.451  0.00  0.00    +0.000 A 
ATOM      7  C   UNK A   0      -1.811   9.700  17.541  0.00  0.00    +0.000 C 
ATOM      8  H   UNK A   0       1.634  11.536  19.927  0.00  0.00    +0.000 HD
ENDROOT
BRANCH   1  16
ATOM      9  C   UNK A   0       4.551   6.368  17.414  0.00  0.00    +0.000 A 
ATOM     10  C   UNK A   0       4.554   5.423  18.469  0.00  0.00    +0.000 A 
ATOM     11  C   UNK A   0       3.691   5.556  19.557  0.00  0.00    +0.000 A 
ATOM     12  C   UNK A   0       2.837   6.636  19.555  0.00  0.00    +0.000 A 
ATOM     13  C   UNK A   0       2.796   7.575  18.516  0.00  0.00    +0.000 A 
ATOM     14  C   UNK A   0       3.655   7.457  17.435  0.00  0.00    +0.000 A 
ATOM     15  C   UNK A   0       1.765   8.553  18.906  0.00  0.00    +0.000 C 
ATOM     16  C   UNK A   0       1.336   9.598  18.179  0.00  0.00    +0.000 C 
ATOM     17  C   UNK A   0       1.262   8.142  20.274  0.00  0.00    +0.000 C 
ATOM     18  O   UNK A   0       0.470   8.696  21.009  0.00  0.00    +0.000 OA
ATOM     19  N   UNK A   0       1.942   6.968  20.560  0.00  0.00    +0.000 N 
ATOM     20  H   UNK A   0       1.804   6.466  21.423  0.00  0.00    +0.000 HD
BRANCH   9  21
ATOM     21  C   UNK A   0       5.535   6.154  16.316  0.00  0.00    +0.000 C 
ATOM     22  O   UNK A   0       6.598   6.749  16.246  0.00  0.00    +0.000 OA
BRANCH  21  24
ATOM     23  C   UNK A   0       6.119   4.532  14.752  0.00  0.00    +0.000 C 
ATOM     24  O   UNK A   0       5.075   5.245  15.420  0.00  0.00    +0.000 OA
ENDBRANCH  21  24
ENDBRANCH   9  21
ENDBRANCH   1  16
BRANCH   5  25
ATOM     25  C   UNK A   0      -2.927  12.091  19.371  0.00  0.00    +0.000 C 
ATOM     26  O   UNK A   0      -3.657  12.061  18.377  0.00  0.00    +0.000 OA
ATOM     27  N   PHE A   1      -3.497  12.491  20.560  0.00  0.00    +0.000 N 
ATOM     28  H   PHE A   1      -3.010  12.327  21.428  0.00  0.00    +0.000 HD
BRANCH  27  29
ATOM     29  CA  PHE A   1      -4.895  12.983  20.584  0.00  0.00    +0.000 C 
BRANCH  29  30
ATOM     30  C   PHE A   1      -5.671  12.405  21.782  0.00  0.00    +0.000 C 
ATOM     31  O   PHE A   1      -6.753  11.834  21.699  0.00  0.00    +0.000 OA
BRANCH  30  32
ATOM     32  OXT PHE A   1      -4.999  12.488  22.953  0.00  0.00    +0.000 OA
ATOM     33  HXT PHE A   1      -4.953  11.620  23.429  0.00  0.00    +0.000 HD
ENDBRANCH  30  32
ENDBRANCH  29  30
BRANCH  29  34
ATOM     34  CB  PHE A   1      -5.030  14.517  20.552  0.00  0.00    +0.000 C 
BRANCH  34  35
ATOM     35  CG  PHE A   1      -5.876  15.087  19.434  0.00  0.00    +0.000 A 
ATOM     36  CD1 PHE A   1      -6.489  14.283  18.463  0.00  0.00    +0.000 A 
ATOM     37  CE1 PHE A   1      -7.123  14.862  17.364  0.00  0.00    +0.000 A 
ATOM     38  CZ  PHE A   1      -7.206  16.246  17.254  0.00  0.00    +0.000 A 
ATOM     39  CE2 PHE A   1      -6.697  17.053  18.270  0.00  0.00    +0.000 A 
ATOM     40  CD2 PHE A   1      -6.043  16.477  19.358  0.00  0.00    +0.000 A 
ENDBRANCH  34  35
ENDBRANCH  29  34
ENDBRANCH  27  29
ENDBRANCH   5  25
TORSDOF 9
ENDMDL
MODEL 8
REMARK VINA RESULT:      -7.8      1.327      1.955
REMARK  Name = 
REMARK  12 active torsions:
REMARK  status: ('A' for Active; 'I' for Inactive)
REMARK    1  A    between atoms: C_1  and  O_2
REMARK    2  A    between atoms: O_2  and  C_3
REMARK    3  A    between atoms: C_3  and  C_5
REMARK    4  A    between atoms: C_12  and  C_13
REMARK    5  A    between atoms: C_15  and  C_16
REMARK    6  A    between atoms: C_17  and  C_18
REMARK    7  A    between atoms: N_20  and  CA_21
REMARK    8  A    between atoms: CA_21  and  CB_22
REMARK    9  A    between atoms: CA_21  and  C_29
REMARK   10  A    between atoms: CB_22  and  CG_23
REMARK   11  A    between atoms: C_29  and  OXT_31
REMARK   12  A    between atoms: C_32  and  C_33
REMARK                            x       y       z     vdW  Elec       q    Type
REMARK                         _______ _______ _______ _____ _____    ______ ____
ROOT
ATOM      1  C   UNK A   0       0.493  10.564  18.769  0.00  0.00    +0.000 A 
ATOM      2  N   UNK A   0       0.948  11.510  19.635  0.00  0.00    +0.000 N 
ATOM      3  C   UNK A   0      -0.100  12.213  20.187  0.00  0.00    +0.000 A 
ATOM      4  C   UNK A   0       0.215  13.170  21.283  0.00  0.00    +0.000 C 
ATOM      5  C   UNK A   0      -1.273  11.808  19.544  0.00  0.00    +0.000 A 
ATOM      6  C   UNK A   0      -0.877  10.715  18.659  0.00  0.00    +0.000 A 
ATOM      7  C   UNK A   0      -1.750   9.833  17.830  0.00  0.00    +0.000 C 
ATOM      8  H   UNK A   0       1.916  11.611  19.911  0.00  0.00    +0.000 HD
ENDROOT
BRANCH   1  16
ATOM      9  C   UNK A   0       4.443   6.272  17.291  0.00  0.00    +0.000 A 
ATOM     10  C   UNK A   0       4.432   5.305  18.326  0.00  0.00    +0.000 A 
ATOM     11  C   UNK A   0       3.615   5.459  19.446  0.00  0.00    +0.000 A 
ATOM     12  C   UNK A   0       2.820   6.581  19.497  0.00  0.00    +0.000 A 
ATOM     13  C   UNK A   0       2.793   7.544  18.479  0.00  0.00    +0.000 A 
ATOM     14  C   UNK A   0       3.607   7.406  17.366  0.00  0.00    +0.000 A 
ATOM     15  C   UNK A   0       1.829   8.565  18.925  0.00  0.00    +0.000 C 
ATOM     16  C   UNK A   0       1.432   9.648  18.235  0.00  0.00    +0.000 C 
ATOM     17  C   UNK A   0       1.352   8.152  20.301  0.00  0.00    +0.000 C 
ATOM     18  O   UNK A   0       0.617   8.730  21.075  0.00  0.00    +0.000 OA
ATOM     19  N   UNK A   0       1.979   6.938  20.539  0.00  0.00    +0.000 N 
ATOM     20  H   UNK A   0       1.844   6.425  21.396  0.00  0.00    +0.000 HD
BRANCH   9  21
ATOM     21  C   UNK A   0       5.376   6.031  16.155  0.00  0.00    +0.000 C 
ATOM     22  O   UNK A   0       5.267   6.584  15.072  0.00  0.00    +0.000 OA
BRANCH  21  24
ATOM     23  C   UNK A   0       6.634   4.217  15.418  0.00  0.00    +0.000 C 
ATOM     24  O   UNK A   0       6.319   5.115  16.486  0.00  0.00    +0.000 OA
ENDBRANCH  21  24
ENDBRANCH   9  21
ENDBRANCH   1  16
BRANCH   5  25
ATOM     25  C   UNK A   0      -2.655  12.296  19.683  0.00  0.00    +0.000 C 
ATOM     26  O   UNK A   0      -3.464  12.250  18.752  0.00  0.00    +0.000 OA
ATOM     27  N   PHE A   1      -3.117  12.758  20.895  0.00  0.00    +0.000 N 
ATOM     28  H   PHE A   1      -2.565  12.613  21.728  0.00  0.00    +0.000 HD
BRANCH  27  29
ATOM     29  CA  PHE A   1      -4.494  13.293  21.011  0.00  0.00    +0.000 C 
BRANCH  29  30
ATOM     30  C   PHE A   1      -5.273  12.593  22.141  0.00  0.00    +0.000 C 
ATOM     31  O   PHE A   1      -6.435  12.212  22.050  0.00  0.00    +0.000 OA
BRANCH  30  32
ATOM     32  OXT PHE A   1      -4.522  12.334  23.235  0.00  0.00    +0.000 OA
ATOM     33  HXT PHE A   1      -4.637  11.407  23.565  0.00  0.00    +0.000 HD
ENDBRANCH  30  32
ENDBRANCH  29  30
BRANCH  29  34
ATOM     34  CB  PHE A   1      -4.570  14.822  21.179  0.00  0.00    +0.000 C 
BRANCH  34  35
ATOM     35  CG  PHE A   1      -3.270  15.521  21.508  0.00  0.00    +0.000 A 
ATOM     36  CD1 PHE A   1      -2.454  16.104  20.529  0.00  0.00    +0.000 A 
ATOM     37  CE1 PHE A   1      -1.191  16.594  20.860  0.00  0.00    +0.000 A 
ATOM     38  CZ  PHE A   1      -0.754  16.562  22.181  0.00  0.00    +0.000 A 
ATOM     39  CE2 PHE A   1      -1.601  16.086  23.180  0.00  0.00    +0.000 A 
ATOM     40  CD2 PHE A   1      -2.855  15.576  22.847  0.00  0.00    +0.000 A 
ENDBRANCH  34  35
ENDBRANCH  29  34
ENDBRANCH  27  29
ENDBRANCH   5  25
TORSDOF 9
ENDMDL
MODEL 9
REMARK VINA RESULT:      -7.7      1.373      1.844
REMARK  Name = 
REMARK  12 active torsions:
REMARK  status: ('A' for Active; 'I' for Inactive)
REMARK    1  A    between atoms: C_1  and  O_2
REMARK    2  A    between atoms: O_2  and  C_3
REMARK    3  A    between atoms: C_3  and  C_5
REMARK    4  A    between atoms: C_12  and  C_13
REMARK    5  A    between atoms: C_15  and  C_16
REMARK    6  A    between atoms: C_17  and  C_18
REMARK    7  A    between atoms: N_20  and  CA_21
REMARK    8  A    between atoms: CA_21  and  CB_22
REMARK    9  A    between atoms: CA_21  and  C_29
REMARK   10  A    between atoms: CB_22  and  CG_23
REMARK   11  A    between atoms: C_29  and  OXT_31
REMARK   12  A    between atoms: C_32  and  C_33
REMARK                            x       y       z     vdW  Elec       q    Type
REMARK                         _______ _______ _______ _____ _____    ______ ____
ROOT
ATOM      1  C   UNK A   0       0.938  10.344  18.609  0.00  0.00    +0.000 A 
ATOM      2  N   UNK A   0       1.483  11.312  19.395  0.00  0.00    +0.000 N 
ATOM      3  C   UNK A   0       0.500  12.084  19.975  0.00  0.00    +0.000 A 
ATOM      4  C   UNK A   0       0.922  13.080  20.997  0.00  0.00    +0.000 C 
ATOM      5  C   UNK A   0      -0.726  11.695  19.429  0.00  0.00    +0.000 A 
ATOM      6  C   UNK A   0      -0.429  10.545  18.579  0.00  0.00    +0.000 A 
ATOM      7  C   UNK A   0      -1.387   9.659  17.853  0.00  0.00    +0.000 C 
ATOM      8  H   UNK A   0       2.471  11.387  19.603  0.00  0.00    +0.000 HD
ENDROOT
BRANCH   1  16
ATOM      9  C   UNK A   0       4.581   5.800  17.095  0.00  0.00    +0.000 A 
ATOM     10  C   UNK A   0       4.539   4.850  18.145  0.00  0.00    +0.000 A 
ATOM     11  C   UNK A   0       3.764   5.068  19.283  0.00  0.00    +0.000 A 
ATOM     12  C   UNK A   0       3.039   6.238  19.337  0.00  0.00    +0.000 A 
ATOM     13  C   UNK A   0       3.043   7.187  18.305  0.00  0.00    +0.000 A 
ATOM     14  C   UNK A   0       3.818   6.983  17.174  0.00  0.00    +0.000 A 
ATOM     15  C   UNK A   0       2.155   8.270  18.761  0.00  0.00    +0.000 C 
ATOM     16  C   UNK A   0       1.805   9.365  18.065  0.00  0.00    +0.000 C 
ATOM     17  C   UNK A   0       1.691   7.905  20.155  0.00  0.00    +0.000 C 
ATOM     18  O   UNK A   0       1.013   8.538  20.939  0.00  0.00    +0.000 OA
ATOM     19  N   UNK A   0       2.250   6.659  20.395  0.00  0.00    +0.000 N 
ATOM     20  H   UNK A   0       2.107   6.167  21.263  0.00  0.00    +0.000 HD
BRANCH   9  21
ATOM     21  C   UNK A   0       5.467   5.488  15.939  0.00  0.00    +0.000 C 
ATOM     22  O   UNK A   0       6.307   6.263  15.512  0.00  0.00    +0.000 OA
BRANCH  21  24
ATOM     23  C   UNK A   0       5.863   3.995  14.198  0.00  0.00    +0.000 C 
ATOM     24  O   UNK A   0       5.191   4.261  15.432  0.00  0.00    +0.000 OA
ENDBRANCH  21  24
ENDBRANCH   9  21
ENDBRANCH   1  16
BRANCH   5  25
ATOM     25  C   UNK A   0      -2.077  12.244  19.629  0.00  0.00    +0.000 C 
ATOM     26  O   UNK A   0      -2.921  12.257  18.729  0.00  0.00    +0.000 OA
ATOM     27  N   PHE A   1      -2.471  12.701  20.868  0.00  0.00    +0.000 N 
ATOM     28  H   PHE A   1      -1.897  12.512  21.676  0.00  0.00    +0.000 HD
BRANCH  27  29
ATOM     29  CA  PHE A   1      -3.816  13.298  21.046  0.00  0.00    +0.000 C 
BRANCH  29  30
ATOM     30  C   PHE A   1      -4.622  12.548  22.123  0.00  0.00    +0.000 C 
ATOM     31  O   PHE A   1      -4.197  12.266  23.238  0.00  0.00    +0.000 OA
BRANCH  30  32
ATOM     32  OXT PHE A   1      -5.905  12.308  21.769  0.00  0.00    +0.000 OA
ATOM     33  HXT PHE A   1      -5.984  11.928  20.857  0.00  0.00    +0.000 HD
ENDBRANCH  30  32
ENDBRANCH  29  30
BRANCH  29  34
ATOM     34  CB  PHE A   1      -3.807  14.809  21.343  0.00  0.00    +0.000 C 
BRANCH  34  35
ATOM     35  CG  PHE A   1      -3.273  15.217  22.698  0.00  0.00    +0.000 A 
ATOM     36  CD1 PHE A   1      -1.930  15.050  23.066  0.00  0.00    +0.000 A 
ATOM     37  CE1 PHE A   1      -1.520  15.291  24.376  0.00  0.00    +0.000 A 
ATOM     38  CZ  PHE A   1      -2.431  15.760  25.318  0.00  0.00    +0.000 A 
ATOM     39  CE2 PHE A   1      -3.742  16.035  24.936  0.00  0.00    +0.000 A 
ATOM     40  CD2 PHE A   1      -4.159  15.774  23.631  0.00  0.00    +0.000 A 
ENDBRANCH  34  35
ENDBRANCH  29  34
ENDBRANCH  27  29
ENDBRANCH   5  25
TORSDOF 9
ENDMDL
