MODEL 1
REMARK VINA RESULT:      -8.2      0.000      0.000
REMARK  Name = 
REMARK  7 active torsions:
REMARK  status: ('A' for Active; 'I' for Inactive)
REMARK    1  A    between atoms: C_1  and  C_2
REMARK    2  A    between atoms: C_2  and  C_3
REMARK    3  A    between atoms: C_3  and  C_4
REMARK    4  A    between atoms: C_4  and  N_5
REMARK    5  A    between atoms: C_10  and  C_11
REMARK    6  A    between atoms: C_11  and  C_12
REMARK    7  A    between atoms: C_11  and  C_18
REMARK                            x       y       z     vdW  Elec       q    Type
REMARK                         _______ _______ _______ _____ _____    ______ ____
ROOT
ATOM      1  C   UNL     1       2.700   5.838  18.522  0.00  0.00    +0.000 C 
ENDROOT
BRANCH   1   7
ATOM      2  N   UNL     1       6.323   4.228  14.077  0.00  0.00    +0.000 NA
ATOM      3  C   UNL     1       6.160   5.272  14.805  0.00  0.00    +0.000 C 
ATOM      4  N   UNL     1       5.139   5.475  15.689  0.00  0.00    +0.000 N 
ATOM      5  C   UNL     1       4.774   6.794  16.183  0.00  0.00    +0.000 C 
ATOM      6  C   UNL     1       4.979   6.838  17.692  0.00  0.00    +0.000 C 
ATOM      7  C   UNL     1       4.263   5.682  18.433  0.00  0.00    +0.000 C 
ATOM      8  C   UNL     1       4.676   4.346  17.753  0.00  0.00    +0.000 C 
ATOM      9  C   UNL     1       4.394   4.361  16.250  0.00  0.00    +0.000 C 
BRANCH   2  10
ATOM     10  C   UNL     1       7.455   4.267  13.159  0.00  0.00    +0.000 C 
BRANCH  10  11
ATOM     11  C   UNL     1       7.007   3.737  11.804  0.00  0.00    +0.000 C 
BRANCH  11  13
ATOM     12  C   UNL     1       5.992   1.498  11.306  0.00  0.00    +0.000 C 
ATOM     13  C   UNL     1       5.775   2.852  11.955  0.00  0.00    +0.000 C 
ENDBRANCH  11  13
ENDBRANCH  10  11
ENDBRANCH   2  10
ENDBRANCH   1   7
BRANCH   1  14
ATOM     14  C   UNL     1       2.135   4.777  19.472  0.00  0.00    +0.000 A 
ATOM     15  C   UNL     1       2.620   4.656  20.793  0.00  0.00    +0.000 A 
ATOM     16  C   UNL     1       2.216   3.599  21.604  0.00  0.00    +0.000 A 
ATOM     17  C   UNL     1       1.311   2.657  21.123  0.00  0.00    +0.000 A 
ATOM     18  C   UNL     1       0.792   2.785  19.836  0.00  0.00    +0.000 A 
ATOM     19  C   UNL     1       1.197   3.840  19.018  0.00  0.00    +0.000 A 
ENDBRANCH   1  14
BRANCH   1  20
ATOM     20  C   UNL     1       2.168   7.228  18.877  0.00  0.00    +0.000 A 
ATOM     21  C   UNL     1       1.945   8.157  17.844  0.00  0.00    +0.000 A 
ATOM     22  C   UNL     1       1.440   9.430  18.114  0.00  0.00    +0.000 A 
ATOM     23  C   UNL     1       1.152   9.800  19.423  0.00  0.00    +0.000 A 
ATOM     24  C   UNL     1       1.357   8.892  20.459  0.00  0.00    +0.000 A 
ATOM     25  C   UNL     1       1.855   7.614  20.187  0.00  0.00    +0.000 A 
ENDBRANCH   1  20
TORSDOF 6
ENDMDL
MODEL 2
REMARK VINA RESULT:      -8.2      0.386      1.458
REMARK  Name = 
REMARK  7 active torsions:
REMARK  status: ('A' for Active; 'I' for Inactive)
REMARK    1  A    between atoms: C_1  and  C_2
REMARK    2  A    between atoms: C_2  and  C_3
REMARK    3  A    between atoms: C_3  and  C_4
REMARK    4  A    between atoms: C_4  and  N_5
REMARK    5  A    between atoms: C_10  and  C_11
REMARK    6  A    between atoms: C_11  and  C_12
REMARK    7  A    between atoms: C_11  and  C_18
REMARK                            x       y       z     vdW  Elec       q    Type
REMARK                         _______ _______ _______ _____ _____    ______ ____
ROOT
ATOM      1  C   UNL     1       2.762   5.918  18.525  0.00  0.00    +0.000 C 
ENDROOT
BRANCH   1   7
ATOM      2  N   UNL     1       6.337   4.023  14.154  0.00  0.00    +0.000 NA
ATOM      3  C   UNL     1       6.123   5.136  14.756  0.00  0.00    +0.000 C 
ATOM      4  N   UNL     1       5.121   5.376  15.653  0.00  0.00    +0.000 N 
ATOM      5  C   UNL     1       4.678   6.718  15.999  0.00  0.00    +0.000 C 
ATOM      6  C   UNL     1       4.931   6.962  17.482  0.00  0.00    +0.000 C 
ATOM      7  C   UNL     1       4.329   5.860  18.387  0.00  0.00    +0.000 C 
ATOM      8  C   UNL     1       4.814   4.482  17.857  0.00  0.00    +0.000 C 
ATOM      9  C   UNL     1       4.481   4.291  16.376  0.00  0.00    +0.000 C 
BRANCH   2  10
ATOM     10  C   UNL     1       7.430   4.027  13.189  0.00  0.00    +0.000 C 
BRANCH  10  11
ATOM     11  C   UNL     1       6.863   3.761  11.802  0.00  0.00    +0.000 C 
BRANCH  11  13
ATOM     12  C   UNL     1       4.443   3.261  11.369  0.00  0.00    +0.000 C 
ATOM     13  C   UNL     1       5.765   2.705  11.865  0.00  0.00    +0.000 C 
ENDBRANCH  11  13
ENDBRANCH  10  11
ENDBRANCH   2  10
ENDBRANCH   1   7
BRANCH   1  14
ATOM     14  C   UNL     1       2.285   4.768  19.417  0.00  0.00    +0.000 A 
ATOM     15  C   UNL     1       1.287   3.872  18.972  0.00  0.00    +0.000 A 
ATOM     16  C   UNL     1       0.748   2.924  19.836  0.00  0.00    +0.000 A 
ATOM     17  C   UNL     1       1.204   2.837  21.149  0.00  0.00    +0.000 A 
ATOM     18  C   UNL     1       2.217   3.686  21.592  0.00  0.00    +0.000 A 
ATOM     19  C   UNL     1       2.757   4.641  20.730  0.00  0.00    +0.000 A 
ENDBRANCH   1  14
BRANCH   1  20
ATOM     20  C   UNL     1       2.162   7.249  18.983  0.00  0.00    +0.000 A 
ATOM     21  C   UNL     1       1.841   7.420  20.342  0.00  0.00    +0.000 A 
ATOM     22  C   UNL     1       1.311   8.624  20.813  0.00  0.00    +0.000 A 
ATOM     23  C   UNL     1       1.090   9.677  19.933  0.00  0.00    +0.000 A 
ATOM     24  C   UNL     1       1.410   9.531  18.586  0.00  0.00    +0.000 A 
ATOM     25  C   UNL     1       1.948   8.329  18.116  0.00  0.00    +0.000 A 
ENDBRANCH   1  20
TORSDOF 6
ENDMDL
MODEL 3
REMARK VINA RESULT:      -7.8      0.341      1.039
REMARK  Name = 
REMARK  7 active torsions:
REMARK  status: ('A' for Active; 'I' for Inactive)
REMARK    1  A    between atoms: C_1  and  C_2
REMARK    2  A    between atoms: C_2  and  C_3
REMARK    3  A    between atoms: C_3  and  C_4
REMARK    4  A    between atoms: C_4  and  N_5
REMARK    5  A    between atoms: C_10  and  C_11
REMARK    6  A    between atoms: C_11  and  C_12
REMARK    7  A    between atoms: C_11  and  C_18
REMARK                            x       y       z     vdW  Elec       q    Type
REMARK                         _______ _______ _______ _____ _____    ______ ____
ROOT
ATOM      1  C   UNL     1       2.726   5.863  18.396  0.00  0.00    +0.000 C 
ENDROOT
BRANCH   1   7
ATOM      2  N   UNL     1       6.301   4.030  13.999  0.00  0.00    +0.000 NA
ATOM      3  C   UNL     1       6.146   5.109  14.676  0.00  0.00    +0.000 C 
ATOM      4  N   UNL     1       5.134   5.357  15.559  0.00  0.00    +0.000 N 
ATOM      5  C   UNL     1       4.776   6.699  15.991  0.00  0.00    +0.000 C 
ATOM      6  C   UNL     1       4.997   6.818  17.494  0.00  0.00    +0.000 C 
ATOM      7  C   UNL     1       4.288   5.701  18.298  0.00  0.00    +0.000 C 
ATOM      8  C   UNL     1       4.692   4.332  17.681  0.00  0.00    +0.000 C 
ATOM      9  C   UNL     1       4.395   4.273  16.182  0.00  0.00    +0.000 C 
BRANCH   2  10
ATOM     10  C   UNL     1       7.423   4.022  13.068  0.00  0.00    +0.000 C 
BRANCH  10  11
ATOM     11  C   UNL     1       6.919   3.602  11.694  0.00  0.00    +0.000 C 
BRANCH  11  13
ATOM     12  C   UNL     1       6.123   1.287  11.147  0.00  0.00    +0.000 C 
ATOM     13  C   UNL     1       7.335   2.168  11.387  0.00  0.00    +0.000 C 
ENDBRANCH  11  13
ENDBRANCH  10  11
ENDBRANCH   2  10
ENDBRANCH   1   7
BRANCH   1  14
ATOM     14  C   UNL     1       2.163   4.814  19.361  0.00  0.00    +0.000 A 
ATOM     15  C   UNL     1       2.631   4.729  20.691  0.00  0.00    +0.000 A 
ATOM     16  C   UNL     1       2.232   3.684  21.519  0.00  0.00    +0.000 A 
ATOM     17  C   UNL     1       1.349   2.718  21.046  0.00  0.00    +0.000 A 
ATOM     18  C   UNL     1       0.846   2.809  19.749  0.00  0.00    +0.000 A 
ATOM     19  C   UNL     1       1.247   3.853  18.914  0.00  0.00    +0.000 A 
ENDBRANCH   1  14
BRANCH   1  20
ATOM     20  C   UNL     1       2.201   7.258  18.739  0.00  0.00    +0.000 A 
ATOM     21  C   UNL     1       1.894   7.561  20.079  0.00  0.00    +0.000 A 
ATOM     22  C   UNL     1       1.433   8.827  20.446  0.00  0.00    +0.000 A 
ATOM     23  C   UNL     1       1.265   9.812  19.479  0.00  0.00    +0.000 A 
ATOM     24  C   UNL     1       1.572   9.536  18.149  0.00  0.00    +0.000 A 
ATOM     25  C   UNL     1       2.042   8.271  17.784  0.00  0.00    +0.000 A 
ENDBRANCH   1  20
TORSDOF 6
ENDMDL
MODEL 4
REMARK VINA RESULT:      -7.4      2.586      8.068
REMARK  Name = 
REMARK  7 active torsions:
REMARK  status: ('A' for Active; 'I' for Inactive)
REMARK    1  A    between atoms: C_1  and  C_2
REMARK    2  A    between atoms: C_2  and  C_3
REMARK    3  A    between atoms: C_3  and  C_4
REMARK    4  A    between atoms: C_4  and  N_5
REMARK    5  A    between atoms: C_10  and  C_11
REMARK    6  A    between atoms: C_11  and  C_12
REMARK    7  A    between atoms: C_11  and  C_18
REMARK                            x       y       z     vdW  Elec       q    Type
REMARK                         _______ _______ _______ _____ _____    ______ ____
ROOT
ATOM      1  C   UNL     1       3.811   5.122  17.125  0.00  0.00    +0.000 C 
ENDROOT
BRANCH   1   7
ATOM      2  N   UNL     1       0.885   9.525  19.869  0.00  0.00    +0.000 NA
ATOM      3  C   UNL     1       1.532   8.478  20.232  0.00  0.00    +0.000 C 
ATOM      4  N   UNL     1       2.005   7.505  19.398  0.00  0.00    +0.000 N 
ATOM      5  C   UNL     1       2.369   6.176  19.863  0.00  0.00    +0.000 C 
ATOM      6  C   UNL     1       3.855   5.947  19.615  0.00  0.00    +0.000 C 
ATOM      7  C   UNL     1       4.273   6.223  18.150  0.00  0.00    +0.000 C 
ATOM      8  C   UNL     1       3.752   7.635  17.759  0.00  0.00    +0.000 C 
ATOM      9  C   UNL     1       2.246   7.771  17.990  0.00  0.00    +0.000 C 
BRANCH   2  10
ATOM     10  C   UNL     1       0.423  10.388  20.948  0.00  0.00    +0.000 C 
BRANCH  10  11
ATOM     11  C   UNL     1      -0.453   9.573  21.889  0.00  0.00    +0.000 C 
BRANCH  11  13
ATOM     12  C   UNL     1      -1.619  11.478  23.031  0.00  0.00    +0.000 C 
ATOM     13  C   UNL     1      -0.662  10.314  23.205  0.00  0.00    +0.000 C 
ENDBRANCH  11  13
ENDBRANCH  10  11
ENDBRANCH   2  10
ENDBRANCH   1   7
BRANCH   1  14
ATOM     14  C   UNL     1       4.971   4.784  16.183  0.00  0.00    +0.000 A 
ATOM     15  C   UNL     1       6.306   5.077  16.543  0.00  0.00    +0.000 A 
ATOM     16  C   UNL     1       7.341   4.910  15.629  0.00  0.00    +0.000 A 
ATOM     17  C   UNL     1       7.072   4.431  14.350  0.00  0.00    +0.000 A 
ATOM     18  C   UNL     1       5.766   4.099  13.991  0.00  0.00    +0.000 A 
ATOM     19  C   UNL     1       4.725   4.269  14.904  0.00  0.00    +0.000 A 
ENDBRANCH   1  14
BRANCH   1  20
ATOM     20  C   UNL     1       3.197   3.851  17.713  0.00  0.00    +0.000 A 
ATOM     21  C   UNL     1       1.802   3.785  17.889  0.00  0.00    +0.000 A 
ATOM     22  C   UNL     1       1.192   2.639  18.402  0.00  0.00    +0.000 A 
ATOM     23  C   UNL     1       1.965   1.538  18.752  0.00  0.00    +0.000 A 
ATOM     24  C   UNL     1       3.346   1.579  18.577  0.00  0.00    +0.000 A 
ATOM     25  C   UNL     1       3.956   2.723  18.055  0.00  0.00    +0.000 A 
ENDBRANCH   1  20
TORSDOF 6
ENDMDL
MODEL 5
REMARK VINA RESULT:      -7.4      1.112      4.066
REMARK  Name = 
REMARK  7 active torsions:
REMARK  status: ('A' for Active; 'I' for Inactive)
REMARK    1  A    between atoms: C_1  and  C_2
REMARK    2  A    between atoms: C_2  and  C_3
REMARK    3  A    between atoms: C_3  and  C_4
REMARK    4  A    between atoms: C_4  and  N_5
REMARK    5  A    between atoms: C_10  and  C_11
REMARK    6  A    between atoms: C_11  and  C_12
REMARK    7  A    between atoms: C_11  and  C_18
REMARK                            x       y       z     vdW  Elec       q    Type
REMARK                         _______ _______ _______ _____ _____    ______ ____
ROOT
ATOM      1  C   UNL     1       2.539   6.456  19.550  0.00  0.00    +0.000 C 
ENDROOT
BRANCH   1   7
ATOM      2  N   UNL     1       6.584   5.430  15.301  0.00  0.00    +0.000 NA
ATOM      3  C   UNL     1       5.463   4.915  15.654  0.00  0.00    +0.000 C 
ATOM      4  N   UNL     1       4.764   5.229  16.784  0.00  0.00    +0.000 N 
ATOM      5  C   UNL     1       3.733   4.365  17.339  0.00  0.00    +0.000 C 
ATOM      6  C   UNL     1       2.397   5.097  17.311  0.00  0.00    +0.000 C 
ATOM      7  C   UNL     1       2.458   6.492  17.979  0.00  0.00    +0.000 C 
ATOM      8  C   UNL     1       3.648   7.274  17.354  0.00  0.00    +0.000 C 
ATOM      9  C   UNL     1       4.961   6.497  17.465  0.00  0.00    +0.000 C 
BRANCH   2  10
ATOM     10  C   UNL     1       7.175   4.886  14.084  0.00  0.00    +0.000 C 
BRANCH  10  11
ATOM     11  C   UNL     1       6.393   3.648  13.668  0.00  0.00    +0.000 C 
BRANCH  11  13
ATOM     12  C   UNL     1       4.864   3.127  11.749  0.00  0.00    +0.000 C 
ATOM     13  C   UNL     1       6.253   3.586  12.152  0.00  0.00    +0.000 C 
ENDBRANCH  11  13
ENDBRANCH  10  11
ENDBRANCH   2  10
ENDBRANCH   1   7
BRANCH   1  14
ATOM     14  C   UNL     1       1.756   7.638  20.129  0.00  0.00    +0.000 A 
ATOM     15  C   UNL     1       1.408   8.743  19.320  0.00  0.00    +0.000 A 
ATOM     16  C   UNL     1       0.833   9.880  19.878  0.00  0.00    +0.000 A 
ATOM     17  C   UNL     1       0.576   9.932  21.246  0.00  0.00    +0.000 A 
ATOM     18  C   UNL     1       0.876   8.835  22.052  0.00  0.00    +0.000 A 
ATOM     19  C   UNL     1       1.457   7.695  21.497  0.00  0.00    +0.000 A 
ENDBRANCH   1  14
BRANCH   1  20
ATOM     20  C   UNL     1       2.131   5.147  20.229  0.00  0.00    +0.000 A 
ATOM     21  C   UNL     1       0.930   4.523  19.842  0.00  0.00    +0.000 A 
ATOM     22  C   UNL     1       0.526   3.316  20.416  0.00  0.00    +0.000 A 
ATOM     23  C   UNL     1       1.312   2.712  21.390  0.00  0.00    +0.000 A 
ATOM     24  C   UNL     1       2.509   3.308  21.780  0.00  0.00    +0.000 A 
ATOM     25  C   UNL     1       2.918   4.512  21.199  0.00  0.00    +0.000 A 
ENDBRANCH   1  20
TORSDOF 6
ENDMDL
MODEL 6
REMARK VINA RESULT:      -7.3      2.558      7.865
REMARK  Name = 
REMARK  7 active torsions:
REMARK  status: ('A' for Active; 'I' for Inactive)
REMARK    1  A    between atoms: C_1  and  C_2
REMARK    2  A    between atoms: C_2  and  C_3
REMARK    3  A    between atoms: C_3  and  C_4
REMARK    4  A    between atoms: C_4  and  N_5
REMARK    5  A    between atoms: C_10  and  C_11
REMARK    6  A    between atoms: C_11  and  C_12
REMARK    7  A    between atoms: C_11  and  C_18
REMARK                            x       y       z     vdW  Elec       q    Type
REMARK                         _______ _______ _______ _____ _____    ______ ____
ROOT
ATOM      1  C   UNL     1       3.754   5.219  17.201  0.00  0.00    +0.000 C 
ENDROOT
BRANCH   1   7
ATOM      2  N   UNL     1       1.059  10.070  19.364  0.00  0.00    +0.000 NA
ATOM      3  C   UNL     1       1.530   8.980  19.850  0.00  0.00    +0.000 C 
ATOM      4  N   UNL     1       1.982   7.915  19.124  0.00  0.00    +0.000 N 
ATOM      5  C   UNL     1       2.128   6.582  19.689  0.00  0.00    +0.000 C 
ATOM      6  C   UNL     1       3.596   6.175  19.639  0.00  0.00    +0.000 C 
ATOM      7  C   UNL     1       4.215   6.319  18.228  0.00  0.00    +0.000 C 
ATOM      8  C   UNL     1       3.915   7.755  17.714  0.00  0.00    +0.000 C 
ATOM      9  C   UNL     1       2.419   8.071  17.748  0.00  0.00    +0.000 C 
BRANCH   2  10
ATOM     10  C   UNL     1       0.575  11.040  20.338  0.00  0.00    +0.000 C 
BRANCH  10  11
ATOM     11  C   UNL     1      -0.640  10.461  21.048  0.00  0.00    +0.000 C 
BRANCH  11  13
ATOM     12  C   UNL     1      -0.033   9.486  23.278  0.00  0.00    +0.000 C 
ATOM     13  C   UNL     1      -0.554  10.710  22.549  0.00  0.00    +0.000 C 
ENDBRANCH  11  13
ENDBRANCH  10  11
ENDBRANCH   2  10
ENDBRANCH   1   7
BRANCH   1  14
ATOM     14  C   UNL     1       4.925   4.853  16.285  0.00  0.00    +0.000 A 
ATOM     15  C   UNL     1       6.256   5.143  16.659  0.00  0.00    +0.000 A 
ATOM     16  C   UNL     1       7.304   4.950  15.764  0.00  0.00    +0.000 A 
ATOM     17  C   UNL     1       7.050   4.447  14.491  0.00  0.00    +0.000 A 
ATOM     18  C   UNL     1       5.748   4.117  14.120  0.00  0.00    +0.000 A 
ATOM     19  C   UNL     1       4.694   4.314  15.012  0.00  0.00    +0.000 A 
ENDBRANCH   1  14
BRANCH   1  20
ATOM     20  C   UNL     1       3.105   3.963  17.786  0.00  0.00    +0.000 A 
ATOM     21  C   UNL     1       3.930   2.938  18.286  0.00  0.00    +0.000 A 
ATOM     22  C   UNL     1       3.386   1.783  18.849  0.00  0.00    +0.000 A 
ATOM     23  C   UNL     1       2.006   1.628  18.921  0.00  0.00    +0.000 A 
ATOM     24  C   UNL     1       1.172   2.634  18.440  0.00  0.00    +0.000 A 
ATOM     25  C   UNL     1       1.717   3.795  17.884  0.00  0.00    +0.000 A 
ENDBRANCH   1  20
TORSDOF 6
ENDMDL
MODEL 7
REMARK VINA RESULT:      -7.2      1.090      4.020
REMARK  Name = 
REMARK  7 active torsions:
REMARK  status: ('A' for Active; 'I' for Inactive)
REMARK    1  A    between atoms: C_1  and  C_2
REMARK    2  A    between atoms: C_2  and  C_3
REMARK    3  A    between atoms: C_3  and  C_4
REMARK    4  A    between atoms: C_4  and  N_5
REMARK    5  A    between atoms: C_10  and  C_11
REMARK    6  A    between atoms: C_11  and  C_12
REMARK    7  A    between atoms: C_11  and  C_18
REMARK                            x       y       z     vdW  Elec       q    Type
REMARK                         _______ _______ _______ _____ _____    ______ ____
ROOT
ATOM      1  C   UNL     1       2.569   6.409  19.471  0.00  0.00    +0.000 C 
ENDROOT
BRANCH   1   7
ATOM      2  N   UNL     1       6.550   5.332  15.174  0.00  0.00    +0.000 NA
ATOM      3  C   UNL     1       5.422   4.837  15.535  0.00  0.00    +0.000 C 
ATOM      4  N   UNL     1       4.740   5.157  16.674  0.00  0.00    +0.000 N 
ATOM      5  C   UNL     1       3.697   4.310  17.232  0.00  0.00    +0.000 C 
ATOM      6  C   UNL     1       2.376   5.070  17.223  0.00  0.00    +0.000 C 
ATOM      7  C   UNL     1       2.473   6.458  17.901  0.00  0.00    +0.000 C 
ATOM      8  C   UNL     1       3.672   7.220  17.270  0.00  0.00    +0.000 C 
ATOM      9  C   UNL     1       4.970   6.416  17.362  0.00  0.00    +0.000 C 
BRANCH   2  10
ATOM     10  C   UNL     1       7.117   4.785  13.947  0.00  0.00    +0.000 C 
BRANCH  10  11
ATOM     11  C   UNL     1       6.369   3.510  13.585  0.00  0.00    +0.000 C 
BRANCH  11  13
ATOM     12  C   UNL     1       4.788   3.323  11.647  0.00  0.00    +0.000 C 
ATOM     13  C   UNL     1       6.243   3.372  12.072  0.00  0.00    +0.000 C 
ENDBRANCH  11  13
ENDBRANCH  10  11
ENDBRANCH   2  10
ENDBRANCH   1   7
BRANCH   1  14
ATOM     14  C   UNL     1       1.818   7.604  20.067  0.00  0.00    +0.000 A 
ATOM     15  C   UNL     1       1.311   7.558  21.384  0.00  0.00    +0.000 A 
ATOM     16  C   UNL     1       0.501   8.580  21.870  0.00  0.00    +0.000 A 
ATOM     17  C   UNL     1       0.196   9.671  21.063  0.00  0.00    +0.000 A 
ATOM     18  C   UNL     1       0.720   9.752  19.774  0.00  0.00    +0.000 A 
ATOM     19  C   UNL     1       1.529   8.728  19.281  0.00  0.00    +0.000 A 
ENDBRANCH   1  14
BRANCH   1  20
ATOM     20  C   UNL     1       2.139   5.104  20.144  0.00  0.00    +0.000 A 
ATOM     21  C   UNL     1       2.998   4.506  21.086  0.00  0.00    +0.000 A 
ATOM     22  C   UNL     1       2.641   3.327  21.742  0.00  0.00    +0.000 A 
ATOM     23  C   UNL     1       1.420   2.720  21.468  0.00  0.00    +0.000 A 
ATOM     24  C   UNL     1       0.552   3.300  20.546  0.00  0.00    +0.000 A 
ATOM     25  C   UNL     1       0.906   4.486  19.895  0.00  0.00    +0.000 A 
ENDBRANCH   1  20
TORSDOF 6
ENDMDL
MODEL 8
REMARK VINA RESULT:      -7.1      2.626      8.115
REMARK  Name = 
REMARK  7 active torsions:
REMARK  status: ('A' for Active; 'I' for Inactive)
REMARK    1  A    between atoms: C_1  and  C_2
REMARK    2  A    between atoms: C_2  and  C_3
REMARK    3  A    between atoms: C_3  and  C_4
REMARK    4  A    between atoms: C_4  and  N_5
REMARK    5  A    between atoms: C_10  and  C_11
REMARK    6  A    between atoms: C_11  and  C_12
REMARK    7  A    between atoms: C_11  and  C_18
REMARK                            x       y       z     vdW  Elec       q    Type
REMARK                         _______ _______ _______ _____ _____    ______ ____
ROOT
ATOM      1  C   UNL     1       3.734   5.423  17.204  0.00  0.00    +0.000 C 
ENDROOT
BRANCH   1   7
ATOM      2  N   UNL     1       0.642   9.904  19.619  0.00  0.00    +0.000 NA
ATOM      3  C   UNL     1       1.242   8.856  20.053  0.00  0.00    +0.000 C 
ATOM      4  N   UNL     1       1.772   7.865  19.277  0.00  0.00    +0.000 N 
ATOM      5  C   UNL     1       2.077   6.539  19.793  0.00  0.00    +0.000 C 
ATOM      6  C   UNL     1       3.576   6.288  19.676  0.00  0.00    +0.000 C 
ATOM      7  C   UNL     1       4.120   6.536  18.248  0.00  0.00    +0.000 C 
ATOM      8  C   UNL     1       3.653   7.947  17.792  0.00  0.00    +0.000 C 
ATOM      9  C   UNL     1       2.135   8.104  17.891  0.00  0.00    +0.000 C 
BRANCH   2  10
ATOM     10  C   UNL     1       0.100  10.791  20.642  0.00  0.00    +0.000 C 
BRANCH  10  11
ATOM     11  C   UNL     1       0.470  10.244  22.013  0.00  0.00    +0.000 C 
BRANCH  11  13
ATOM     12  C   UNL     1      -1.356  11.617  23.048  0.00  0.00    +0.000 C 
ATOM     13  C   UNL     1      -0.745  10.233  22.933  0.00  0.00    +0.000 C 
ENDBRANCH  11  13
ENDBRANCH  10  11
ENDBRANCH   2  10
ENDBRANCH   1   7
BRANCH   1  14
ATOM     14  C   UNL     1       4.912   5.183  16.255  0.00  0.00    +0.000 A 
ATOM     15  C   UNL     1       4.738   4.462  15.052  0.00  0.00    +0.000 A 
ATOM     16  C   UNL     1       5.833   4.114  14.267  0.00  0.00    +0.000 A 
ATOM     17  C   UNL     1       7.116   4.492  14.654  0.00  0.00    +0.000 A 
ATOM     18  C   UNL     1       7.301   5.238  15.817  0.00  0.00    +0.000 A 
ATOM     19  C   UNL     1       6.206   5.585  16.609  0.00  0.00    +0.000 A 
ENDBRANCH   1  14
BRANCH   1  20
ATOM     20  C   UNL     1       3.212   4.102  17.772  0.00  0.00    +0.000 A 
ATOM     21  C   UNL     1       4.122   3.205  18.361  0.00  0.00    +0.000 A 
ATOM     22  C   UNL     1       3.691   1.996  18.912  0.00  0.00    +0.000 A 
ATOM     23  C   UNL     1       2.343   1.660  18.881  0.00  0.00    +0.000 A 
ATOM     24  C   UNL     1       1.424   2.538  18.311  0.00  0.00    +0.000 A 
ATOM     25  C   UNL     1       1.855   3.752  17.767  0.00  0.00    +0.000 A 
ENDBRANCH   1  20
TORSDOF 6
ENDMDL
MODEL 9
REMARK VINA RESULT:      -7.1      2.549      7.782
REMARK  Name = 
REMARK  7 active torsions:
REMARK  status: ('A' for Active; 'I' for Inactive)
REMARK    1  A    between atoms: C_1  and  C_2
REMARK    2  A    between atoms: C_2  and  C_3
REMARK    3  A    between atoms: C_3  and  C_4
REMARK    4  A    between atoms: C_4  and  N_5
REMARK    5  A    between atoms: C_10  and  C_11
REMARK    6  A    between atoms: C_11  and  C_12
REMARK    7  A    between atoms: C_11  and  C_18
REMARK                            x       y       z     vdW  Elec       q    Type
REMARK                         _______ _______ _______ _____ _____    ______ ____
ROOT
ATOM      1  C   UNL     1       3.778   5.161  17.167  0.00  0.00    +0.000 C 
ENDROOT
BRANCH   1   7
ATOM      2  N   UNL     1       0.930   9.646  19.860  0.00  0.00    +0.000 NA
ATOM      3  C   UNL     1       1.523   8.570  20.233  0.00  0.00    +0.000 C 
ATOM      4  N   UNL     1       1.987   7.589  19.404  0.00  0.00    +0.000 N 
ATOM      5  C   UNL     1       2.283   6.241  19.866  0.00  0.00    +0.000 C 
ATOM      6  C   UNL     1       3.766   5.956  19.667  0.00  0.00    +0.000 C 
ATOM      7  C   UNL     1       4.245   6.232  18.221  0.00  0.00    +0.000 C 
ATOM      8  C   UNL     1       3.794   7.667  17.828  0.00  0.00    +0.000 C 
ATOM      9  C   UNL     1       2.287   7.860  18.009  0.00  0.00    +0.000 C 
BRANCH   2  10
ATOM     10  C   UNL     1       0.465  10.515  20.934  0.00  0.00    +0.000 C 
BRANCH  10  11
ATOM     11  C   UNL     1      -0.457  11.573  20.344  0.00  0.00    +0.000 C 
BRANCH  11  13
ATOM     12  C   UNL     1      -2.506  11.875  18.929  0.00  0.00    +0.000 C 
ATOM     13  C   UNL     1      -1.325  10.976  19.242  0.00  0.00    +0.000 C 
ENDBRANCH  11  13
ENDBRANCH  10  11
ENDBRANCH   2  10
ENDBRANCH   1   7
BRANCH   1  14
ATOM     14  C   UNL     1       4.949   4.805  16.246  0.00  0.00    +0.000 A 
ATOM     15  C   UNL     1       6.283   5.052  16.642  0.00  0.00    +0.000 A 
ATOM     16  C   UNL     1       7.335   4.871  15.749  0.00  0.00    +0.000 A 
ATOM     17  C   UNL     1       7.081   4.424  14.456  0.00  0.00    +0.000 A 
ATOM     18  C   UNL     1       5.776   4.137  14.061  0.00  0.00    +0.000 A 
ATOM     19  C   UNL     1       4.718   4.321  14.952  0.00  0.00    +0.000 A 
ENDBRANCH   1  14
BRANCH   1  20
ATOM     20  C   UNL     1       3.115   3.898  17.720  0.00  0.00    +0.000 A 
ATOM     21  C   UNL     1       3.927   2.817  18.114  0.00  0.00    +0.000 A 
ATOM     22  C   UNL     1       3.372   1.652  18.645  0.00  0.00    +0.000 A 
ATOM     23  C   UNL     1       1.993   1.542  18.789  0.00  0.00    +0.000 A 
ATOM     24  C   UNL     1       1.172   2.603  18.414  0.00  0.00    +0.000 A 
ATOM     25  C   UNL     1       1.730   3.774  17.890  0.00  0.00    +0.000 A 
ENDBRANCH   1  20
TORSDOF 6
ENDMDL
