MODEL 1
REMARK VINA RESULT:      -8.7      0.000      0.000
REMARK  Name = 
REMARK  9 active torsions:
REMARK  status: ('A' for Active; 'I' for Inactive)
REMARK    1  A    between atoms: C_1  and  C_2
REMARK    2  A    between atoms: C_7  and  O_8
REMARK    3  A    between atoms: C_9  and  C_10
REMARK    4  A    between atoms: C_10  and  N_11
REMARK    5  A    between atoms: C_14  and  N_15
REMARK    6  A    between atoms: C_23  and  O_24
REMARK    7  A    between atoms: C_25  and  C_26
REMARK    8  A    between atoms: N_29  and  C_30
REMARK    9  A    between atoms: C_32  and  O_33
REMARK                            x       y       z     vdW  Elec       q    Type
REMARK                         _______ _______ _______ _____ _____    ______ ____
ROOT
ATOM      1  C   UNL     1      -2.995  12.759  22.385  0.00  0.00    +0.000 C 
ATOM      2  C   UNL     1      -1.907  11.751  22.143  0.00  0.00    +0.000 A 
ATOM      3  C   UNL     1      -1.317  11.097  23.154  0.00  0.00    +0.000 A 
ATOM      4  C   UNL     1      -0.280  10.105  22.837  0.00  0.00    +0.000 A 
ATOM      5  O   UNL     1       0.176   9.371  23.707  0.00  0.00    +0.000 OA
ATOM      6  C   UNL     1       0.138   9.973  21.442  0.00  0.00    +0.000 A 
ATOM      7  C   UNL     1       1.158   9.072  21.060  0.00  0.00    +0.000 A 
ATOM      8  C   UNL     1       1.504   8.852  19.711  0.00  0.00    +0.000 A 
ATOM      9  C   UNL     1       0.664   9.445  18.773  0.00  0.00    +0.000 A 
ATOM     10  C   UNL     1      -0.436  10.279  19.144  0.00  0.00    +0.000 A 
ATOM     11  C   UNL     1      -0.614  10.638  20.482  0.00  0.00    +0.000 A 
ATOM     12  O   UNL     1      -1.602  11.540  20.807  0.00  0.00    +0.000 OA
ENDROOT
BRANCH  10  13
ATOM     13  C   UNL     1      -1.542  10.436  18.124  0.00  0.00    +0.000 C 
ATOM     14  C   UNL     1      -2.821   9.609  18.292  0.00  0.00    +0.000 C 
ATOM     15  C   UNL     1      -3.427   9.461  16.891  0.00  0.00    +0.000 C 
ATOM     16  N   UNL     1      -3.598  10.740  16.161  0.00  0.00    +0.000 NA
ATOM     17  C   UNL     1      -3.866  10.440  14.746  0.00  0.00    +0.000 C 
ATOM     18  C   UNL     1      -2.423  11.655  16.218  0.00  0.00    +0.000 C 
ATOM     19  C   UNL     1      -1.903  11.844  17.658  0.00  0.00    +0.000 C 
BRANCH  19  20
ATOM     20  O   UNL     1      -2.943  12.433  18.446  0.00  0.00    +0.000 OA
ATOM     21  H   UNL     1      -2.545  13.228  18.858  0.00  0.00    +0.000 HD
ENDBRANCH  19  20
ENDBRANCH  10  13
BRANCH   7  22
ATOM     22  O   UNL     1       1.795   8.296  22.003  0.00  0.00    +0.000 OA
ATOM     23  H   UNL     1       1.723   7.354  21.720  0.00  0.00    +0.000 HD
ENDBRANCH   7  22
BRANCH   9  24
ATOM     24  O   UNL     1       0.784   9.121  17.442  0.00  0.00    +0.000 OA
ATOM     25  H   UNL     1       1.613   8.602  17.340  0.00  0.00    +0.000 HD
ENDBRANCH   9  24
BRANCH   8  26
ATOM     26  C   UNL     1       2.611   7.852  19.413  0.00  0.00    +0.000 C 
BRANCH  26  27
ATOM     27  N   UNL     1       2.303   6.380  19.261  0.00  0.00    +0.000 NA
ATOM     28  C   UNL     1       2.332   5.971  17.839  0.00  0.00    +0.000 C 
ATOM     29  C   UNL     1       2.356   4.448  17.635  0.00  0.00    +0.000 C 
ATOM     30  C   UNL     1       3.509   3.705  18.335  0.00  0.00    +0.000 C 
ATOM     31  C   UNL     1       3.530   4.163  19.803  0.00  0.00    +0.000 C 
ATOM     32  C   UNL     1       3.379   5.673  20.019  0.00  0.00    +0.000 C 
BRANCH  30  33
ATOM     33  N   UNL     1       4.842   3.664  17.659  0.00  0.00    +0.000 NA
ATOM     34  C   UNL     1       4.715   3.916  16.209  0.00  0.00    +0.000 C 
ATOM     35  C   UNL     1       6.051   3.930  15.461  0.00  0.00    +0.000 C 
ATOM     36  C   UNL     1       7.002   4.935  16.086  0.00  0.00    +0.000 C 
ATOM     37  C   UNL     1       7.214   4.564  17.543  0.00  0.00    +0.000 C 
ATOM     38  C   UNL     1       5.884   4.474  18.290  0.00  0.00    +0.000 C 
ENDBRANCH  30  33
ENDBRANCH  26  27
ENDBRANCH   8  26
TORSDOF 7
ENDMDL
MODEL 2
REMARK VINA RESULT:      -7.7      2.953      5.164
REMARK  Name = 
REMARK  9 active torsions:
REMARK  status: ('A' for Active; 'I' for Inactive)
REMARK    1  A    between atoms: C_1  and  C_2
REMARK    2  A    between atoms: C_7  and  O_8
REMARK    3  A    between atoms: C_9  and  C_10
REMARK    4  A    between atoms: C_10  and  N_11
REMARK    5  A    between atoms: C_14  and  N_15
REMARK    6  A    between atoms: C_23  and  O_24
REMARK    7  A    between atoms: C_25  and  C_26
REMARK    8  A    between atoms: N_29  and  C_30
REMARK    9  A    between atoms: C_32  and  O_33
REMARK                            x       y       z     vdW  Elec       q    Type
REMARK                         _______ _______ _______ _____ _____    ______ ____
ROOT
ATOM      1  C   UNL     1      -5.725  13.522  20.347  0.00  0.00    +0.000 C 
ATOM      2  C   UNL     1      -4.685  12.698  19.643  0.00  0.00    +0.000 A 
ATOM      3  C   UNL     1      -4.989  11.944  18.576  0.00  0.00    +0.000 A 
ATOM      4  C   UNL     1      -3.912  11.188  17.922  0.00  0.00    +0.000 A 
ATOM      5  O   UNL     1      -4.105  10.613  16.857  0.00  0.00    +0.000 OA
ATOM      6  C   UNL     1      -2.588  11.203  18.545  0.00  0.00    +0.000 A 
ATOM      7  C   UNL     1      -1.510  10.468  18.002  0.00  0.00    +0.000 A 
ATOM      8  C   UNL     1      -0.204  10.551  18.524  0.00  0.00    +0.000 A 
ATOM      9  C   UNL     1      -0.005  11.529  19.493  0.00  0.00    +0.000 A 
ATOM     10  C   UNL     1      -1.067  12.353  19.982  0.00  0.00    +0.000 A 
ATOM     11  C   UNL     1      -2.383  12.094  19.590  0.00  0.00    +0.000 A 
ATOM     12  O   UNL     1      -3.406  12.815  20.164  0.00  0.00    +0.000 OA
ENDROOT
BRANCH  10  13
ATOM     13  C   UNL     1      -0.669  13.668  20.614  0.00  0.00    +0.000 C 
ATOM     14  C   UNL     1      -0.812  14.953  19.792  0.00  0.00    +0.000 C 
ATOM     15  C   UNL     1       0.204  15.948  20.364  0.00  0.00    +0.000 C 
ATOM     16  N   UNL     1       0.120  16.130  21.833  0.00  0.00    +0.000 NA
ATOM     17  C   UNL     1       1.330  16.832  22.288  0.00  0.00    +0.000 C 
ATOM     18  C   UNL     1       0.005  14.866  22.615  0.00  0.00    +0.000 C 
ATOM     19  C   UNL     1      -1.090  13.936  22.056  0.00  0.00    +0.000 C 
BRANCH  19  20
ATOM     20  O   UNL     1      -2.351  14.609  22.143  0.00  0.00    +0.000 OA
ATOM     21  H   UNL     1      -2.731  14.578  21.242  0.00  0.00    +0.000 HD
ENDBRANCH  19  20
ENDBRANCH  10  13
BRANCH   7  22
ATOM     22  O   UNL     1      -1.683   9.706  16.868  0.00  0.00    +0.000 OA
ATOM     23  H   UNL     1      -0.814   9.643  16.408  0.00  0.00    +0.000 HD
ENDBRANCH   7  22
BRANCH   9  24
ATOM     24  O   UNL     1       1.268  11.836  19.910  0.00  0.00    +0.000 OA
ATOM     25  H   UNL     1       1.892  11.352  19.324  0.00  0.00    +0.000 HD
ENDBRANCH   9  24
BRANCH   8  26
ATOM     26  C   UNL     1       0.885   9.723  17.855  0.00  0.00    +0.000 C 
BRANCH  26  27
ATOM     27  N   UNL     1       1.912   8.984  18.681  0.00  0.00    +0.000 NA
ATOM     28  C   UNL     1       1.266   8.178  19.741  0.00  0.00    +0.000 C 
ATOM     29  C   UNL     1       2.207   7.157  20.399  0.00  0.00    +0.000 C 
ATOM     30  C   UNL     1       2.885   6.164  19.436  0.00  0.00    +0.000 C 
ATOM     31  C   UNL     1       3.512   6.983  18.295  0.00  0.00    +0.000 C 
ATOM     32  C   UNL     1       2.622   8.090  17.718  0.00  0.00    +0.000 C 
BRANCH  30  33
ATOM     33  N   UNL     1       2.118   4.954  19.007  0.00  0.00    +0.000 NA
ATOM     34  C   UNL     1       2.956   4.050  18.193  0.00  0.00    +0.000 C 
ATOM     35  C   UNL     1       2.243   2.768  17.754  0.00  0.00    +0.000 C 
ATOM     36  C   UNL     1       1.689   2.027  18.959  0.00  0.00    +0.000 C 
ATOM     37  C   UNL     1       0.727   2.944  19.694  0.00  0.00    +0.000 C 
ATOM     38  C   UNL     1       1.402   4.261  20.077  0.00  0.00    +0.000 C 
ENDBRANCH  30  33
ENDBRANCH  26  27
ENDBRANCH   8  26
TORSDOF 7
ENDMDL
MODEL 3
REMARK VINA RESULT:      -7.6      2.790      5.583
REMARK  Name = 
REMARK  9 active torsions:
REMARK  status: ('A' for Active; 'I' for Inactive)
REMARK    1  A    between atoms: C_1  and  C_2
REMARK    2  A    between atoms: C_7  and  O_8
REMARK    3  A    between atoms: C_9  and  C_10
REMARK    4  A    between atoms: C_10  and  N_11
REMARK    5  A    between atoms: C_14  and  N_15
REMARK    6  A    between atoms: C_23  and  O_24
REMARK    7  A    between atoms: C_25  and  C_26
REMARK    8  A    between atoms: N_29  and  C_30
REMARK    9  A    between atoms: C_32  and  O_33
REMARK                            x       y       z     vdW  Elec       q    Type
REMARK                         _______ _______ _______ _____ _____    ______ ____
ROOT
ATOM      1  C   UNL     1      -6.928  13.367  19.528  0.00  0.00    +0.000 C 
ATOM      2  C   UNL     1      -5.705  12.711  18.952  0.00  0.00    +0.000 A 
ATOM      3  C   UNL     1      -5.687  12.235  17.699  0.00  0.00    +0.000 A 
ATOM      4  C   UNL     1      -4.445  11.632  17.195  0.00  0.00    +0.000 A 
ATOM      5  O   UNL     1      -4.329  11.327  16.013  0.00  0.00    +0.000 OA
ATOM      6  C   UNL     1      -3.332  11.474  18.130  0.00  0.00    +0.000 A 
ATOM      7  C   UNL     1      -2.118  10.867  17.735  0.00  0.00    +0.000 A 
ATOM      8  C   UNL     1      -0.997  10.800  18.587  0.00  0.00    +0.000 A 
ATOM      9  C   UNL     1      -1.101  11.520  19.773  0.00  0.00    +0.000 A 
ATOM     10  C   UNL     1      -2.288  12.226  20.143  0.00  0.00    +0.000 A 
ATOM     11  C   UNL     1      -3.444  12.092  19.369  0.00  0.00    +0.000 A 
ATOM     12  O   UNL     1      -4.612  12.678  19.804  0.00  0.00    +0.000 OA
ENDROOT
BRANCH  10  13
ATOM     13  C   UNL     1      -2.126  13.348  21.143  0.00  0.00    +0.000 C 
ATOM     14  C   UNL     1      -2.212  14.796  20.647  0.00  0.00    +0.000 C 
ATOM     15  C   UNL     1      -1.408  15.642  21.641  0.00  0.00    +0.000 C 
ATOM     16  N   UNL     1      -1.787  15.442  23.060  0.00  0.00    +0.000 NA
ATOM     17  C   UNL     1      -0.747  16.040  23.912  0.00  0.00    +0.000 C 
ATOM     18  C   UNL     1      -1.948  14.018  23.470  0.00  0.00    +0.000 C 
ATOM     19  C   UNL     1      -2.837  13.228  22.489  0.00  0.00    +0.000 C 
BRANCH  19  20
ATOM     20  O   UNL     1      -4.141  13.819  22.475  0.00  0.00    +0.000 OA
ATOM     21  H   UNL     1      -4.727  13.158  22.053  0.00  0.00    +0.000 HD
ENDBRANCH  19  20
ENDBRANCH  10  13
BRANCH   7  22
ATOM     22  O   UNL     1      -1.957  10.396  16.451  0.00  0.00    +0.000 OA
ATOM     23  H   UNL     1      -1.359   9.613  16.488  0.00  0.00    +0.000 HD
ENDBRANCH   7  22
BRANCH   9  24
ATOM     24  O   UNL     1       0.005  11.695  20.570  0.00  0.00    +0.000 OA
ATOM     25  H   UNL     1      -0.222  11.358  21.465  0.00  0.00    +0.000 HD
ENDBRANCH   9  24
BRANCH   8  26
ATOM     26  C   UNL     1       0.263  10.131  18.056  0.00  0.00    +0.000 C 
BRANCH  26  27
ATOM     27  N   UNL     1       1.249   9.482  18.998  0.00  0.00    +0.000 NA
ATOM     28  C   UNL     1       0.554   8.693  20.040  0.00  0.00    +0.000 C 
ATOM     29  C   UNL     1       1.482   7.750  20.822  0.00  0.00    +0.000 C 
ATOM     30  C   UNL     1       2.282   6.749  19.966  0.00  0.00    +0.000 C 
ATOM     31  C   UNL     1       2.965   7.546  18.843  0.00  0.00    +0.000 C 
ATOM     32  C   UNL     1       2.078   8.581  18.141  0.00  0.00    +0.000 C 
BRANCH  30  33
ATOM     33  N   UNL     1       1.609   5.485  19.536  0.00  0.00    +0.000 NA
ATOM     34  C   UNL     1       2.236   4.934  18.317  0.00  0.00    +0.000 C 
ATOM     35  C   UNL     1       1.621   3.614  17.844  0.00  0.00    +0.000 C 
ATOM     36  C   UNL     1       1.647   2.583  18.960  0.00  0.00    +0.000 C 
ATOM     37  C   UNL     1       0.877   3.132  20.148  0.00  0.00    +0.000 C 
ATOM     38  C   UNL     1       1.432   4.486  20.589  0.00  0.00    +0.000 C 
ENDBRANCH  30  33
ENDBRANCH  26  27
ENDBRANCH   8  26
TORSDOF 7
ENDMDL
MODEL 4
REMARK VINA RESULT:      -7.6      3.301      5.226
REMARK  Name = 
REMARK  9 active torsions:
REMARK  status: ('A' for Active; 'I' for Inactive)
REMARK    1  A    between atoms: C_1  and  C_2
REMARK    2  A    between atoms: C_7  and  O_8
REMARK    3  A    between atoms: C_9  and  C_10
REMARK    4  A    between atoms: C_10  and  N_11
REMARK    5  A    between atoms: C_14  and  N_15
REMARK    6  A    between atoms: C_23  and  O_24
REMARK    7  A    between atoms: C_25  and  C_26
REMARK    8  A    between atoms: N_29  and  C_30
REMARK    9  A    between atoms: C_32  and  O_33
REMARK                            x       y       z     vdW  Elec       q    Type
REMARK                         _______ _______ _______ _____ _____    ______ ____
ROOT
ATOM      1  C   UNL     1       0.546  17.670  19.721  0.00  0.00    +0.000 C 
ATOM      2  C   UNL     1       0.899  16.270  19.305  0.00  0.00    +0.000 A 
ATOM      3  C   UNL     1       2.064  15.987  18.704  0.00  0.00    +0.000 A 
ATOM      4  C   UNL     1       2.350  14.590  18.352  0.00  0.00    +0.000 A 
ATOM      5  O   UNL     1       3.459  14.258  17.947  0.00  0.00    +0.000 OA
ATOM      6  C   UNL     1       1.295  13.599  18.566  0.00  0.00    +0.000 A 
ATOM      7  C   UNL     1       1.476  12.243  18.215  0.00  0.00    +0.000 A 
ATOM      8  C   UNL     1       0.516  11.254  18.507  0.00  0.00    +0.000 A 
ATOM      9  C   UNL     1      -0.540  11.664  19.316  0.00  0.00    +0.000 A 
ATOM     10  C   UNL     1      -0.685  13.013  19.766  0.00  0.00    +0.000 A 
ATOM     11  C   UNL     1       0.174  14.002  19.279  0.00  0.00    +0.000 A 
ATOM     12  O   UNL     1      -0.055  15.316  19.624  0.00  0.00    +0.000 OA
ENDROOT
BRANCH  10  13
ATOM     13  C   UNL     1      -1.527  13.229  21.003  0.00  0.00    +0.000 C 
ATOM     14  C   UNL     1      -0.826  13.577  22.320  0.00  0.00    +0.000 C 
ATOM     15  C   UNL     1      -1.759  13.110  23.443  0.00  0.00    +0.000 C 
ATOM     16  N   UNL     1      -3.152  13.603  23.325  0.00  0.00    +0.000 NA
ATOM     17  C   UNL     1      -4.001  12.834  24.249  0.00  0.00    +0.000 C 
ATOM     18  C   UNL     1      -3.743  13.488  21.961  0.00  0.00    +0.000 C 
ATOM     19  C   UNL     1      -2.807  14.052  20.874  0.00  0.00    +0.000 C 
BRANCH  19  20
ATOM     20  O   UNL     1      -2.592  15.443  21.131  0.00  0.00    +0.000 OA
ATOM     21  H   UNL     1      -3.135  15.922  20.472  0.00  0.00    +0.000 HD
ENDBRANCH  19  20
ENDBRANCH  10  13
BRANCH   7  22
ATOM     22  O   UNL     1       2.658  11.818  17.649  0.00  0.00    +0.000 OA
ATOM     23  H   UNL     1       2.460  11.037  17.081  0.00  0.00    +0.000 HD
ENDBRANCH   7  22
BRANCH   9  24
ATOM     24  O   UNL     1      -1.411  10.734  19.834  0.00  0.00    +0.000 OA
ATOM     25  H   UNL     1      -1.026  10.413  20.680  0.00  0.00    +0.000 HD
ENDBRANCH   9  24
BRANCH   8  26
ATOM     26  C   UNL     1       0.818   9.821  18.093  0.00  0.00    +0.000 C 
BRANCH  26  27
ATOM     27  N   UNL     1       1.932   9.043  18.753  0.00  0.00    +0.000 NA
ATOM     28  C   UNL     1       1.414   8.190  19.846  0.00  0.00    +0.000 C 
ATOM     29  C   UNL     1       2.421   7.138  20.338  0.00  0.00    +0.000 C 
ATOM     30  C   UNL     1       2.969   6.189  19.254  0.00  0.00    +0.000 C 
ATOM     31  C   UNL     1       3.459   7.059  18.085  0.00  0.00    +0.000 C 
ATOM     32  C   UNL     1       2.514   8.192  17.671  0.00  0.00    +0.000 C 
BRANCH  30  33
ATOM     33  N   UNL     1       2.147   5.002  18.868  0.00  0.00    +0.000 NA
ATOM     34  C   UNL     1       2.938   4.039  18.074  0.00  0.00    +0.000 C 
ATOM     35  C   UNL     1       2.167   2.777  17.679  0.00  0.00    +0.000 C 
ATOM     36  C   UNL     1       1.593   2.096  18.910  0.00  0.00    +0.000 C 
ATOM     37  C   UNL     1       0.678   3.074  19.625  0.00  0.00    +0.000 C 
ATOM     38  C   UNL     1       1.413   4.371  19.964  0.00  0.00    +0.000 C 
ENDBRANCH  30  33
ENDBRANCH  26  27
ENDBRANCH   8  26
TORSDOF 7
ENDMDL
MODEL 5
REMARK VINA RESULT:      -7.6      2.923      9.105
REMARK  Name = 
REMARK  9 active torsions:
REMARK  status: ('A' for Active; 'I' for Inactive)
REMARK    1  A    between atoms: C_1  and  C_2
REMARK    2  A    between atoms: C_7  and  O_8
REMARK    3  A    between atoms: C_9  and  C_10
REMARK    4  A    between atoms: C_10  and  N_11
REMARK    5  A    between atoms: C_14  and  N_15
REMARK    6  A    between atoms: C_23  and  O_24
REMARK    7  A    between atoms: C_25  and  C_26
REMARK    8  A    between atoms: N_29  and  C_30
REMARK    9  A    between atoms: C_32  and  O_33
REMARK                            x       y       z     vdW  Elec       q    Type
REMARK                         _______ _______ _______ _____ _____    ______ ____
ROOT
ATOM      1  C   UNL     1       3.842   0.987  18.846  0.00  0.00    +0.000 C 
ATOM      2  C   UNL     1       3.428   2.391  19.183  0.00  0.00    +0.000 A 
ATOM      3  C   UNL     1       2.876   2.697  20.367  0.00  0.00    +0.000 A 
ATOM      4  C   UNL     1       2.523   4.097  20.635  0.00  0.00    +0.000 A 
ATOM      5  O   UNL     1       2.165   4.453  21.752  0.00  0.00    +0.000 OA
ATOM      6  C   UNL     1       2.680   5.064  19.548  0.00  0.00    +0.000 A 
ATOM      7  C   UNL     1       2.323   6.421  19.712  0.00  0.00    +0.000 A 
ATOM      8  C   UNL     1       2.563   7.389  18.716  0.00  0.00    +0.000 A 
ATOM      9  C   UNL     1       3.327   6.961  17.635  0.00  0.00    +0.000 A 
ATOM     10  C   UNL     1       3.784   5.612  17.503  0.00  0.00    +0.000 A 
ATOM     11  C   UNL     1       3.346   4.640  18.406  0.00  0.00    +0.000 A 
ATOM     12  O   UNL     1       3.694   3.325  18.193  0.00  0.00    +0.000 OA
ENDROOT
BRANCH  10  13
ATOM     13  C   UNL     1       4.985   5.387  16.611  0.00  0.00    +0.000 C 
ATOM     14  C   UNL     1       6.385   5.608  17.192  0.00  0.00    +0.000 C 
ATOM     15  C   UNL     1       7.296   5.947  16.007  0.00  0.00    +0.000 C 
ATOM     16  N   UNL     1       7.227   4.978  14.886  0.00  0.00    +0.000 NA
ATOM     17  C   UNL     1       7.875   5.577  13.709  0.00  0.00    +0.000 C 
ATOM     18  C   UNL     1       5.848   4.574  14.492  0.00  0.00    +0.000 C 
ATOM     19  C   UNL     1       4.996   4.157  15.708  0.00  0.00    +0.000 C 
BRANCH  19  20
ATOM     20  O   UNL     1       5.611   3.024  16.331  0.00  0.00    +0.000 OA
ATOM     21  H   UNL     1       4.901   2.585  16.842  0.00  0.00    +0.000 HD
ENDBRANCH  19  20
ENDBRANCH  10  13
BRANCH   7  22
ATOM     22  O   UNL     1       1.806   6.870  20.908  0.00  0.00    +0.000 OA
ATOM     23  H   UNL     1       2.368   7.616  21.221  0.00  0.00    +0.000 HD
ENDBRANCH   7  22
BRANCH   9  24
ATOM     24  O   UNL     1       3.797   7.874  16.720  0.00  0.00    +0.000 OA
ATOM     25  H   UNL     1       4.621   8.262  17.091  0.00  0.00    +0.000 HD
ENDBRANCH   9  24
BRANCH   8  26
ATOM     26  C   UNL     1       2.148   8.825  19.002  0.00  0.00    +0.000 C 
BRANCH  26  27
ATOM     27  N   UNL     1       0.753   9.145  19.487  0.00  0.00    +0.000 NA
ATOM     28  C   UNL     1       0.788   9.867  20.778  0.00  0.00    +0.000 C 
ATOM     29  C   UNL     1      -0.555  10.507  21.165  0.00  0.00    +0.000 C 
ATOM     30  C   UNL     1      -1.147  11.480  20.127  0.00  0.00    +0.000 C 
ATOM     31  C   UNL     1      -1.136  10.765  18.766  0.00  0.00    +0.000 C 
ATOM     32  C   UNL     1       0.158  10.016  18.429  0.00  0.00    +0.000 C 
BRANCH  30  33
ATOM     33  N   UNL     1      -0.651  12.891  20.112  0.00  0.00    +0.000 NA
ATOM     34  C   UNL     1       0.575  13.036  20.922  0.00  0.00    +0.000 C 
ATOM     35  C   UNL     1       1.161  14.451  20.916  0.00  0.00    +0.000 C 
ATOM     36  C   UNL     1       1.415  14.916  19.492  0.00  0.00    +0.000 C 
ATOM     37  C   UNL     1       0.104  14.882  18.728  0.00  0.00    +0.000 C 
ATOM     38  C   UNL     1      -0.533  13.493  18.784  0.00  0.00    +0.000 C 
ENDBRANCH  30  33
ENDBRANCH  26  27
ENDBRANCH   8  26
TORSDOF 7
ENDMDL
MODEL 6
REMARK VINA RESULT:      -7.4      3.332      5.390
REMARK  Name = 
REMARK  9 active torsions:
REMARK  status: ('A' for Active; 'I' for Inactive)
REMARK    1  A    between atoms: C_1  and  C_2
REMARK    2  A    between atoms: C_7  and  O_8
REMARK    3  A    between atoms: C_9  and  C_10
REMARK    4  A    between atoms: C_10  and  N_11
REMARK    5  A    between atoms: C_14  and  N_15
REMARK    6  A    between atoms: C_23  and  O_24
REMARK    7  A    between atoms: C_25  and  C_26
REMARK    8  A    between atoms: N_29  and  C_30
REMARK    9  A    between atoms: C_32  and  O_33
REMARK                            x       y       z     vdW  Elec       q    Type
REMARK                         _______ _______ _______ _____ _____    ______ ____
ROOT
ATOM      1  C   UNL     1       0.665  17.769  19.943  0.00  0.00    +0.000 C 
ATOM      2  C   UNL     1       0.972  16.365  19.504  0.00  0.00    +0.000 A 
ATOM      3  C   UNL     1       2.102  16.065  18.849  0.00  0.00    +0.000 A 
ATOM      4  C   UNL     1       2.346  14.665  18.477  0.00  0.00    +0.000 A 
ATOM      5  O   UNL     1       3.429  14.315  18.019  0.00  0.00    +0.000 OA
ATOM      6  C   UNL     1       1.285  13.692  18.734  0.00  0.00    +0.000 A 
ATOM      7  C   UNL     1       1.424  12.334  18.368  0.00  0.00    +0.000 A 
ATOM      8  C   UNL     1       0.460  11.361  18.700  0.00  0.00    +0.000 A 
ATOM      9  C   UNL     1      -0.549  11.786  19.558  0.00  0.00    +0.000 A 
ATOM     10  C   UNL     1      -0.648  13.135  20.021  0.00  0.00    +0.000 A 
ATOM     11  C   UNL     1       0.205  14.111  19.500  0.00  0.00    +0.000 A 
ATOM     12  O   UNL     1       0.016  15.426  19.863  0.00  0.00    +0.000 OA
ENDROOT
BRANCH  10  13
ATOM     13  C   UNL     1      -1.429  13.359  21.297  0.00  0.00    +0.000 C 
ATOM     14  C   UNL     1      -2.922  13.017  21.317  0.00  0.00    +0.000 C 
ATOM     15  C   UNL     1      -3.552  13.896  22.403  0.00  0.00    +0.000 C 
ATOM     16  N   UNL     1      -2.875  13.820  23.720  0.00  0.00    +0.000 NA
ATOM     17  C   UNL     1      -3.355  14.930  24.558  0.00  0.00    +0.000 C 
ATOM     18  C   UNL     1      -1.388  13.902  23.663  0.00  0.00    +0.000 C 
ATOM     19  C   UNL     1      -0.792  12.936  22.619  0.00  0.00    +0.000 C 
BRANCH  19  20
ATOM     20  O   UNL     1      -1.134  11.596  22.989  0.00  0.00    +0.000 OA
ATOM     21  H   UNL     1      -0.295  11.178  23.274  0.00  0.00    +0.000 HD
ENDBRANCH  19  20
ENDBRANCH  10  13
BRANCH   7  22
ATOM     22  O   UNL     1       2.570  11.892  17.745  0.00  0.00    +0.000 OA
ATOM     23  H   UNL     1       2.349  11.695  16.805  0.00  0.00    +0.000 HD
ENDBRANCH   7  22
BRANCH   9  24
ATOM     24  O   UNL     1      -1.412  10.869  20.112  0.00  0.00    +0.000 OA
ATOM     25  H   UNL     1      -1.712  11.233  20.974  0.00  0.00    +0.000 HD
ENDBRANCH   9  24
BRANCH   8  26
ATOM     26  C   UNL     1       0.716   9.926  18.264  0.00  0.00    +0.000 C 
BRANCH  26  27
ATOM     27  N   UNL     1       1.866   9.135  18.843  0.00  0.00    +0.000 NA
ATOM     28  C   UNL     1       1.417   8.281  19.965  0.00  0.00    +0.000 C 
ATOM     29  C   UNL     1       2.446   7.218  20.382  0.00  0.00    +0.000 C 
ATOM     30  C   UNL     1       2.910   6.270  19.259  0.00  0.00    +0.000 C 
ATOM     31  C   UNL     1       3.326   7.142  18.063  0.00  0.00    +0.000 C 
ATOM     32  C   UNL     1       2.365   8.286  17.720  0.00  0.00    +0.000 C 
BRANCH  30  33
ATOM     33  N   UNL     1       2.054   5.092  18.924  0.00  0.00    +0.000 NA
ATOM     34  C   UNL     1       2.762   4.152  18.031  0.00  0.00    +0.000 C 
ATOM     35  C   UNL     1       1.955   2.899  17.680  0.00  0.00    +0.000 C 
ATOM     36  C   UNL     1       1.505   2.184  18.943  0.00  0.00    +0.000 C 
ATOM     37  C   UNL     1       0.666   3.141  19.771  0.00  0.00    +0.000 C 
ATOM     38  C   UNL     1       1.431   4.431  20.070  0.00  0.00    +0.000 C 
ENDBRANCH  30  33
ENDBRANCH  26  27
ENDBRANCH   8  26
TORSDOF 7
ENDMDL
MODEL 7
REMARK VINA RESULT:      -7.4      2.864      5.455
REMARK  Name = 
REMARK  9 active torsions:
REMARK  status: ('A' for Active; 'I' for Inactive)
REMARK    1  A    between atoms: C_1  and  C_2
REMARK    2  A    between atoms: C_7  and  O_8
REMARK    3  A    between atoms: C_9  and  C_10
REMARK    4  A    between atoms: C_10  and  N_11
REMARK    5  A    between atoms: C_14  and  N_15
REMARK    6  A    between atoms: C_23  and  O_24
REMARK    7  A    between atoms: C_25  and  C_26
REMARK    8  A    between atoms: N_29  and  C_30
REMARK    9  A    between atoms: C_32  and  O_33
REMARK                            x       y       z     vdW  Elec       q    Type
REMARK                         _______ _______ _______ _____ _____    ______ ____
ROOT
ATOM      1  C   UNL     1      -6.570  13.750  20.496  0.00  0.00    +0.000 C 
ATOM      2  C   UNL     1      -5.496  13.003  19.758  0.00  0.00    +0.000 A 
ATOM      3  C   UNL     1      -5.712  12.478  18.543  0.00  0.00    +0.000 A 
ATOM      4  C   UNL     1      -4.605  11.786  17.870  0.00  0.00    +0.000 A 
ATOM      5  O   UNL     1      -4.703  11.429  16.701  0.00  0.00    +0.000 OA
ATOM      6  C   UNL     1      -3.360  11.600  18.615  0.00  0.00    +0.000 A 
ATOM      7  C   UNL     1      -2.262  10.908  18.055  0.00  0.00    +0.000 A 
ATOM      8  C   UNL     1      -1.019  10.809  18.712  0.00  0.00    +0.000 A 
ATOM      9  C   UNL     1      -0.886  11.578  19.864  0.00  0.00    +0.000 A 
ATOM     10  C   UNL     1      -1.957  12.366  20.390  0.00  0.00    +0.000 A 
ATOM     11  C   UNL     1      -3.232  12.270  19.825  0.00  0.00    +0.000 A 
ATOM     12  O   UNL     1      -4.279  12.939  20.419  0.00  0.00    +0.000 OA
ENDROOT
BRANCH  10  13
ATOM     13  C   UNL     1      -1.573  13.515  21.295  0.00  0.00    +0.000 C 
ATOM     14  C   UNL     1      -0.896  13.202  22.634  0.00  0.00    +0.000 C 
ATOM     15  C   UNL     1      -1.209  14.381  23.562  0.00  0.00    +0.000 C 
ATOM     16  N   UNL     1      -0.886  15.711  22.991  0.00  0.00    +0.000 NA
ATOM     17  C   UNL     1      -1.525  16.745  23.821  0.00  0.00    +0.000 C 
ATOM     18  C   UNL     1      -1.335  15.914  21.584  0.00  0.00    +0.000 C 
ATOM     19  C   UNL     1      -0.920  14.744  20.669  0.00  0.00    +0.000 C 
BRANCH  19  20
ATOM     20  O   UNL     1       0.509  14.659  20.654  0.00  0.00    +0.000 OA
ATOM     21  H   UNL     1       0.827  15.570  20.489  0.00  0.00    +0.000 HD
ENDBRANCH  19  20
ENDBRANCH  10  13
BRANCH   7  22
ATOM     22  O   UNL     1      -2.342  10.380  16.786  0.00  0.00    +0.000 OA
ATOM     23  H   UNL     1      -2.427   9.401  16.869  0.00  0.00    +0.000 HD
ENDBRANCH   7  22
BRANCH   9  24
ATOM     24  O   UNL     1       0.346  11.720  20.458  0.00  0.00    +0.000 OA
ATOM     25  H   UNL     1       1.021  11.669  19.746  0.00  0.00    +0.000 HD
ENDBRANCH   9  24
BRANCH   8  26
ATOM     26  C   UNL     1       0.099  10.048  18.013  0.00  0.00    +0.000 C 
BRANCH  26  27
ATOM     27  N   UNL     1       1.230   9.436  18.805  0.00  0.00    +0.000 NA
ATOM     28  C   UNL     1       0.717   8.593  19.907  0.00  0.00    +0.000 C 
ATOM     29  C   UNL     1       1.785   7.687  20.540  0.00  0.00    +0.000 C 
ATOM     30  C   UNL     1       2.518   6.746  19.565  0.00  0.00    +0.000 C 
ATOM     31  C   UNL     1       3.008   7.599  18.383  0.00  0.00    +0.000 C 
ATOM     32  C   UNL     1       1.986   8.597  17.827  0.00  0.00    +0.000 C 
BRANCH  30  33
ATOM     33  N   UNL     1       1.861   5.456  19.193  0.00  0.00    +0.000 NA
ATOM     34  C   UNL     1       2.676   4.703  18.217  0.00  0.00    +0.000 C 
ATOM     35  C   UNL     1       2.079   3.348  17.823  0.00  0.00    +0.000 C 
ATOM     36  C   UNL     1       1.822   2.500  19.057  0.00  0.00    +0.000 C 
ATOM     37  C   UNL     1       0.873   3.251  19.974  0.00  0.00    +0.000 C 
ATOM     38  C   UNL     1       1.418   4.637  20.321  0.00  0.00    +0.000 C 
ENDBRANCH  30  33
ENDBRANCH  26  27
ENDBRANCH   8  26
TORSDOF 7
ENDMDL
MODEL 8
REMARK VINA RESULT:      -7.2      2.599      4.889
REMARK  Name = 
REMARK  9 active torsions:
REMARK  status: ('A' for Active; 'I' for Inactive)
REMARK    1  A    between atoms: C_1  and  C_2
REMARK    2  A    between atoms: C_7  and  O_8
REMARK    3  A    between atoms: C_9  and  C_10
REMARK    4  A    between atoms: C_10  and  N_11
REMARK    5  A    between atoms: C_14  and  N_15
REMARK    6  A    between atoms: C_23  and  O_24
REMARK    7  A    between atoms: C_25  and  C_26
REMARK    8  A    between atoms: N_29  and  C_30
REMARK    9  A    between atoms: C_32  and  O_33
REMARK                            x       y       z     vdW  Elec       q    Type
REMARK                         _______ _______ _______ _____ _____    ______ ____
ROOT
ATOM      1  C   UNL     1      -6.038  12.959  18.843  0.00  0.00    +0.000 C 
ATOM      2  C   UNL     1      -4.708  12.294  18.637  0.00  0.00    +0.000 A 
ATOM      3  C   UNL     1      -4.386  11.709  17.474  0.00  0.00    +0.000 A 
ATOM      4  C   UNL     1      -3.054  11.103  17.338  0.00  0.00    +0.000 A 
ATOM      5  O   UNL     1      -2.656  10.697  16.251  0.00  0.00    +0.000 OA
ATOM      6  C   UNL     1      -2.195  11.064  18.521  0.00  0.00    +0.000 A 
ATOM      7  C   UNL     1      -0.917  10.463  18.483  0.00  0.00    +0.000 A 
ATOM      8  C   UNL     1      -0.031  10.506  19.579  0.00  0.00    +0.000 A 
ATOM      9  C   UNL     1      -0.422  11.325  20.634  0.00  0.00    +0.000 A 
ATOM     10  C   UNL     1      -1.670  12.024  20.643  0.00  0.00    +0.000 A 
ATOM     11  C   UNL     1      -2.606  11.785  19.634  0.00  0.00    +0.000 A 
ATOM     12  O   UNL     1      -3.849  12.371  19.723  0.00  0.00    +0.000 OA
ENDROOT
BRANCH  10  13
ATOM     13  C   UNL     1      -1.761  13.235  21.544  0.00  0.00    +0.000 C 
ATOM     14  C   UNL     1      -1.687  14.630  20.913  0.00  0.00    +0.000 C 
ATOM     15  C   UNL     1      -1.164  15.571  22.004  0.00  0.00    +0.000 C 
ATOM     16  N   UNL     1      -1.912  15.500  23.283  0.00  0.00    +0.000 NA
ATOM     17  C   UNL     1      -1.127  16.183  24.323  0.00  0.00    +0.000 C 
ATOM     18  C   UNL     1      -2.201  14.119  23.762  0.00  0.00    +0.000 C 
ATOM     19  C   UNL     1      -2.809  13.235  22.655  0.00  0.00    +0.000 C 
BRANCH  19  20
ATOM     20  O   UNL     1      -4.051  13.812  22.239  0.00  0.00    +0.000 OA
ATOM     21  H   UNL     1      -4.653  13.057  22.080  0.00  0.00    +0.000 HD
ENDBRANCH  19  20
ENDBRANCH  10  13
BRANCH   7  22
ATOM     22  O   UNL     1      -0.449   9.885  17.324  0.00  0.00    +0.000 OA
ATOM     23  H   UNL     1       0.514   9.708  17.440  0.00  0.00    +0.000 HD
ENDBRANCH   7  22
BRANCH   9  24
ATOM     24  O   UNL     1       0.460  11.606  21.650  0.00  0.00    +0.000 OA
ATOM     25  H   UNL     1       1.366  11.575  21.268  0.00  0.00    +0.000 HD
ENDBRANCH   9  24
BRANCH   8  26
ATOM     26  C   UNL     1       1.326   9.834  19.427  0.00  0.00    +0.000 C 
BRANCH  26  27
ATOM     27  N   UNL     1       1.433   8.418  18.910  0.00  0.00    +0.000 NA
ATOM     28  C   UNL     1       2.276   8.355  17.696  0.00  0.00    +0.000 C 
ATOM     29  C   UNL     1       2.697   6.928  17.309  0.00  0.00    +0.000 C 
ATOM     30  C   UNL     1       3.436   6.136  18.406  0.00  0.00    +0.000 C 
ATOM     31  C   UNL     1       2.600   6.241  19.692  0.00  0.00    +0.000 C 
ATOM     32  C   UNL     1       2.069   7.642  20.017  0.00  0.00    +0.000 C 
BRANCH  30  33
ATOM     33  N   UNL     1       4.904   6.360  18.578  0.00  0.00    +0.000 NA
ATOM     34  C   UNL     1       5.531   5.249  19.322  0.00  0.00    +0.000 C 
ATOM     35  C   UNL     1       7.045   5.395  19.498  0.00  0.00    +0.000 C 
ATOM     36  C   UNL     1       7.723   5.572  18.151  0.00  0.00    +0.000 C 
ATOM     37  C   UNL     1       7.147   6.803  17.474  0.00  0.00    +0.000 C 
ATOM     38  C   UNL     1       5.626   6.707  17.354  0.00  0.00    +0.000 C 
ENDBRANCH  30  33
ENDBRANCH  26  27
ENDBRANCH   8  26
TORSDOF 7
ENDMDL
MODEL 9
REMARK VINA RESULT:      -7.0      4.688      9.384
REMARK  Name = 
REMARK  9 active torsions:
REMARK  status: ('A' for Active; 'I' for Inactive)
REMARK    1  A    between atoms: C_1  and  C_2
REMARK    2  A    between atoms: C_7  and  O_8
REMARK    3  A    between atoms: C_9  and  C_10
REMARK    4  A    between atoms: C_10  and  N_11
REMARK    5  A    between atoms: C_14  and  N_15
REMARK    6  A    between atoms: C_23  and  O_24
REMARK    7  A    between atoms: C_25  and  C_26
REMARK    8  A    between atoms: N_29  and  C_30
REMARK    9  A    between atoms: C_32  and  O_33
REMARK                            x       y       z     vdW  Elec       q    Type
REMARK                         _______ _______ _______ _____ _____    ______ ____
ROOT
ATOM      1  C   UNL     1       1.896   9.396  17.919  0.00  0.00    +0.000 C 
ATOM      2  C   UNL     1       1.189   9.898  19.146  0.00  0.00    +0.000 A 
ATOM      3  C   UNL     1       0.672   9.058  20.054  0.00  0.00    +0.000 A 
ATOM      4  C   UNL     1       0.021   9.625  21.243  0.00  0.00    +0.000 A 
ATOM      5  O   UNL     1      -0.326   8.905  22.173  0.00  0.00    +0.000 OA
ATOM      6  C   UNL     1      -0.136  11.077  21.312  0.00  0.00    +0.000 A 
ATOM      7  C   UNL     1      -0.787  11.697  22.402  0.00  0.00    +0.000 A 
ATOM      8  C   UNL     1      -0.857  13.098  22.540  0.00  0.00    +0.000 A 
ATOM      9  C   UNL     1      -0.096  13.829  21.633  0.00  0.00    +0.000 A 
ATOM     10  C   UNL     1       0.653  13.211  20.584  0.00  0.00    +0.000 A 
ATOM     11  C   UNL     1       0.524  11.838  20.356  0.00  0.00    +0.000 A 
ATOM     12  O   UNL     1       1.155  11.279  19.267  0.00  0.00    +0.000 OA
ENDROOT
BRANCH  10  13
ATOM     13  C   UNL     1       1.803  14.008  20.011  0.00  0.00    +0.000 C 
ATOM     14  C   UNL     1       1.492  15.165  19.054  0.00  0.00    +0.000 C 
ATOM     15  C   UNL     1       2.734  15.342  18.173  0.00  0.00    +0.000 C 
ATOM     16  N   UNL     1       4.004  15.476  18.927  0.00  0.00    +0.000 NA
ATOM     17  C   UNL     1       5.125  15.308  17.989  0.00  0.00    +0.000 C 
ATOM     18  C   UNL     1       4.182  14.492  20.032  0.00  0.00    +0.000 C 
ATOM     19  C   UNL     1       2.941  14.412  20.944  0.00  0.00    +0.000 C 
BRANCH  19  20
ATOM     20  O   UNL     1       2.731  15.695  21.544  0.00  0.00    +0.000 OA
ATOM     21  H   UNL     1       3.486  16.248  21.257  0.00  0.00    +0.000 HD
ENDBRANCH  19  20
ENDBRANCH  10  13
BRANCH   7  22
ATOM     22  O   UNL     1      -1.305  10.941  23.430  0.00  0.00    +0.000 OA
ATOM     23  H   UNL     1      -0.718  11.052  24.214  0.00  0.00    +0.000 HD
ENDBRANCH   7  22
BRANCH   9  24
ATOM     24  O   UNL     1       0.076  15.181  21.813  0.00  0.00    +0.000 OA
ATOM     25  H   UNL     1      -0.628  15.637  21.299  0.00  0.00    +0.000 HD
ENDBRANCH   9  24
BRANCH   8  26
ATOM     26  C   UNL     1      -1.575  13.660  23.759  0.00  0.00    +0.000 C 
BRANCH  26  27
ATOM     27  N   UNL     1      -3.018  14.099  23.672  0.00  0.00    +0.000 NA
ATOM     28  C   UNL     1      -3.381  14.472  22.286  0.00  0.00    +0.000 C 
ATOM     29  C   UNL     1      -4.895  14.610  22.060  0.00  0.00    +0.000 C 
ATOM     30  C   UNL     1      -5.733  13.369  22.421  0.00  0.00    +0.000 C 
ATOM     31  C   UNL     1      -5.326  12.934  23.838  0.00  0.00    +0.000 C 
ATOM     32  C   UNL     1      -3.818  12.916  24.110  0.00  0.00    +0.000 C 
BRANCH  30  33
ATOM     33  N   UNL     1      -5.837  12.265  21.418  0.00  0.00    +0.000 NA
ATOM     34  C   UNL     1      -7.208  11.718  21.365  0.00  0.00    +0.000 C 
ATOM     35  C   UNL     1      -7.395  10.608  20.326  0.00  0.00    +0.000 C 
ATOM     36  C   UNL     1      -6.969  11.090  18.950  0.00  0.00    +0.000 C 
ATOM     37  C   UNL     1      -5.514  11.518  19.012  0.00  0.00    +0.000 C 
ATOM     38  C   UNL     1      -5.295  12.575  20.095  0.00  0.00    +0.000 C 
ENDBRANCH  30  33
ENDBRANCH  26  27
ENDBRANCH   8  26
TORSDOF 7
ENDMDL
