MODEL 1
REMARK VINA RESULT:      -7.0      0.000      0.000
REMARK  Name = 
REMARK  6 active torsions:
REMARK  status: ('A' for Active; 'I' for Inactive)
REMARK    1  A    between atoms: C_1  and  C_2
REMARK    2  A    between atoms: C_4  and  C_5
REMARK    3  A    between atoms: C_6  and  S_7
REMARK    4  A    between atoms: S_7  and  N_10
REMARK    5  A    between atoms: N_10  and  N_11
REMARK    6  A    between atoms: C_16  and  C_17
REMARK                            x       y       z     vdW  Elec       q    Type
REMARK                         _______ _______ _______ _____ _____    ______ ____
ROOT
ATOM      1  S   UNL     1       3.799   3.608  17.987  0.00  0.00    +0.000 S 
ATOM      2  O   UNL     1       3.094   2.363  18.215  0.00  0.00    +0.000 OA
ATOM      3  O   UNL     1       4.044   4.049  16.633  0.00  0.00    +0.000 OA
ENDROOT
BRANCH   1   9
ATOM      4  C   UNL     1       1.093   8.161  21.132  0.00  0.00    +0.000 C 
ATOM      5  C   UNL     1       1.749   7.045  20.371  0.00  0.00    +0.000 A 
ATOM      6  C   UNL     1       1.701   5.731  20.825  0.00  0.00    +0.000 A 
ATOM      7  C   UNL     1       2.325   4.680  20.118  0.00  0.00    +0.000 A 
ATOM      8  C   UNL     1       2.221   3.315  20.751  0.00  0.00    +0.000 C 
ATOM      9  C   UNL     1       3.025   4.966  18.910  0.00  0.00    +0.000 A 
ATOM     10  C   UNL     1       3.115   6.309  18.465  0.00  0.00    +0.000 A 
ATOM     11  C   UNL     1       3.849   6.793  17.243  0.00  0.00    +0.000 C 
ATOM     12  C   UNL     1       2.446   7.319  19.196  0.00  0.00    +0.000 A 
ENDBRANCH   1   9
BRANCH   1  13
ATOM     13  N   UNL     1       5.314   3.485  18.713  0.00  0.00    +0.000 N 
ATOM     14  H   UNL     1       5.679   2.538  18.641  0.00  0.00    +0.000 HD
BRANCH  13  15
ATOM     15  N   UNL     1       6.223   4.525  18.444  0.00  0.00    +0.000 N 
ATOM     16  C   UNL     1       6.684   5.462  19.316  0.00  0.00    +0.000 A 
ATOM     17  N   UNL     1       7.639   6.152  18.729  0.00  0.00    +0.000 NA
ATOM     18  N   UNL     1       7.814   5.634  17.460  0.00  0.00    +0.000 NA
ATOM     19  C   UNL     1       6.967   4.639  17.318  0.00  0.00    +0.000 A 
ENDBRANCH  13  15
ENDBRANCH   1  13
TORSDOF 3
ENDMDL
MODEL 2
REMARK VINA RESULT:      -7.0      0.239      2.088
REMARK  Name = 
REMARK  6 active torsions:
REMARK  status: ('A' for Active; 'I' for Inactive)
REMARK    1  A    between atoms: C_1  and  C_2
REMARK    2  A    between atoms: C_4  and  C_5
REMARK    3  A    between atoms: C_6  and  S_7
REMARK    4  A    between atoms: S_7  and  N_10
REMARK    5  A    between atoms: N_10  and  N_11
REMARK    6  A    between atoms: C_16  and  C_17
REMARK                            x       y       z     vdW  Elec       q    Type
REMARK                         _______ _______ _______ _____ _____    ______ ____
ROOT
ATOM      1  S   UNL     1       3.843   3.440  18.269  0.00  0.00    +0.000 S 
ATOM      2  O   UNL     1       3.229   2.174  18.615  0.00  0.00    +0.000 OA
ATOM      3  O   UNL     1       4.010   3.792  16.878  0.00  0.00    +0.000 OA
ENDROOT
BRANCH   1   9
ATOM      4  C   UNL     1       1.120   8.153  21.153  0.00  0.00    +0.000 C 
ATOM      5  C   UNL     1       1.788   7.010  20.444  0.00  0.00    +0.000 A 
ATOM      6  C   UNL     1       2.485   7.201  19.255  0.00  0.00    +0.000 A 
ATOM      7  C   UNL     1       3.105   6.127  18.580  0.00  0.00    +0.000 A 
ATOM      8  C   UNL     1       3.792   6.480  17.284  0.00  0.00    +0.000 C 
ATOM      9  C   UNL     1       3.017   4.812  19.123  0.00  0.00    +0.000 A 
ATOM     10  C   UNL     1       2.271   4.604  20.310  0.00  0.00    +0.000 A 
ATOM     11  C   UNL     1       2.038   3.282  20.993  0.00  0.00    +0.000 C 
ATOM     12  C   UNL     1       1.695   5.720  20.962  0.00  0.00    +0.000 A 
ENDBRANCH   1   9
BRANCH   1  13
ATOM     13  N   UNL     1       5.389   3.465  18.939  0.00  0.00    +0.000 N 
ATOM     14  H   UNL     1       5.790   2.530  18.970  0.00  0.00    +0.000 HD
BRANCH  13  15
ATOM     15  N   UNL     1       6.242   4.496  18.505  0.00  0.00    +0.000 N 
ATOM     16  C   UNL     1       6.727   5.530  19.243  0.00  0.00    +0.000 A 
ATOM     17  N   UNL     1       7.618   6.181  18.526  0.00  0.00    +0.000 NA
ATOM     18  N   UNL     1       7.728   5.539  17.307  0.00  0.00    +0.000 NA
ATOM     19  C   UNL     1       6.909   4.511  17.326  0.00  0.00    +0.000 A 
ENDBRANCH  13  15
ENDBRANCH   1  13
TORSDOF 3
ENDMDL
MODEL 3
REMARK VINA RESULT:      -7.0      0.796      2.390
REMARK  Name = 
REMARK  6 active torsions:
REMARK  status: ('A' for Active; 'I' for Inactive)
REMARK    1  A    between atoms: C_1  and  C_2
REMARK    2  A    between atoms: C_4  and  C_5
REMARK    3  A    between atoms: C_6  and  S_7
REMARK    4  A    between atoms: S_7  and  N_10
REMARK    5  A    between atoms: N_10  and  N_11
REMARK    6  A    between atoms: C_16  and  C_17
REMARK                            x       y       z     vdW  Elec       q    Type
REMARK                         _______ _______ _______ _____ _____    ______ ____
ROOT
ATOM      1  S   UNL     1       4.221   3.712  17.998  0.00  0.00    +0.000 S 
ATOM      2  O   UNL     1       3.873   2.370  18.417  0.00  0.00    +0.000 OA
ATOM      3  O   UNL     1       4.168   4.055  16.596  0.00  0.00    +0.000 OA
ENDROOT
BRANCH   1   9
ATOM      4  C   UNL     1       1.089   7.965  21.167  0.00  0.00    +0.000 C 
ATOM      5  C   UNL     1       1.855   6.934  20.389  0.00  0.00    +0.000 A 
ATOM      6  C   UNL     1       2.492   7.253  19.194  0.00  0.00    +0.000 A 
ATOM      7  C   UNL     1       3.205   6.285  18.453  0.00  0.00    +0.000 A 
ATOM      8  C   UNL     1       3.811   6.768  17.159  0.00  0.00    +0.000 C 
ATOM      9  C   UNL     1       3.277   4.946  18.936  0.00  0.00    +0.000 A 
ATOM     10  C   UNL     1       2.593   4.605  20.130  0.00  0.00    +0.000 A 
ATOM     11  C   UNL     1       2.525   3.236  20.755  0.00  0.00    +0.000 C 
ATOM     12  C   UNL     1       1.918   5.620  20.847  0.00  0.00    +0.000 A 
ENDBRANCH   1   9
BRANCH   1  13
ATOM     13  N   UNL     1       5.806   4.011  18.486  0.00  0.00    +0.000 N 
ATOM     14  H   UNL     1       6.235   3.172  18.870  0.00  0.00    +0.000 HD
BRANCH  13  15
ATOM     15  N   UNL     1       6.598   4.771  17.606  0.00  0.00    +0.000 N 
ATOM     16  C   UNL     1       6.927   4.466  16.322  0.00  0.00    +0.000 A 
ATOM     17  N   UNL     1       7.539   5.500  15.784  0.00  0.00    +0.000 NA
ATOM     18  N   UNL     1       7.584   6.502  16.735  0.00  0.00    +0.000 NA
ATOM     19  C   UNL     1       6.989   6.050  17.816  0.00  0.00    +0.000 A 
ENDBRANCH  13  15
ENDBRANCH   1  13
TORSDOF 3
ENDMDL
MODEL 4
REMARK VINA RESULT:      -6.9      1.081      1.394
REMARK  Name = 
REMARK  6 active torsions:
REMARK  status: ('A' for Active; 'I' for Inactive)
REMARK    1  A    between atoms: C_1  and  C_2
REMARK    2  A    between atoms: C_4  and  C_5
REMARK    3  A    between atoms: C_6  and  S_7
REMARK    4  A    between atoms: S_7  and  N_10
REMARK    5  A    between atoms: N_10  and  N_11
REMARK    6  A    between atoms: C_16  and  C_17
REMARK                            x       y       z     vdW  Elec       q    Type
REMARK                         _______ _______ _______ _____ _____    ______ ____
ROOT
ATOM      1  S   UNL     1       3.278   4.020  17.885  0.00  0.00    +0.000 S 
ATOM      2  O   UNL     1       4.004   3.040  18.667  0.00  0.00    +0.000 OA
ATOM      3  O   UNL     1       2.225   3.583  16.997  0.00  0.00    +0.000 OA
ENDROOT
BRANCH   1   9
ATOM      4  C   UNL     1       1.004   8.461  21.497  0.00  0.00    +0.000 C 
ATOM      5  C   UNL     1       1.555   7.372  20.622  0.00  0.00    +0.000 A 
ATOM      6  C   UNL     1       1.411   6.030  20.957  0.00  0.00    +0.000 A 
ATOM      7  C   UNL     1       1.935   5.003  20.142  0.00  0.00    +0.000 A 
ATOM      8  C   UNL     1       1.735   3.597  20.652  0.00  0.00    +0.000 C 
ATOM      9  C   UNL     1       2.632   5.343  18.947  0.00  0.00    +0.000 A 
ATOM     10  C   UNL     1       2.821   6.711  18.623  0.00  0.00    +0.000 A 
ATOM     11  C   UNL     1       3.568   7.246  17.430  0.00  0.00    +0.000 C 
ATOM     12  C   UNL     1       2.249   7.698  19.459  0.00  0.00    +0.000 A 
ENDBRANCH   1   9
BRANCH   1  13
ATOM     13  N   UNL     1       4.389   4.834  16.915  0.00  0.00    +0.000 N 
ATOM     14  H   UNL     1       4.099   5.797  16.756  0.00  0.00    +0.000 HD
BRANCH  13  15
ATOM     15  N   UNL     1       5.749   4.635  17.219  0.00  0.00    +0.000 N 
ATOM     16  C   UNL     1       6.752   4.337  16.350  0.00  0.00    +0.000 A 
ATOM     17  N   UNL     1       7.900   4.395  16.992  0.00  0.00    +0.000 NA
ATOM     18  N   UNL     1       7.633   4.761  18.298  0.00  0.00    +0.000 NA
ATOM     19  C   UNL     1       6.333   4.925  18.406  0.00  0.00    +0.000 A 
ENDBRANCH  13  15
ENDBRANCH   1  13
TORSDOF 3
ENDMDL
MODEL 5
REMARK VINA RESULT:      -6.9      2.290      4.208
REMARK  Name = 
REMARK  6 active torsions:
REMARK  status: ('A' for Active; 'I' for Inactive)
REMARK    1  A    between atoms: C_1  and  C_2
REMARK    2  A    between atoms: C_4  and  C_5
REMARK    3  A    between atoms: C_6  and  S_7
REMARK    4  A    between atoms: S_7  and  N_10
REMARK    5  A    between atoms: N_10  and  N_11
REMARK    6  A    between atoms: C_16  and  C_17
REMARK                            x       y       z     vdW  Elec       q    Type
REMARK                         _______ _______ _______ _____ _____    ______ ____
ROOT
ATOM      1  S   UNL     1       5.264   4.179  18.724  0.00  0.00    +0.000 S 
ATOM      2  O   UNL     1       6.609   4.469  18.273  0.00  0.00    +0.000 OA
ATOM      3  O   UNL     1       5.060   3.616  20.039  0.00  0.00    +0.000 OA
ENDROOT
BRANCH   1   9
ATOM      4  C   UNL     1       1.708   9.168  18.083  0.00  0.00    +0.000 C 
ATOM      5  C   UNL     1       2.580   7.955  18.232  0.00  0.00    +0.000 A 
ATOM      6  C   UNL     1       3.589   7.669  17.318  0.00  0.00    +0.000 A 
ATOM      7  C   UNL     1       4.405   6.524  17.449  0.00  0.00    +0.000 A 
ATOM      8  C   UNL     1       5.431   6.325  16.361  0.00  0.00    +0.000 C 
ATOM      9  C   UNL     1       4.193   5.633  18.541  0.00  0.00    +0.000 A 
ATOM     10  C   UNL     1       3.138   5.895  19.451  0.00  0.00    +0.000 A 
ATOM     11  C   UNL     1       2.746   5.040  20.627  0.00  0.00    +0.000 C 
ATOM     12  C   UNL     1       2.371   7.072  19.290  0.00  0.00    +0.000 A 
ENDBRANCH   1   9
BRANCH   1  13
ATOM     13  N   UNL     1       4.582   3.081  17.643  0.00  0.00    +0.000 N 
ATOM     14  H   UNL     1       5.229   2.325  17.432  0.00  0.00    +0.000 HD
BRANCH  13  15
ATOM     15  N   UNL     1       3.247   2.708  17.888  0.00  0.00    +0.000 N 
ATOM     16  C   UNL     1       2.794   1.841  18.833  0.00  0.00    +0.000 A 
ATOM     17  N   UNL     1       1.479   1.886  18.854  0.00  0.00    +0.000 NA
ATOM     18  N   UNL     1       1.076   2.821  17.919  0.00  0.00    +0.000 NA
ATOM     19  C   UNL     1       2.158   3.322  17.367  0.00  0.00    +0.000 A 
ENDBRANCH  13  15
ENDBRANCH   1  13
TORSDOF 3
ENDMDL
MODEL 6
REMARK VINA RESULT:      -6.7      1.067      2.493
REMARK  Name = 
REMARK  6 active torsions:
REMARK  status: ('A' for Active; 'I' for Inactive)
REMARK    1  A    between atoms: C_1  and  C_2
REMARK    2  A    between atoms: C_4  and  C_5
REMARK    3  A    between atoms: C_6  and  S_7
REMARK    4  A    between atoms: S_7  and  N_10
REMARK    5  A    between atoms: N_10  and  N_11
REMARK    6  A    between atoms: C_16  and  C_17
REMARK                            x       y       z     vdW  Elec       q    Type
REMARK                         _______ _______ _______ _____ _____    ______ ____
ROOT
ATOM      1  S   UNL     1       3.369   4.168  18.092  0.00  0.00    +0.000 S 
ATOM      2  O   UNL     1       4.083   3.219  18.921  0.00  0.00    +0.000 OA
ATOM      3  O   UNL     1       2.394   3.688  17.140  0.00  0.00    +0.000 OA
ENDROOT
BRANCH   1   9
ATOM      4  C   UNL     1       0.851   8.617  21.528  0.00  0.00    +0.000 C 
ATOM      5  C   UNL     1       1.469   7.539  20.685  0.00  0.00    +0.000 A 
ATOM      6  C   UNL     1       2.177   7.840  19.526  0.00  0.00    +0.000 A 
ATOM      7  C   UNL     1       2.751   6.829  18.725  0.00  0.00    +0.000 A 
ATOM      8  C   UNL     1       3.456   7.304  17.479  0.00  0.00    +0.000 C 
ATOM      9  C   UNL     1       2.603   5.464  19.106  0.00  0.00    +0.000 A 
ATOM     10  C   UNL     1       1.845   5.148  20.262  0.00  0.00    +0.000 A 
ATOM     11  C   UNL     1       1.551   3.765  20.781  0.00  0.00    +0.000 C 
ATOM     12  C   UNL     1       1.317   6.202  21.044  0.00  0.00    +0.000 A 
ENDBRANCH   1   9
BRANCH   1  13
ATOM     13  N   UNL     1       4.506   5.028  17.193  0.00  0.00    +0.000 N 
ATOM     14  H   UNL     1       4.240   6.006  17.107  0.00  0.00    +0.000 HD
BRANCH  13  15
ATOM     15  N   UNL     1       5.858   4.772  17.485  0.00  0.00    +0.000 N 
ATOM     16  C   UNL     1       6.804   4.277  16.642  0.00  0.00    +0.000 A 
ATOM     17  N   UNL     1       7.976   4.339  17.237  0.00  0.00    +0.000 NA
ATOM     18  N   UNL     1       7.786   4.908  18.483  0.00  0.00    +0.000 NA
ATOM     19  C   UNL     1       6.506   5.184  18.601  0.00  0.00    +0.000 A 
ENDBRANCH  13  15
ENDBRANCH   1  13
TORSDOF 3
ENDMDL
MODEL 7
REMARK VINA RESULT:      -6.6      2.314      3.730
REMARK  Name = 
REMARK  6 active torsions:
REMARK  status: ('A' for Active; 'I' for Inactive)
REMARK    1  A    between atoms: C_1  and  C_2
REMARK    2  A    between atoms: C_4  and  C_5
REMARK    3  A    between atoms: C_6  and  S_7
REMARK    4  A    between atoms: S_7  and  N_10
REMARK    5  A    between atoms: N_10  and  N_11
REMARK    6  A    between atoms: C_16  and  C_17
REMARK                            x       y       z     vdW  Elec       q    Type
REMARK                         _______ _______ _______ _____ _____    ______ ____
ROOT
ATOM      1  S   UNL     1       5.244   4.219  18.551  0.00  0.00    +0.000 S 
ATOM      2  O   UNL     1       6.572   4.490  18.041  0.00  0.00    +0.000 OA
ATOM      3  O   UNL     1       5.092   3.647  19.869  0.00  0.00    +0.000 OA
ENDROOT
BRANCH   1   9
ATOM      4  C   UNL     1       1.599   9.169  18.164  0.00  0.00    +0.000 C 
ATOM      5  C   UNL     1       2.483   7.959  18.265  0.00  0.00    +0.000 A 
ATOM      6  C   UNL     1       2.344   7.044  19.303  0.00  0.00    +0.000 A 
ATOM      7  C   UNL     1       3.179   5.910  19.408  0.00  0.00    +0.000 A 
ATOM      8  C   UNL     1       2.935   5.028  20.607  0.00  0.00    +0.000 C 
ATOM      9  C   UNL     1       4.193   5.693  18.431  0.00  0.00    +0.000 A 
ATOM     10  C   UNL     1       4.369   6.646  17.395  0.00  0.00    +0.000 A 
ATOM     11  C   UNL     1       5.414   6.598  16.313  0.00  0.00    +0.000 C 
ATOM     12  C   UNL     1       3.485   7.748  17.321  0.00  0.00    +0.000 A 
ENDBRANCH   1   9
BRANCH   1  13
ATOM     13  N   UNL     1       4.493   3.144  17.493  0.00  0.00    +0.000 N 
ATOM     14  H   UNL     1       5.137   2.416  17.192  0.00  0.00    +0.000 HD
BRANCH  13  15
ATOM     15  N   UNL     1       3.198   2.722  17.845  0.00  0.00    +0.000 N 
ATOM     16  C   UNL     1       2.857   1.823  18.807  0.00  0.00    +0.000 A 
ATOM     17  N   UNL     1       1.547   1.824  18.943  0.00  0.00    +0.000 NA
ATOM     18  N   UNL     1       1.034   2.761  18.066  0.00  0.00    +0.000 NA
ATOM     19  C   UNL     1       2.048   3.309  17.433  0.00  0.00    +0.000 A 
ENDBRANCH  13  15
ENDBRANCH   1  13
TORSDOF 3
ENDMDL
MODEL 8
REMARK VINA RESULT:      -6.6      3.158      5.774
REMARK  Name = 
REMARK  6 active torsions:
REMARK  status: ('A' for Active; 'I' for Inactive)
REMARK    1  A    between atoms: C_1  and  C_2
REMARK    2  A    between atoms: C_4  and  C_5
REMARK    3  A    between atoms: C_6  and  S_7
REMARK    4  A    between atoms: S_7  and  N_10
REMARK    5  A    between atoms: N_10  and  N_11
REMARK    6  A    between atoms: C_16  and  C_17
REMARK                            x       y       z     vdW  Elec       q    Type
REMARK                         _______ _______ _______ _____ _____    ______ ____
ROOT
ATOM      1  S   UNL     1       4.895   4.534  19.240  0.00  0.00    +0.000 S 
ATOM      2  O   UNL     1       6.036   4.601  20.129  0.00  0.00    +0.000 OA
ATOM      3  O   UNL     1       3.847   5.523  19.351  0.00  0.00    +0.000 OA
ENDROOT
BRANCH   1   9
ATOM      4  C   UNL     1       6.761   4.319  13.373  0.00  0.00    +0.000 C 
ATOM      5  C   UNL     1       6.314   4.375  14.806  0.00  0.00    +0.000 A 
ATOM      6  C   UNL     1       7.196   4.706  15.829  0.00  0.00    +0.000 A 
ATOM      7  C   UNL     1       6.783   4.750  17.178  0.00  0.00    +0.000 A 
ATOM      8  C   UNL     1       7.859   5.088  18.180  0.00  0.00    +0.000 C 
ATOM      9  C   UNL     1       5.431   4.446  17.508  0.00  0.00    +0.000 A 
ATOM     10  C   UNL     1       4.537   4.064  16.475  0.00  0.00    +0.000 A 
ATOM     11  C   UNL     1       3.095   3.668  16.649  0.00  0.00    +0.000 C 
ATOM     12  C   UNL     1       4.996   4.066  15.137  0.00  0.00    +0.000 A 
ENDBRANCH   1   9
BRANCH   1  13
ATOM     13  N   UNL     1       4.145   3.043  19.470  0.00  0.00    +0.000 N 
ATOM     14  H   UNL     1       4.829   2.319  19.682  0.00  0.00    +0.000 HD
BRANCH  13  15
ATOM     15  N   UNL     1       2.976   3.044  20.252  0.00  0.00    +0.000 N 
ATOM     16  C   UNL     1       1.694   3.180  19.817  0.00  0.00    +0.000 A 
ATOM     17  N   UNL     1       0.879   2.963  20.828  0.00  0.00    +0.000 NA
ATOM     18  N   UNL     1       1.651   2.658  21.933  0.00  0.00    +0.000 NA
ATOM     19  C   UNL     1       2.910   2.688  21.557  0.00  0.00    +0.000 A 
ENDBRANCH  13  15
ENDBRANCH   1  13
TORSDOF 3
ENDMDL
MODEL 9
REMARK VINA RESULT:      -6.6      3.060      5.613
REMARK  Name = 
REMARK  6 active torsions:
REMARK  status: ('A' for Active; 'I' for Inactive)
REMARK    1  A    between atoms: C_1  and  C_2
REMARK    2  A    between atoms: C_4  and  C_5
REMARK    3  A    between atoms: C_6  and  S_7
REMARK    4  A    between atoms: S_7  and  N_10
REMARK    5  A    between atoms: N_10  and  N_11
REMARK    6  A    between atoms: C_16  and  C_17
REMARK                            x       y       z     vdW  Elec       q    Type
REMARK                         _______ _______ _______ _____ _____    ______ ____
ROOT
ATOM      1  S   UNL     1       4.866   4.755  19.174  0.00  0.00    +0.000 S 
ATOM      2  O   UNL     1       5.957   4.748  20.126  0.00  0.00    +0.000 OA
ATOM      3  O   UNL     1       3.834   5.760  19.283  0.00  0.00    +0.000 OA
ENDROOT
BRANCH   1   9
ATOM      4  C   UNL     1       6.975   4.640  13.388  0.00  0.00    +0.000 C 
ATOM      5  C   UNL     1       6.454   4.663  14.796  0.00  0.00    +0.000 A 
ATOM      6  C   UNL     1       5.223   4.102  15.124  0.00  0.00    +0.000 A 
ATOM      7  C   UNL     1       4.725   4.131  16.444  0.00  0.00    +0.000 A 
ATOM      8  C   UNL     1       3.361   3.518  16.641  0.00  0.00    +0.000 C 
ATOM      9  C   UNL     1       5.495   4.749  17.472  0.00  0.00    +0.000 A 
ATOM     10  C   UNL     1       6.729   5.360  17.136  0.00  0.00    +0.000 A 
ATOM     11  C   UNL     1       7.644   6.094  18.082  0.00  0.00    +0.000 C 
ATOM     12  C   UNL     1       7.195   5.277  15.803  0.00  0.00    +0.000 A 
ENDBRANCH   1   9
BRANCH   1  13
ATOM     13  N   UNL     1       4.076   3.271  19.281  0.00  0.00    +0.000 N 
ATOM     14  H   UNL     1       4.743   2.504  19.338  0.00  0.00    +0.000 HD
BRANCH  13  15
ATOM     15  N   UNL     1       2.978   3.208  20.159  0.00  0.00    +0.000 N 
ATOM     16  C   UNL     1       1.668   3.410  19.854  0.00  0.00    +0.000 A 
ATOM     17  N   UNL     1       0.937   3.100  20.904  0.00  0.00    +0.000 NA
ATOM     18  N   UNL     1       1.792   2.666  21.899  0.00  0.00    +0.000 NA
ATOM     19  C   UNL     1       3.015   2.716  21.420  0.00  0.00    +0.000 A 
ENDBRANCH  13  15
ENDBRANCH   1  13
TORSDOF 3
ENDMDL
