MODEL 1
REMARK VINA RESULT:      -7.2      0.000      0.000
REMARK  Name = 
REMARK  9 active torsions:
REMARK  status: ('A' for Active; 'I' for Inactive)
REMARK    1  A    between atoms: C_1  and  N_2
REMARK    2  A    between atoms: N_2  and  C_3
REMARK    3  A    between atoms: N_2  and  S_4
REMARK    4  A    between atoms: S_4  and  C_7
REMARK    5  A    between atoms: C_9  and  N_10
REMARK    6  A    between atoms: C_11  and  C_13
REMARK    7  A    between atoms: C_13  and  N_14
REMARK    8  A    between atoms: N_14  and  C_15
REMARK    9  A    between atoms: C_15  and  C_16
REMARK                            x       y       z     vdW  Elec       q    Type
REMARK                         _______ _______ _______ _____ _____    ______ ____
ROOT
ATOM      1  N   UNL     1       3.112   6.243  18.017  0.00  0.00    +0.000 N 
ATOM      2  C   UNL     1       4.399   5.748  18.168  0.00  0.00    +0.000 C 
ATOM      3  O   UNL     1       5.128   5.946  19.143  0.00  0.00    +0.000 OA
ATOM      4  H   UNL     1       2.689   6.179  17.096  0.00  0.00    +0.000 HD
ENDROOT
BRANCH   1   7
ATOM      5  C   UNL     1       1.289   8.993  19.804  0.00  0.00    +0.000 A 
ATOM      6  C   UNL     1       2.028   8.304  18.825  0.00  0.00    +0.000 A 
ATOM      7  C   UNL     1       2.397   6.966  18.997  0.00  0.00    +0.000 A 
ATOM      8  C   UNL     1       2.063   6.333  20.193  0.00  0.00    +0.000 A 
ATOM      9  C   UNL     1       1.310   7.007  21.162  0.00  0.00    +0.000 A 
ATOM     10  C   UNL     1       0.913   8.336  20.975  0.00  0.00    +0.000 A 
ATOM     11 CL   UNL     1      -0.077   9.002  22.220  0.00  0.00    +0.000 Cl
BRANCH   5  12
ATOM     12  S   UNL     1       0.941  10.711  19.482  0.00  0.00    +0.000 S 
ATOM     13  O   UNL     1       1.605  11.054  18.245  0.00  0.00    +0.000 OA
ATOM     14  O   UNL     1       1.211  11.483  20.674  0.00  0.00    +0.000 OA
BRANCH  12  16
ATOM     15  C   UNL     1      -1.472  11.908  19.675  0.00  0.00    +0.000 C 
ATOM     16  N   UNL     1      -0.745  10.718  19.200  0.00  0.00    +0.000 NA
ATOM     17  C   UNL     1      -1.195  10.252  17.877  0.00  0.00    +0.000 C 
ENDBRANCH  12  16
ENDBRANCH   5  12
ENDBRANCH   1   7
BRANCH   2  18
ATOM     18  C   UNL     1       4.888   4.873  17.009  0.00  0.00    +0.000 C 
BRANCH  18  19
ATOM     19  N   UNL     1       4.946   3.453  17.400  0.00  0.00    +0.000 NA
ATOM     20  H   UNL     1       5.227   3.406  18.383  0.00  0.00    +0.000 HD
BRANCH  19  21
ATOM     21  C   UNL     1       3.646   2.788  17.271  0.00  0.00    +0.000 C 
BRANCH  21  22
ATOM     22  C   UNL     1       2.910   2.760  18.591  0.00  0.00    +0.000 A 
ATOM     23  C   UNL     1       1.513   2.894  18.631  0.00  0.00    +0.000 A 
ATOM     24  C   UNL     1       0.835   2.869  19.851  0.00  0.00    +0.000 A 
ATOM     25  C   UNL     1       1.552   2.711  21.030  0.00  0.00    +0.000 A 
ATOM     26  F   UNL     1       0.901   2.698  22.202  0.00  0.00    +0.000 F 
ATOM     27  C   UNL     1       2.934   2.571  21.014  0.00  0.00    +0.000 A 
ATOM     28  C   UNL     1       3.613   2.594  19.796  0.00  0.00    +0.000 A 
ENDBRANCH  21  22
ENDBRANCH  19  21
ENDBRANCH  18  19
ENDBRANCH   2  18
TORSDOF 7
ENDMDL
MODEL 2
REMARK VINA RESULT:      -7.1      3.977      8.227
REMARK  Name = 
REMARK  9 active torsions:
REMARK  status: ('A' for Active; 'I' for Inactive)
REMARK    1  A    between atoms: C_1  and  N_2
REMARK    2  A    between atoms: N_2  and  C_3
REMARK    3  A    between atoms: N_2  and  S_4
REMARK    4  A    between atoms: S_4  and  C_7
REMARK    5  A    between atoms: C_9  and  N_10
REMARK    6  A    between atoms: C_11  and  C_13
REMARK    7  A    between atoms: C_13  and  N_14
REMARK    8  A    between atoms: N_14  and  C_15
REMARK    9  A    between atoms: C_15  and  C_16
REMARK                            x       y       z     vdW  Elec       q    Type
REMARK                         _______ _______ _______ _____ _____    ______ ____
ROOT
ATOM      1  N   UNL     1       2.146   7.919  19.270  0.00  0.00    +0.000 N 
ATOM      2  C   UNL     1       1.522   8.994  18.653  0.00  0.00    +0.000 C 
ATOM      3  O   UNL     1       1.636   9.296  17.463  0.00  0.00    +0.000 OA
ATOM      4  H   UNL     1       2.134   7.888  20.284  0.00  0.00    +0.000 HD
ENDROOT
BRANCH   1   7
ATOM      5  C   UNL     1       3.688   4.641  18.292  0.00  0.00    +0.000 A 
ATOM      6  C   UNL     1       2.923   5.597  18.985  0.00  0.00    +0.000 A 
ATOM      7  C   UNL     1       2.928   6.945  18.611  0.00  0.00    +0.000 A 
ATOM      8  C   UNL     1       3.756   7.341  17.562  0.00  0.00    +0.000 A 
ATOM      9  C   UNL     1       4.504   6.390  16.856  0.00  0.00    +0.000 A 
ATOM     10  C   UNL     1       4.473   5.036  17.210  0.00  0.00    +0.000 A 
ATOM     11 CL   UNL     1       5.383   3.978  16.197  0.00  0.00    +0.000 Cl
BRANCH   5  12
ATOM     12  S   UNL     1       3.636   2.972  18.915  0.00  0.00    +0.000 S 
ATOM     13  O   UNL     1       4.839   2.770  19.690  0.00  0.00    +0.000 OA
ATOM     14  O   UNL     1       3.326   2.068  17.830  0.00  0.00    +0.000 OA
BRANCH  12  16
ATOM     15  C   UNL     1       1.058   2.405  19.490  0.00  0.00    +0.000 C 
ATOM     16  N   UNL     1       2.309   3.003  19.991  0.00  0.00    +0.000 NA
ATOM     17  C   UNL     1       2.591   2.664  21.398  0.00  0.00    +0.000 C 
ENDBRANCH  12  16
ENDBRANCH   5  12
ENDBRANCH   1   7
BRANCH   2  18
ATOM     18  C   UNL     1       0.613   9.819  19.572  0.00  0.00    +0.000 C 
BRANCH  18  19
ATOM     19  N   UNL     1       0.026  10.962  18.852  0.00  0.00    +0.000 NA
ATOM     20  H   UNL     1       0.148  10.802  17.848  0.00  0.00    +0.000 HD
BRANCH  19  21
ATOM     21  C   UNL     1      -1.408  11.107  19.114  0.00  0.00    +0.000 C 
BRANCH  21  22
ATOM     22  C   UNL     1      -2.223  10.857  17.865  0.00  0.00    +0.000 A 
ATOM     23  C   UNL     1      -1.772   9.952  16.890  0.00  0.00    +0.000 A 
ATOM     24  C   UNL     1      -2.525   9.724  15.736  0.00  0.00    +0.000 A 
ATOM     25  C   UNL     1      -3.725  10.398  15.556  0.00  0.00    +0.000 A 
ATOM     26  F   UNL     1      -4.441  10.186  14.444  0.00  0.00    +0.000 F 
ATOM     27  C   UNL     1      -4.193  11.293  16.510  0.00  0.00    +0.000 A 
ATOM     28  C   UNL     1      -3.443  11.521  17.665  0.00  0.00    +0.000 A 
ENDBRANCH  21  22
ENDBRANCH  19  21
ENDBRANCH  18  19
ENDBRANCH   2  18
TORSDOF 7
ENDMDL
MODEL 3
REMARK VINA RESULT:      -6.9      3.778      7.835
REMARK  Name = 
REMARK  9 active torsions:
REMARK  status: ('A' for Active; 'I' for Inactive)
REMARK    1  A    between atoms: C_1  and  N_2
REMARK    2  A    between atoms: N_2  and  C_3
REMARK    3  A    between atoms: N_2  and  S_4
REMARK    4  A    between atoms: S_4  and  C_7
REMARK    5  A    between atoms: C_9  and  N_10
REMARK    6  A    between atoms: C_11  and  C_13
REMARK    7  A    between atoms: C_13  and  N_14
REMARK    8  A    between atoms: N_14  and  C_15
REMARK    9  A    between atoms: C_15  and  C_16
REMARK                            x       y       z     vdW  Elec       q    Type
REMARK                         _______ _______ _______ _____ _____    ______ ____
ROOT
ATOM      1  N   UNL     1       1.922   8.185  20.067  0.00  0.00    +0.000 N 
ATOM      2  C   UNL     1       1.478   8.999  19.036  0.00  0.00    +0.000 C 
ATOM      3  O   UNL     1       1.418   8.673  17.847  0.00  0.00    +0.000 OA
ATOM      4  H   UNL     1       2.113   8.623  20.963  0.00  0.00    +0.000 HD
ENDROOT
BRANCH   1   7
ATOM      5  C   UNL     1       3.720   5.043  19.076  0.00  0.00    +0.000 A 
ATOM      6  C   UNL     1       3.368   6.403  19.166  0.00  0.00    +0.000 A 
ATOM      7  C   UNL     1       2.279   6.824  19.935  0.00  0.00    +0.000 A 
ATOM      8  C   UNL     1       1.504   5.859  20.577  0.00  0.00    +0.000 A 
ATOM      9  C   UNL     1       1.862   4.507  20.508  0.00  0.00    +0.000 A 
ATOM     10  C   UNL     1       2.972   4.089  19.764  0.00  0.00    +0.000 A 
ATOM     11 CL   UNL     1       3.332   2.404  19.842  0.00  0.00    +0.000 Cl
BRANCH   5  12
ATOM     12  S   UNL     1       5.092   4.641  18.011  0.00  0.00    +0.000 S 
ATOM     13  O   UNL     1       4.565   3.858  16.917  0.00  0.00    +0.000 OA
ATOM     14  O   UNL     1       6.176   4.114  18.809  0.00  0.00    +0.000 OA
BRANCH  12  16
ATOM     15  C   UNL     1       6.944   6.581  17.691  0.00  0.00    +0.000 C 
ATOM     16  N   UNL     1       5.562   6.165  17.396  0.00  0.00    +0.000 NA
ATOM     17  C   UNL     1       5.143   6.479  16.018  0.00  0.00    +0.000 C 
ENDBRANCH  12  16
ENDBRANCH   5  12
ENDBRANCH   1   7
BRANCH   2  18
ATOM     18  C   UNL     1       1.019  10.393  19.474  0.00  0.00    +0.000 C 
BRANCH  18  19
ATOM     19  N   UNL     1       0.108  10.990  18.481  0.00  0.00    +0.000 NA
ATOM     20  H   UNL     1       0.262  10.519  17.586  0.00  0.00    +0.000 HD
BRANCH  19  21
ATOM     21  C   UNL     1      -1.301  10.819  18.846  0.00  0.00    +0.000 C 
BRANCH  21  22
ATOM     22  C   UNL     1      -2.168  10.649  17.619  0.00  0.00    +0.000 A 
ATOM     23  C   UNL     1      -1.814   9.731  16.618  0.00  0.00    +0.000 A 
ATOM     24  C   UNL     1      -2.616   9.576  15.485  0.00  0.00    +0.000 A 
ATOM     25  C   UNL     1      -3.769  10.339  15.352  0.00  0.00    +0.000 A 
ATOM     26  F   UNL     1      -4.532  10.197  14.260  0.00  0.00    +0.000 F 
ATOM     27  C   UNL     1      -4.142  11.249  16.334  0.00  0.00    +0.000 A 
ATOM     28  C   UNL     1      -3.343  11.403  17.467  0.00  0.00    +0.000 A 
ENDBRANCH  21  22
ENDBRANCH  19  21
ENDBRANCH  18  19
ENDBRANCH   2  18
TORSDOF 7
ENDMDL
MODEL 4
REMARK VINA RESULT:      -6.9      3.878      8.055
REMARK  Name = 
REMARK  9 active torsions:
REMARK  status: ('A' for Active; 'I' for Inactive)
REMARK    1  A    between atoms: C_1  and  N_2
REMARK    2  A    between atoms: N_2  and  C_3
REMARK    3  A    between atoms: N_2  and  S_4
REMARK    4  A    between atoms: S_4  and  C_7
REMARK    5  A    between atoms: C_9  and  N_10
REMARK    6  A    between atoms: C_11  and  C_13
REMARK    7  A    between atoms: C_13  and  N_14
REMARK    8  A    between atoms: N_14  and  C_15
REMARK    9  A    between atoms: C_15  and  C_16
REMARK                            x       y       z     vdW  Elec       q    Type
REMARK                         _______ _______ _______ _____ _____    ______ ____
ROOT
ATOM      1  N   UNL     1       2.020   7.967  19.385  0.00  0.00    +0.000 N 
ATOM      2  C   UNL     1       1.636   9.072  18.641  0.00  0.00    +0.000 C 
ATOM      3  O   UNL     1       1.748   9.180  17.417  0.00  0.00    +0.000 OA
ATOM      4  H   UNL     1       2.062   8.071  20.394  0.00  0.00    +0.000 HD
ENDROOT
BRANCH   1   7
ATOM      5  C   UNL     1       4.101   5.470  17.510  0.00  0.00    +0.000 A 
ATOM      6  C   UNL     1       3.618   6.695  18.004  0.00  0.00    +0.000 A 
ATOM      7  C   UNL     1       2.506   6.753  18.849  0.00  0.00    +0.000 A 
ATOM      8  C   UNL     1       1.840   5.567  19.155  0.00  0.00    +0.000 A 
ATOM      9  C   UNL     1       2.328   4.342  18.682  0.00  0.00    +0.000 A 
ATOM     10  C   UNL     1       3.461   4.282  17.862  0.00  0.00    +0.000 A 
ATOM     11 CL   UNL     1       3.985   2.698  17.428  0.00  0.00    +0.000 Cl
BRANCH   5  12
ATOM     12  S   UNL     1       5.488   5.548  16.393  0.00  0.00    +0.000 S 
ATOM     13  O   UNL     1       5.352   6.769  15.632  0.00  0.00    +0.000 OA
ATOM     14  O   UNL     1       5.614   4.286  15.701  0.00  0.00    +0.000 OA
BRANCH  12  16
ATOM     15  C   UNL     1       7.695   4.546  17.584  0.00  0.00    +0.000 C 
ATOM     16  N   UNL     1       6.822   5.725  17.447  0.00  0.00    +0.000 NA
ATOM     17  C   UNL     1       7.569   6.993  17.360  0.00  0.00    +0.000 C 
ENDBRANCH  12  16
ENDBRANCH   5  12
ENDBRANCH   1   7
BRANCH   2  18
ATOM     18  C   UNL     1       1.007  10.206  19.458  0.00  0.00    +0.000 C 
BRANCH  18  19
ATOM     19  N   UNL     1      -0.423   9.956  19.705  0.00  0.00    +0.000 NA
ATOM     20  H   UNL     1      -0.540   9.731  20.697  0.00  0.00    +0.000 HD
BRANCH  19  21
ATOM     21  C   UNL     1      -1.252  11.126  19.406  0.00  0.00    +0.000 C 
BRANCH  21  22
ATOM     22  C   UNL     1      -2.092  10.902  18.168  0.00  0.00    +0.000 A 
ATOM     23  C   UNL     1      -3.286  11.617  17.979  0.00  0.00    +0.000 A 
ATOM     24  C   UNL     1      -4.061  11.408  16.836  0.00  0.00    +0.000 A 
ATOM     25  C   UNL     1      -3.645  10.486  15.885  0.00  0.00    +0.000 A 
ATOM     26  F   UNL     1      -4.394  10.279  14.794  0.00  0.00    +0.000 F 
ATOM     27  C   UNL     1      -2.464   9.772  16.049  0.00  0.00    +0.000 A 
ATOM     28  C   UNL     1      -1.687   9.981  17.189  0.00  0.00    +0.000 A 
ENDBRANCH  21  22
ENDBRANCH  19  21
ENDBRANCH  18  19
ENDBRANCH   2  18
TORSDOF 7
ENDMDL
MODEL 5
REMARK VINA RESULT:      -6.9      3.949      8.146
REMARK  Name = 
REMARK  9 active torsions:
REMARK  status: ('A' for Active; 'I' for Inactive)
REMARK    1  A    between atoms: C_1  and  N_2
REMARK    2  A    between atoms: N_2  and  C_3
REMARK    3  A    between atoms: N_2  and  S_4
REMARK    4  A    between atoms: S_4  and  C_7
REMARK    5  A    between atoms: C_9  and  N_10
REMARK    6  A    between atoms: C_11  and  C_13
REMARK    7  A    between atoms: C_13  and  N_14
REMARK    8  A    between atoms: N_14  and  C_15
REMARK    9  A    between atoms: C_15  and  C_16
REMARK                            x       y       z     vdW  Elec       q    Type
REMARK                         _______ _______ _______ _____ _____    ______ ____
ROOT
ATOM      1  N   UNL     1       1.847   8.544  18.415  0.00  0.00    +0.000 N 
ATOM      2  C   UNL     1       1.470   8.872  19.709  0.00  0.00    +0.000 C 
ATOM      3  O   UNL     1       1.666   8.173  20.707  0.00  0.00    +0.000 OA
ATOM      4  H   UNL     1       1.461   9.099  17.658  0.00  0.00    +0.000 HD
ENDROOT
BRANCH   1   7
ATOM      5  C   UNL     1       2.895   4.987  17.839  0.00  0.00    +0.000 A 
ATOM      6  C   UNL     1       2.136   6.102  18.241  0.00  0.00    +0.000 A 
ATOM      7  C   UNL     1       2.602   7.407  18.051  0.00  0.00    +0.000 A 
ATOM      8  C   UNL     1       3.870   7.588  17.500  0.00  0.00    +0.000 A 
ATOM      9  C   UNL     1       4.621   6.482  17.081  0.00  0.00    +0.000 A 
ATOM     10  C   UNL     1       4.140   5.177  17.241  0.00  0.00    +0.000 A 
ATOM     11 CL   UNL     1       5.143   3.928  16.603  0.00  0.00    +0.000 Cl
BRANCH   5  12
ATOM     12  S   UNL     1       2.209   3.382  18.199  0.00  0.00    +0.000 S 
ATOM     13  O   UNL     1       2.114   2.670  16.945  0.00  0.00    +0.000 OA
ATOM     14  O   UNL     1       1.030   3.541  19.021  0.00  0.00    +0.000 OA
BRANCH  12  16
ATOM     15  C   UNL     1       3.279   2.760  20.600  0.00  0.00    +0.000 C 
ATOM     16  N   UNL     1       3.430   2.642  19.139  0.00  0.00    +0.000 NA
ATOM     17  C   UNL     1       3.877   1.305  18.708  0.00  0.00    +0.000 C 
ENDBRANCH  12  16
ENDBRANCH   5  12
ENDBRANCH   1   7
BRANCH   2  18
ATOM     18  C   UNL     1       0.782  10.235  19.849  0.00  0.00    +0.000 C 
BRANCH  18  19
ATOM     19  N   UNL     1      -0.683  10.086  19.921  0.00  0.00    +0.000 NA
ATOM     20  H   UNL     1      -0.939   9.940  20.902  0.00  0.00    +0.000 HD
BRANCH  19  21
ATOM     21  C   UNL     1      -1.386  11.279  19.444  0.00  0.00    +0.000 C 
BRANCH  21  22
ATOM     22  C   UNL     1      -2.164  10.988  18.180  0.00  0.00    +0.000 A 
ATOM     23  C   UNL     1      -1.703  10.027  17.266  0.00  0.00    +0.000 A 
ATOM     24  C   UNL     1      -2.421   9.760  16.099  0.00  0.00    +0.000 A 
ATOM     25  C   UNL     1      -3.598  10.453  15.844  0.00  0.00    +0.000 A 
ATOM     26  F   UNL     1      -4.281  10.204  14.719  0.00  0.00    +0.000 F 
ATOM     27  C   UNL     1      -4.075  11.404  16.738  0.00  0.00    +0.000 A 
ATOM     28  C   UNL     1      -3.360  11.670  17.906  0.00  0.00    +0.000 A 
ENDBRANCH  21  22
ENDBRANCH  19  21
ENDBRANCH  18  19
ENDBRANCH   2  18
TORSDOF 7
ENDMDL
MODEL 6
REMARK VINA RESULT:      -6.8      4.045      8.177
REMARK  Name = 
REMARK  9 active torsions:
REMARK  status: ('A' for Active; 'I' for Inactive)
REMARK    1  A    between atoms: C_1  and  N_2
REMARK    2  A    between atoms: N_2  and  C_3
REMARK    3  A    between atoms: N_2  and  S_4
REMARK    4  A    between atoms: S_4  and  C_7
REMARK    5  A    between atoms: C_9  and  N_10
REMARK    6  A    between atoms: C_11  and  C_13
REMARK    7  A    between atoms: C_13  and  N_14
REMARK    8  A    between atoms: N_14  and  C_15
REMARK    9  A    between atoms: C_15  and  C_16
REMARK                            x       y       z     vdW  Elec       q    Type
REMARK                         _______ _______ _______ _____ _____    ______ ____
ROOT
ATOM      1  N   UNL     1       2.003   7.989  19.335  0.00  0.00    +0.000 N 
ATOM      2  C   UNL     1       1.572   9.137  18.688  0.00  0.00    +0.000 C 
ATOM      3  O   UNL     1       1.754   9.394  17.495  0.00  0.00    +0.000 OA
ATOM      4  H   UNL     1       1.969   7.980  20.349  0.00  0.00    +0.000 HD
ENDROOT
BRANCH   1   7
ATOM      5  C   UNL     1       2.793   4.498  18.205  0.00  0.00    +0.000 A 
ATOM      6  C   UNL     1       2.172   5.574  18.866  0.00  0.00    +0.000 A 
ATOM      7  C   UNL     1       2.627   6.887  18.709  0.00  0.00    +0.000 A 
ATOM      8  C   UNL     1       3.755   7.110  17.920  0.00  0.00    +0.000 A 
ATOM      9  C   UNL     1       4.366   6.046  17.245  0.00  0.00    +0.000 A 
ATOM     10  C   UNL     1       3.889   4.736  17.376  0.00  0.00    +0.000 A 
ATOM     11 CL   UNL     1       4.694   3.549  16.420  0.00  0.00    +0.000 Cl
BRANCH   5  12
ATOM     12  S   UNL     1       2.148   2.872  18.544  0.00  0.00    +0.000 S 
ATOM     13  O   UNL     1       2.617   2.000  17.491  0.00  0.00    +0.000 OA
ATOM     14  O   UNL     1       0.731   2.968  18.814  0.00  0.00    +0.000 OA
BRANCH  12  16
ATOM     15  C   UNL     1       4.418   2.388  19.926  0.00  0.00    +0.000 C 
ATOM     16  N   UNL     1       2.947   2.435  19.991  0.00  0.00    +0.000 NA
ATOM     17  C   UNL     1       2.440   3.041  21.235  0.00  0.00    +0.000 C 
ENDBRANCH  12  16
ENDBRANCH   5  12
ENDBRANCH   1   7
BRANCH   2  18
ATOM     18  C   UNL     1       0.794  10.117  19.574  0.00  0.00    +0.000 C 
BRANCH  18  19
ATOM     19  N   UNL     1       0.013  11.066  18.761  0.00  0.00    +0.000 NA
ATOM     20  H   UNL     1       0.143  10.820  17.775  0.00  0.00    +0.000 HD
BRANCH  19  21
ATOM     21  C   UNL     1      -1.420  11.003  19.058  0.00  0.00    +0.000 C 
BRANCH  21  22
ATOM     22  C   UNL     1      -2.231  10.774  17.802  0.00  0.00    +0.000 A 
ATOM     23  C   UNL     1      -3.433  11.469  17.593  0.00  0.00    +0.000 A 
ATOM     24  C   UNL     1      -4.180  11.255  16.434  0.00  0.00    +0.000 A 
ATOM     25  C   UNL     1      -3.729  10.348  15.484  0.00  0.00    +0.000 A 
ATOM     26  F   UNL     1      -4.453  10.136  14.377  0.00  0.00    +0.000 F 
ATOM     27  C   UNL     1      -2.540   9.654  15.667  0.00  0.00    +0.000 A 
ATOM     28  C   UNL     1      -1.790   9.868  16.824  0.00  0.00    +0.000 A 
ENDBRANCH  21  22
ENDBRANCH  19  21
ENDBRANCH  18  19
ENDBRANCH   2  18
TORSDOF 7
ENDMDL
MODEL 7
REMARK VINA RESULT:      -6.8      2.314      3.667
REMARK  Name = 
REMARK  9 active torsions:
REMARK  status: ('A' for Active; 'I' for Inactive)
REMARK    1  A    between atoms: C_1  and  N_2
REMARK    2  A    between atoms: N_2  and  C_3
REMARK    3  A    between atoms: N_2  and  S_4
REMARK    4  A    between atoms: S_4  and  C_7
REMARK    5  A    between atoms: C_9  and  N_10
REMARK    6  A    between atoms: C_11  and  C_13
REMARK    7  A    between atoms: C_13  and  N_14
REMARK    8  A    between atoms: N_14  and  C_15
REMARK    9  A    between atoms: C_15  and  C_16
REMARK                            x       y       z     vdW  Elec       q    Type
REMARK                         _______ _______ _______ _____ _____    ______ ____
ROOT
ATOM      1  N   UNL     1       1.289   9.543  17.817  0.00  0.00    +0.000 N 
ATOM      2  C   UNL     1       1.999   8.519  18.424  0.00  0.00    +0.000 C 
ATOM      3  O   UNL     1       1.860   8.152  19.593  0.00  0.00    +0.000 OA
ATOM      4  H   UNL     1       1.626   9.882  16.921  0.00  0.00    +0.000 HD
ENDROOT
BRANCH   1   7
ATOM      5  C   UNL     1      -0.662  11.834  20.059  0.00  0.00    +0.000 A 
ATOM      6  C   UNL     1       0.409  11.107  19.507  0.00  0.00    +0.000 A 
ATOM      7  C   UNL     1       0.226  10.260  18.410  0.00  0.00    +0.000 A 
ATOM      8  C   UNL     1      -1.061  10.103  17.898  0.00  0.00    +0.000 A 
ATOM      9  C   UNL     1      -2.127  10.839  18.431  0.00  0.00    +0.000 A 
ATOM     10  C   UNL     1      -1.937  11.712  19.509  0.00  0.00    +0.000 A 
ATOM     11 CL   UNL     1      -3.327  12.607  20.000  0.00  0.00    +0.000 Cl
BRANCH   5  12
ATOM     12  S   UNL     1      -0.298  12.827  21.494  0.00  0.00    +0.000 S 
ATOM     13  O   UNL     1      -1.095  14.028  21.393  0.00  0.00    +0.000 OA
ATOM     14  O   UNL     1       1.135  12.932  21.650  0.00  0.00    +0.000 OA
BRANCH  12  16
ATOM     15  C   UNL     1      -2.296  12.195  23.199  0.00  0.00    +0.000 C 
ATOM     16  N   UNL     1      -0.917  11.886  22.781  0.00  0.00    +0.000 NA
ATOM     17  C   UNL     1      -0.634  10.441  22.738  0.00  0.00    +0.000 C 
ENDBRANCH  12  16
ENDBRANCH   5  12
ENDBRANCH   1   7
BRANCH   2  18
ATOM     18  C   UNL     1       3.005   7.809  17.511  0.00  0.00    +0.000 C 
BRANCH  18  19
ATOM     19  N   UNL     1       3.596   6.637  18.179  0.00  0.00    +0.000 NA
ATOM     20  H   UNL     1       3.430   6.728  19.185  0.00  0.00    +0.000 HD
BRANCH  19  21
ATOM     21  C   UNL     1       2.991   5.379  17.734  0.00  0.00    +0.000 C 
BRANCH  21  22
ATOM     22  C   UNL     1       2.411   4.607  18.898  0.00  0.00    +0.000 A 
ATOM     23  C   UNL     1       2.852   4.856  20.207  0.00  0.00    +0.000 A 
ATOM     24  C   UNL     1       2.317   4.141  21.281  0.00  0.00    +0.000 A 
ATOM     25  C   UNL     1       1.344   3.178  21.046  0.00  0.00    +0.000 A 
ATOM     26  F   UNL     1       0.839   2.486  22.076  0.00  0.00    +0.000 F 
ATOM     27  C   UNL     1       0.889   2.919  19.759  0.00  0.00    +0.000 A 
ATOM     28  C   UNL     1       1.421   3.634  18.686  0.00  0.00    +0.000 A 
ENDBRANCH  21  22
ENDBRANCH  19  21
ENDBRANCH  18  19
ENDBRANCH   2  18
TORSDOF 7
ENDMDL
MODEL 8
REMARK VINA RESULT:      -6.6      4.146      8.336
REMARK  Name = 
REMARK  9 active torsions:
REMARK  status: ('A' for Active; 'I' for Inactive)
REMARK    1  A    between atoms: C_1  and  N_2
REMARK    2  A    between atoms: N_2  and  C_3
REMARK    3  A    between atoms: N_2  and  S_4
REMARK    4  A    between atoms: S_4  and  C_7
REMARK    5  A    between atoms: C_9  and  N_10
REMARK    6  A    between atoms: C_11  and  C_13
REMARK    7  A    between atoms: C_13  and  N_14
REMARK    8  A    between atoms: N_14  and  C_15
REMARK    9  A    between atoms: C_15  and  C_16
REMARK                            x       y       z     vdW  Elec       q    Type
REMARK                         _______ _______ _______ _____ _____    ______ ____
ROOT
ATOM      1  N   UNL     1       2.040   8.000  18.922  0.00  0.00    +0.000 N 
ATOM      2  C   UNL     1       1.748   9.208  18.306  0.00  0.00    +0.000 C 
ATOM      3  O   UNL     1       2.230   9.599  17.240  0.00  0.00    +0.000 OA
ATOM      4  H   UNL     1       1.737   7.877  19.883  0.00  0.00    +0.000 HD
ENDROOT
BRANCH   1   7
ATOM      5  C   UNL     1       3.542   4.645  18.168  0.00  0.00    +0.000 A 
ATOM      6  C   UNL     1       2.738   5.642  18.750  0.00  0.00    +0.000 A 
ATOM      7  C   UNL     1       2.856   6.985  18.376  0.00  0.00    +0.000 A 
ATOM      8  C   UNL     1       3.833   7.332  17.444  0.00  0.00    +0.000 A 
ATOM      9  C   UNL     1       4.623   6.342  16.847  0.00  0.00    +0.000 A 
ATOM     10  C   UNL     1       4.481   4.994  17.198  0.00  0.00    +0.000 A 
ATOM     11 CL   UNL     1       5.467   3.886  16.318  0.00  0.00    +0.000 Cl
BRANCH   5  12
ATOM     12  S   UNL     1       3.330   2.986  18.783  0.00  0.00    +0.000 S 
ATOM     13  O   UNL     1       4.531   2.647  19.513  0.00  0.00    +0.000 OA
ATOM     14  O   UNL     1       2.884   2.132  17.706  0.00  0.00    +0.000 OA
BRANCH  12  16
ATOM     15  C   UNL     1       0.744   2.634  19.478  0.00  0.00    +0.000 C 
ATOM     16  N   UNL     1       2.054   3.152  19.909  0.00  0.00    +0.000 NA
ATOM     17  C   UNL     1       2.368   2.841  21.315  0.00  0.00    +0.000 C 
ENDBRANCH  12  16
ENDBRANCH   5  12
ENDBRANCH   1   7
BRANCH   2  18
ATOM     18  C   UNL     1       0.720  10.071  19.046  0.00  0.00    +0.000 C 
BRANCH  18  19
ATOM     19  N   UNL     1      -0.138  10.806  18.100  0.00  0.00    +0.000 NA
ATOM     20  H   UNL     1       0.444  11.113  17.316  0.00  0.00    +0.000 HD
BRANCH  19  21
ATOM     21  C   UNL     1      -1.216   9.971  17.564  0.00  0.00    +0.000 C 
BRANCH  21  22
ATOM     22  C   UNL     1      -2.551  10.675  17.654  0.00  0.00    +0.000 A 
ATOM     23  C   UNL     1      -3.473  10.592  16.597  0.00  0.00    +0.000 A 
ATOM     24  C   UNL     1      -4.705  11.243  16.681  0.00  0.00    +0.000 A 
ATOM     25  C   UNL     1      -5.016  11.978  17.818  0.00  0.00    +0.000 A 
ATOM     26  F   UNL     1      -6.194  12.611  17.893  0.00  0.00    +0.000 F 
ATOM     27  C   UNL     1      -4.122  12.070  18.877  0.00  0.00    +0.000 A 
ATOM     28  C   UNL     1      -2.891  11.417  18.796  0.00  0.00    +0.000 A 
ENDBRANCH  21  22
ENDBRANCH  19  21
ENDBRANCH  18  19
ENDBRANCH   2  18
TORSDOF 7
ENDMDL
MODEL 9
REMARK VINA RESULT:      -6.6      3.965      8.182
REMARK  Name = 
REMARK  9 active torsions:
REMARK  status: ('A' for Active; 'I' for Inactive)
REMARK    1  A    between atoms: C_1  and  N_2
REMARK    2  A    between atoms: N_2  and  C_3
REMARK    3  A    between atoms: N_2  and  S_4
REMARK    4  A    between atoms: S_4  and  C_7
REMARK    5  A    between atoms: C_9  and  N_10
REMARK    6  A    between atoms: C_11  and  C_13
REMARK    7  A    between atoms: C_13  and  N_14
REMARK    8  A    between atoms: N_14  and  C_15
REMARK    9  A    between atoms: C_15  and  C_16
REMARK                            x       y       z     vdW  Elec       q    Type
REMARK                         _______ _______ _______ _____ _____    ______ ____
ROOT
ATOM      1  N   UNL     1       1.872   6.712  20.894  0.00  0.00    +0.000 N 
ATOM      2  C   UNL     1       1.672   7.968  20.343  0.00  0.00    +0.000 C 
ATOM      3  O   UNL     1       1.917   8.281  19.175  0.00  0.00    +0.000 OA
ATOM      4  H   UNL     1       1.821   6.628  21.905  0.00  0.00    +0.000 HD
ENDROOT
BRANCH   1   7
ATOM      5  C   UNL     1       3.906   4.359  18.794  0.00  0.00    +0.000 A 
ATOM      6  C   UNL     1       3.496   5.523  19.471  0.00  0.00    +0.000 A 
ATOM      7  C   UNL     1       2.292   5.567  20.181  0.00  0.00    +0.000 A 
ATOM      8  C   UNL     1       1.468   4.443  20.164  0.00  0.00    +0.000 A 
ATOM      9  C   UNL     1       1.880   3.275  19.509  0.00  0.00    +0.000 A 
ATOM     10  C   UNL     1       3.101   3.221  18.826  0.00  0.00    +0.000 A 
ATOM     11 CL   UNL     1       3.505   1.692  18.140  0.00  0.00    +0.000 Cl
BRANCH   5  12
ATOM     12  S   UNL     1       5.431   4.462  17.878  0.00  0.00    +0.000 S 
ATOM     13  O   UNL     1       5.229   3.753  16.635  0.00  0.00    +0.000 OA
ATOM     14  O   UNL     1       6.531   4.093  18.740  0.00  0.00    +0.000 OA
BRANCH  12  16
ATOM     15  C   UNL     1       6.876   6.741  17.755  0.00  0.00    +0.000 C 
ATOM     16  N   UNL     1       5.555   6.130  17.523  0.00  0.00    +0.000 NA
ATOM     17  C   UNL     1       4.913   6.590  16.278  0.00  0.00    +0.000 C 
ENDBRANCH  12  16
ENDBRANCH   5  12
ENDBRANCH   1   7
BRANCH   2  18
ATOM     18  C   UNL     1       1.074   9.001  21.305  0.00  0.00    +0.000 C 
BRANCH  18  19
ATOM     19  N   UNL     1       0.184   9.937  20.596  0.00  0.00    +0.000 NA
ATOM     20  H   UNL     1      -0.777   9.600  20.698  0.00  0.00    +0.000 HD
BRANCH  19  21
ATOM     21  C   UNL     1       0.249  11.292  21.149  0.00  0.00    +0.000 C 
BRANCH  21  22
ATOM     22  C   UNL     1      -1.112  11.761  21.614  0.00  0.00    +0.000 A 
ATOM     23  C   UNL     1      -1.509  11.581  22.949  0.00  0.00    +0.000 A 
ATOM     24  C   UNL     1      -2.766  12.014  23.376  0.00  0.00    +0.000 A 
ATOM     25  C   UNL     1      -3.626  12.623  22.471  0.00  0.00    +0.000 A 
ATOM     26  F   UNL     1      -4.836  13.027  22.879  0.00  0.00    +0.000 F 
ATOM     27  C   UNL     1      -3.251  12.815  21.147  0.00  0.00    +0.000 A 
ATOM     28  C   UNL     1      -1.994  12.386  20.719  0.00  0.00    +0.000 A 
ENDBRANCH  21  22
ENDBRANCH  19  21
ENDBRANCH  18  19
ENDBRANCH   2  18
TORSDOF 7
ENDMDL
