MODEL 1
REMARK VINA RESULT:      -8.0      0.000      0.000
REMARK  Name = 
REMARK  1 active torsions:
REMARK  status: ('A' for Active; 'I' for Inactive)
REMARK    1  A    between atoms: C_2  and  C_3
REMARK                            x       y       z     vdW  Elec       q    Type
REMARK                         _______ _______ _______ _____ _____    ______ ____
ROOT
ATOM      1  C   UNL     1       5.261   4.374  16.488  0.00  0.00    +0.000 A 
ATOM      2  C   UNL     1       6.308   5.282  16.607  0.00  0.00    +0.000 A 
ATOM      3  N   UNL     1       7.166   5.617  15.612  0.00  0.00    +0.000 NA
ATOM      4  C   UNL     1       6.997   5.030  14.415  0.00  0.00    +0.000 A 
ATOM      5  C   UNL     1       7.865   5.329  13.373  0.00  0.00    +0.000 A 
ATOM      6  C   UNL     1       7.731   4.739  12.112  0.00  0.00    +0.000 A 
ATOM      7  C   UNL     1       6.705   3.831  11.877  0.00  0.00    +0.000 A 
ATOM      8  C   UNL     1       5.820   3.515  12.904  0.00  0.00    +0.000 A 
ATOM      9  C   UNL     1       5.963   4.104  14.172  0.00  0.00    +0.000 A 
ATOM     10  C   UNL     1       5.094   3.793  15.228  0.00  0.00    +0.000 A 
ENDROOT
BRANCH   1  12
ATOM     11  C   UNL     1       4.552   4.439  18.881  0.00  0.00    +0.000 C 
ATOM     12  C   UNL     1       4.371   4.045  17.604  0.00  0.00    +0.000 C 
ATOM     13  C   UNL     1       3.077   3.245  17.448  0.00  0.00    +0.000 C 
ATOM     14  C   UNL     1       3.178   2.039  18.420  0.00  0.00    +0.000 C 
ATOM     15  C   UNL     1       3.422   2.560  19.856  0.00  0.00    +0.000 C 
ATOM     16  N   UNL     1       3.556   4.052  19.796  0.00  0.00    +0.000 N 
ATOM     17  C   UNL     1       2.221   4.607  19.399  0.00  0.00    +0.000 C 
ATOM     18  C   UNL     1       1.914   4.137  17.955  0.00  0.00    +0.000 C 
ENDBRANCH   1  12
TORSDOF 1
ENDMDL
MODEL 2
REMARK VINA RESULT:      -7.6      0.821      1.278
REMARK  Name = 
REMARK  1 active torsions:
REMARK  status: ('A' for Active; 'I' for Inactive)
REMARK    1  A    between atoms: C_2  and  C_3
REMARK                            x       y       z     vdW  Elec       q    Type
REMARK                         _______ _______ _______ _____ _____    ______ ____
ROOT
ATOM      1  C   UNL     1       5.003   4.472  16.382  0.00  0.00    +0.000 A 
ATOM      2  C   UNL     1       6.041   5.381  16.557  0.00  0.00    +0.000 A 
ATOM      3  N   UNL     1       6.973   5.690  15.621  0.00  0.00    +0.000 NA
ATOM      4  C   UNL     1       6.893   5.074  14.430  0.00  0.00    +0.000 A 
ATOM      5  C   UNL     1       7.838   5.346  13.449  0.00  0.00    +0.000 A 
ATOM      6  C   UNL     1       7.797   4.726  12.196  0.00  0.00    +0.000 A 
ATOM      7  C   UNL     1       6.789   3.814  11.908  0.00  0.00    +0.000 A 
ATOM      8  C   UNL     1       5.828   3.524  12.872  0.00  0.00    +0.000 A 
ATOM      9  C   UNL     1       5.877   4.144  14.132  0.00  0.00    +0.000 A 
ATOM     10  C   UNL     1       4.930   3.860  15.127  0.00  0.00    +0.000 A 
ENDROOT
BRANCH   1  12
ATOM     11  C   UNL     1       4.011   3.042  18.171  0.00  0.00    +0.000 C 
ATOM     12  C   UNL     1       4.031   4.171  17.435  0.00  0.00    +0.000 C 
ATOM     13  C   UNL     1       2.933   5.140  17.876  0.00  0.00    +0.000 C 
ATOM     14  C   UNL     1       1.586   4.381  17.737  0.00  0.00    +0.000 C 
ATOM     15  C   UNL     1       1.645   3.080  18.574  0.00  0.00    +0.000 C 
ATOM     16  N   UNL     1       3.019   2.967  19.165  0.00  0.00    +0.000 N 
ATOM     17  C   UNL     1       3.173   4.080  20.159  0.00  0.00    +0.000 C 
ATOM     18  C   UNL     1       3.139   5.423  19.387  0.00  0.00    +0.000 C 
ENDBRANCH   1  12
TORSDOF 1
ENDMDL
MODEL 3
REMARK VINA RESULT:      -7.5      0.638      1.655
REMARK  Name = 
REMARK  1 active torsions:
REMARK  status: ('A' for Active; 'I' for Inactive)
REMARK    1  A    between atoms: C_2  and  C_3
REMARK                            x       y       z     vdW  Elec       q    Type
REMARK                         _______ _______ _______ _____ _____    ______ ____
ROOT
ATOM      1  C   UNL     1       5.196   4.450  16.443  0.00  0.00    +0.000 A 
ATOM      2  C   UNL     1       6.278   5.317  16.556  0.00  0.00    +0.000 A 
ATOM      3  N   UNL     1       7.156   5.602  15.562  0.00  0.00    +0.000 NA
ATOM      4  C   UNL     1       6.973   5.002  14.374  0.00  0.00    +0.000 A 
ATOM      5  C   UNL     1       7.860   5.250  13.334  0.00  0.00    +0.000 A 
ATOM      6  C   UNL     1       7.712   4.646  12.081  0.00  0.00    +0.000 A 
ATOM      7  C   UNL     1       6.653   3.776  11.853  0.00  0.00    +0.000 A 
ATOM      8  C   UNL     1       5.748   3.512  12.877  0.00  0.00    +0.000 A 
ATOM      9  C   UNL     1       5.905   4.115  14.137  0.00  0.00    +0.000 A 
ATOM     10  C   UNL     1       5.016   3.855  15.191  0.00  0.00    +0.000 A 
ENDROOT
BRANCH   1  12
ATOM     11  C   UNL     1       3.014   3.746  17.429  0.00  0.00    +0.000 C 
ATOM     12  C   UNL     1       4.286   4.174  17.557  0.00  0.00    +0.000 C 
ATOM     13  C   UNL     1       4.689   4.287  19.028  0.00  0.00    +0.000 C 
ATOM     14  C   UNL     1       3.680   5.260  19.693  0.00  0.00    +0.000 C 
ATOM     15  C   UNL     1       2.241   4.730  19.477  0.00  0.00    +0.000 C 
ATOM     16  N   UNL     1       2.321   3.497  18.628  0.00  0.00    +0.000 N 
ATOM     17  C   UNL     1       3.012   2.439  19.434  0.00  0.00    +0.000 C 
ATOM     18  C   UNL     1       4.471   2.895  19.679  0.00  0.00    +0.000 C 
ENDBRANCH   1  12
TORSDOF 1
ENDMDL
MODEL 4
REMARK VINA RESULT:      -7.3      1.300      2.023
REMARK  Name = 
REMARK  1 active torsions:
REMARK  status: ('A' for Active; 'I' for Inactive)
REMARK    1  A    between atoms: C_2  and  C_3
REMARK                            x       y       z     vdW  Elec       q    Type
REMARK                         _______ _______ _______ _____ _____    ______ ____
ROOT
ATOM      1  C   UNL     1       4.520   4.100  18.048  0.00  0.00    +0.000 A 
ATOM      2  C   UNL     1       5.712   4.715  18.414  0.00  0.00    +0.000 A 
ATOM      3  N   UNL     1       6.707   5.059  17.558  0.00  0.00    +0.000 NA
ATOM      4  C   UNL     1       6.533   4.785  16.253  0.00  0.00    +0.000 A 
ATOM      5  C   UNL     1       7.534   5.102  15.345  0.00  0.00    +0.000 A 
ATOM      6  C   UNL     1       7.399   4.831  13.979  0.00  0.00    +0.000 A 
ATOM      7  C   UNL     1       6.238   4.235  13.502  0.00  0.00    +0.000 A 
ATOM      8  C   UNL     1       5.219   3.909  14.392  0.00  0.00    +0.000 A 
ATOM      9  C   UNL     1       5.361   4.175  15.764  0.00  0.00    +0.000 A 
ATOM     10  C   UNL     1       4.355   3.844  16.684  0.00  0.00    +0.000 A 
ENDROOT
BRANCH   1  12
ATOM     11  C   UNL     1       3.631   2.839  20.012  0.00  0.00    +0.000 C 
ATOM     12  C   UNL     1       3.485   3.743  19.022  0.00  0.00    +0.000 C 
ATOM     13  C   UNL     1       2.105   4.402  19.070  0.00  0.00    +0.000 C 
ATOM     14  C   UNL     1       1.061   3.258  18.971  0.00  0.00    +0.000 C 
ATOM     15  C   UNL     1       1.309   2.240  20.110  0.00  0.00    +0.000 C 
ATOM     16  N   UNL     1       2.528   2.675  20.868  0.00  0.00    +0.000 N 
ATOM     17  C   UNL     1       2.191   3.963  21.559  0.00  0.00    +0.000 C 
ATOM     18  C   UNL     1       1.943   5.041  20.475  0.00  0.00    +0.000 C 
ENDBRANCH   1  12
TORSDOF 1
ENDMDL
MODEL 5
REMARK VINA RESULT:      -7.2      1.376      2.184
REMARK  Name = 
REMARK  1 active torsions:
REMARK  status: ('A' for Active; 'I' for Inactive)
REMARK    1  A    between atoms: C_2  and  C_3
REMARK                            x       y       z     vdW  Elec       q    Type
REMARK                         _______ _______ _______ _____ _____    ______ ____
ROOT
ATOM      1  C   UNL     1       4.347   4.202  18.206  0.00  0.00    +0.000 A 
ATOM      2  C   UNL     1       5.529   4.828  18.584  0.00  0.00    +0.000 A 
ATOM      3  N   UNL     1       6.550   5.138  17.745  0.00  0.00    +0.000 NA
ATOM      4  C   UNL     1       6.414   4.818  16.447  0.00  0.00    +0.000 A 
ATOM      5  C   UNL     1       7.442   5.100  15.558  0.00  0.00    +0.000 A 
ATOM      6  C   UNL     1       7.347   4.781  14.199  0.00  0.00    +0.000 A 
ATOM      7  C   UNL     1       6.198   4.171  13.710  0.00  0.00    +0.000 A 
ATOM      8  C   UNL     1       5.152   3.879  14.580  0.00  0.00    +0.000 A 
ATOM      9  C   UNL     1       5.254   4.194  15.946  0.00  0.00    +0.000 A 
ATOM     10  C   UNL     1       4.221   3.898  16.847  0.00  0.00    +0.000 A 
ENDROOT
BRANCH   1  12
ATOM     11  C   UNL     1       2.431   4.779  19.699  0.00  0.00    +0.000 C 
ATOM     12  C   UNL     1       3.282   3.883  19.160  0.00  0.00    +0.000 C 
ATOM     13  C   UNL     1       2.965   2.463  19.631  0.00  0.00    +0.000 C 
ATOM     14  C   UNL     1       3.043   2.479  21.181  0.00  0.00    +0.000 C 
ATOM     15  C   UNL     1       2.071   3.552  21.730  0.00  0.00    +0.000 C 
ATOM     16  N   UNL     1       1.450   4.260  20.563  0.00  0.00    +0.000 N 
ATOM     17  C   UNL     1       0.579   3.270  19.849  0.00  0.00    +0.000 C 
ATOM     18  C   UNL     1       1.489   2.166  19.256  0.00  0.00    +0.000 C 
ENDBRANCH   1  12
TORSDOF 1
ENDMDL
MODEL 6
REMARK VINA RESULT:      -7.2      3.283      6.772
REMARK  Name = 
REMARK  1 active torsions:
REMARK  status: ('A' for Active; 'I' for Inactive)
REMARK    1  A    between atoms: C_2  and  C_3
REMARK                            x       y       z     vdW  Elec       q    Type
REMARK                         _______ _______ _______ _____ _____    ______ ____
ROOT
ATOM      1  C   UNL     1       3.665   6.572  18.210  0.00  0.00    +0.000 A 
ATOM      2  C   UNL     1       3.166   6.154  19.438  0.00  0.00    +0.000 A 
ATOM      3  N   UNL     1       2.234   6.818  20.168  0.00  0.00    +0.000 NA
ATOM      4  C   UNL     1       1.753   7.970  19.670  0.00  0.00    +0.000 A 
ATOM      5  C   UNL     1       0.812   8.692  20.392  0.00  0.00    +0.000 A 
ATOM      6  C   UNL     1       0.287   9.898  19.916  0.00  0.00    +0.000 A 
ATOM      7  C   UNL     1       0.703  10.398  18.688  0.00  0.00    +0.000 A 
ATOM      8  C   UNL     1       1.643   9.692  17.943  0.00  0.00    +0.000 A 
ATOM      9  C   UNL     1       2.174   8.485  18.428  0.00  0.00    +0.000 A 
ATOM     10  C   UNL     1       3.134   7.762  17.705  0.00  0.00    +0.000 A 
ENDROOT
BRANCH   1  12
ATOM     11  C   UNL     1       4.862   4.482  17.552  0.00  0.00    +0.000 C 
ATOM     12  C   UNL     1       4.680   5.816  17.472  0.00  0.00    +0.000 C 
ATOM     13  C   UNL     1       5.640   6.448  16.463  0.00  0.00    +0.000 C 
ATOM     14  C   UNL     1       7.076   6.084  16.925  0.00  0.00    +0.000 C 
ATOM     15  C   UNL     1       7.204   4.546  17.031  0.00  0.00    +0.000 C 
ATOM     16  N   UNL     1       5.865   3.943  16.726  0.00  0.00    +0.000 N 
ATOM     17  C   UNL     1       5.570   4.214  15.281  0.00  0.00    +0.000 C 
ATOM     18  C   UNL     1       5.412   5.744  15.099  0.00  0.00    +0.000 C 
ENDBRANCH   1  12
TORSDOF 1
ENDMDL
MODEL 7
REMARK VINA RESULT:      -7.1      3.482      4.136
REMARK  Name = 
REMARK  1 active torsions:
REMARK  status: ('A' for Active; 'I' for Inactive)
REMARK    1  A    between atoms: C_2  and  C_3
REMARK                            x       y       z     vdW  Elec       q    Type
REMARK                         _______ _______ _______ _____ _____    ______ ____
ROOT
ATOM      1  C   UNL     1       3.815   4.981  18.743  0.00  0.00    +0.000 A 
ATOM      2  C   UNL     1       3.537   5.853  17.696  0.00  0.00    +0.000 A 
ATOM      3  N   UNL     1       4.425   6.717  17.143  0.00  0.00    +0.000 NA
ATOM      4  C   UNL     1       5.673   6.736  17.642  0.00  0.00    +0.000 A 
ATOM      5  C   UNL     1       6.609   7.618  17.119  0.00  0.00    +0.000 A 
ATOM      6  C   UNL     1       7.918   7.677  17.609  0.00  0.00    +0.000 A 
ATOM      7  C   UNL     1       8.309   6.834  18.642  0.00  0.00    +0.000 A 
ATOM      8  C   UNL     1       7.391   5.939  19.183  0.00  0.00    +0.000 A 
ATOM      9  C   UNL     1       6.075   5.888  18.693  0.00  0.00    +0.000 A 
ATOM     10  C   UNL     1       5.125   5.006  19.229  0.00  0.00    +0.000 A 
ENDROOT
BRANCH   1  12
ATOM     11  C   UNL     1       1.516   4.393  19.517  0.00  0.00    +0.000 C 
ATOM     12  C   UNL     1       2.810   4.077  19.305  0.00  0.00    +0.000 C 
ATOM     13  C   UNL     1       3.094   2.621  19.679  0.00  0.00    +0.000 C 
ATOM     14  C   UNL     1       2.692   2.456  21.169  0.00  0.00    +0.000 C 
ATOM     15  C   UNL     1       1.211   2.870  21.347  0.00  0.00    +0.000 C 
ATOM     16  N   UNL     1       0.702   3.364  20.026  0.00  0.00    +0.000 N 
ATOM     17  C   UNL     1       0.672   2.194  19.089  0.00  0.00    +0.000 C 
ATOM     18  C   UNL     1       2.131   1.731  18.850  0.00  0.00    +0.000 C 
ENDBRANCH   1  12
TORSDOF 1
ENDMDL
MODEL 8
REMARK VINA RESULT:      -7.0      4.830      6.773
REMARK  Name = 
REMARK  1 active torsions:
REMARK  status: ('A' for Active; 'I' for Inactive)
REMARK    1  A    between atoms: C_2  and  C_3
REMARK                            x       y       z     vdW  Elec       q    Type
REMARK                         _______ _______ _______ _____ _____    ______ ____
ROOT
ATOM      1  C   UNL     1       2.133   6.205  19.375  0.00  0.00    +0.000 A 
ATOM      2  C   UNL     1       2.445   6.791  18.153  0.00  0.00    +0.000 A 
ATOM      3  N   UNL     1       2.273   8.103  17.852  0.00  0.00    +0.000 NA
ATOM      4  C   UNL     1       1.763   8.903  18.804  0.00  0.00    +0.000 A 
ATOM      5  C   UNL     1       1.553  10.248  18.532  0.00  0.00    +0.000 A 
ATOM      6  C   UNL     1       1.020  11.118  19.489  0.00  0.00    +0.000 A 
ATOM      7  C   UNL     1       0.692  10.640  20.752  0.00  0.00    +0.000 A 
ATOM      8  C   UNL     1       0.894   9.296  21.051  0.00  0.00    +0.000 A 
ATOM      9  C   UNL     1       1.423   8.424  20.084  0.00  0.00    +0.000 A 
ATOM     10  C   UNL     1       1.623   7.062  20.354  0.00  0.00    +0.000 A 
ENDROOT
BRANCH   1  12
ATOM     11  C   UNL     1       3.530   4.166  19.730  0.00  0.00    +0.000 C 
ATOM     12  C   UNL     1       2.331   4.778  19.639  0.00  0.00    +0.000 C 
ATOM     13  C   UNL     1       1.187   3.798  19.901  0.00  0.00    +0.000 C 
ATOM     14  C   UNL     1       1.334   2.652  18.866  0.00  0.00    +0.000 C 
ATOM     15  C   UNL     1       2.741   2.021  18.999  0.00  0.00    +0.000 C 
ATOM     16  N   UNL     1       3.503   2.793  20.034  0.00  0.00    +0.000 N 
ATOM     17  C   UNL     1       2.837   2.551  21.356  0.00  0.00    +0.000 C 
ATOM     18  C   UNL     1       1.420   3.174  21.302  0.00  0.00    +0.000 C 
ENDBRANCH   1  12
TORSDOF 1
ENDMDL
MODEL 9
REMARK VINA RESULT:      -7.0      3.966      7.457
REMARK  Name = 
REMARK  1 active torsions:
REMARK  status: ('A' for Active; 'I' for Inactive)
REMARK    1  A    between atoms: C_2  and  C_3
REMARK                            x       y       z     vdW  Elec       q    Type
REMARK                         _______ _______ _______ _____ _____    ______ ____
ROOT
ATOM      1  C   UNL     1       2.500   7.276  18.827  0.00  0.00    +0.000 A 
ATOM      2  C   UNL     1       2.235   8.268  17.889  0.00  0.00    +0.000 A 
ATOM      3  N   UNL     1       1.512   9.391  18.126  0.00  0.00    +0.000 NA
ATOM      4  C   UNL     1       1.009   9.564  19.360  0.00  0.00    +0.000 A 
ATOM      5  C   UNL     1       0.246  10.690  19.641  0.00  0.00    +0.000 A 
ATOM      6  C   UNL     1      -0.301  10.910  20.909  0.00  0.00    +0.000 A 
ATOM      7  C   UNL     1      -0.080   9.990  21.927  0.00  0.00    +0.000 A 
ATOM      8  C   UNL     1       0.682   8.854  21.673  0.00  0.00    +0.000 A 
ATOM      9  C   UNL     1       1.224   8.633  20.395  0.00  0.00    +0.000 A 
ATOM     10  C   UNL     1       1.984   7.489  20.107  0.00  0.00    +0.000 A 
ENDROOT
BRANCH   1  12
ATOM     11  C   UNL     1       2.806   4.816  18.526  0.00  0.00    +0.000 C 
ATOM     12  C   UNL     1       3.281   6.078  18.509  0.00  0.00    +0.000 C 
ATOM     13  C   UNL     1       4.743   6.115  18.058  0.00  0.00    +0.000 C 
ATOM     14  C   UNL     1       5.534   5.209  19.039  0.00  0.00    +0.000 C 
ATOM     15  C   UNL     1       4.914   3.791  19.037  0.00  0.00    +0.000 C 
ATOM     16  N   UNL     1       3.710   3.808  18.145  0.00  0.00    +0.000 N 
ATOM     17  C   UNL     1       4.193   4.027  16.742  0.00  0.00    +0.000 C 
ATOM     18  C   UNL     1       4.817   5.442  16.662  0.00  0.00    +0.000 C 
ENDBRANCH   1  12
TORSDOF 1
ENDMDL
