MODEL 1
REMARK VINA RESULT:      -7.5      0.000      0.000
REMARK  Name = 
REMARK  1 active torsions:
REMARK  status: ('A' for Active; 'I' for Inactive)
REMARK    1  A    between atoms: N_7  and  C_8
REMARK                            x       y       z     vdW  Elec       q    Type
REMARK                         _______ _______ _______ _____ _____    ______ ____
ROOT
ATOM      1  O   UNL     1       5.810   3.657  19.280  0.00  0.00    +0.000 OA
ATOM      2  C   UNL     1       4.645   3.587  18.922  0.00  0.00    +0.000 C 
ATOM      3  C   UNL     1       3.551   3.179  19.854  0.00  0.00    +0.000 C 
ATOM      4  C   UNL     1       2.325   2.978  18.932  0.00  0.00    +0.000 C 
ATOM      5  C   UNL     1       2.728   3.718  17.673  0.00  0.00    +0.000 C 
ATOM      6  O   UNL     1       1.929   4.049  16.809  0.00  0.00    +0.000 OA
ATOM      7  N   UNL     1       4.105   3.861  17.685  0.00  0.00    +0.000 N 
ATOM      8  C   UNL     1       1.185   3.644  19.726  0.00  0.00    +0.000 C 
ATOM      9  C   UNL     1       1.105   2.952  21.102  0.00  0.00    +0.000 C 
ATOM     10  C   UNL     1       2.188   3.334  21.819  0.00  0.00    +0.000 C 
ATOM     11  C   UNL     1       3.030   4.215  20.899  0.00  0.00    +0.000 C 
ATOM     12  C   UNL     1       1.894   4.907  20.163  0.00  0.00    +0.000 C 
ATOM     13  C   UNL     1       1.051   6.019  20.752  0.00  0.00    +0.000 C 
ATOM     14  C   UNL     1       1.890   6.269  19.526  0.00  0.00    +0.000 C 
ENDROOT
BRANCH   7  15
ATOM     15  C   UNL     1       4.891   4.204  16.551  0.00  0.00    +0.000 A 
ATOM     16  C   UNL     1       5.157   5.549  16.245  0.00  0.00    +0.000 A 
ATOM     17  C   UNL     1       5.984   5.903  15.173  0.00  0.00    +0.000 A 
ATOM     18  C   UNL     1       6.530   4.914  14.364  0.00  0.00    +0.000 A 
ATOM     19 BR   UNL     1       7.645   5.389  12.915  0.00  0.00    +0.000 Br
ATOM     20  C   UNL     1       6.263   3.575  14.630  0.00  0.00    +0.000 A 
ATOM     21  C   UNL     1       5.467   3.224  15.728  0.00  0.00    +0.000 A 
ENDBRANCH   7  15
TORSDOF 1
ENDMDL
MODEL 2
REMARK VINA RESULT:      -7.4      0.082      1.052
REMARK  Name = 
REMARK  1 active torsions:
REMARK  status: ('A' for Active; 'I' for Inactive)
REMARK    1  A    between atoms: N_7  and  C_8
REMARK                            x       y       z     vdW  Elec       q    Type
REMARK                         _______ _______ _______ _____ _____    ______ ____
ROOT
ATOM      1  O   UNL     1       5.792   3.591  19.371  0.00  0.00    +0.000 OA
ATOM      2  C   UNL     1       4.632   3.557  18.989  0.00  0.00    +0.000 C 
ATOM      3  C   UNL     1       3.511   3.153  19.888  0.00  0.00    +0.000 C 
ATOM      4  C   UNL     1       2.300   3.003  18.938  0.00  0.00    +0.000 C 
ATOM      5  C   UNL     1       2.745   3.762  17.705  0.00  0.00    +0.000 C 
ATOM      6  O   UNL     1       1.971   4.131  16.833  0.00  0.00    +0.000 OA
ATOM      7  N   UNL     1       4.125   3.872  17.748  0.00  0.00    +0.000 N 
ATOM      8  C   UNL     1       1.159   3.677  19.725  0.00  0.00    +0.000 C 
ATOM      9  C   UNL     1       1.036   2.956  21.082  0.00  0.00    +0.000 C 
ATOM     10  C   UNL     1       2.112   3.296  21.830  0.00  0.00    +0.000 C 
ATOM     11  C   UNL     1       2.993   4.178  20.947  0.00  0.00    +0.000 C 
ATOM     12  C   UNL     1       1.889   4.913  20.206  0.00  0.00    +0.000 C 
ATOM     13  C   UNL     1       1.060   6.031  20.803  0.00  0.00    +0.000 C 
ATOM     14  C   UNL     1       1.929   6.289  19.600  0.00  0.00    +0.000 C 
ENDROOT
BRANCH   7  15
ATOM     15  C   UNL     1       4.941   4.222  16.637  0.00  0.00    +0.000 A 
ATOM     16  C   UNL     1       5.521   3.225  15.835  0.00  0.00    +0.000 A 
ATOM     17  C   UNL     1       6.270   3.550  14.698  0.00  0.00    +0.000 A 
ATOM     18  C   UNL     1       6.483   4.882  14.366  0.00  0.00    +0.000 A 
ATOM     19 BR   UNL     1       7.495   5.323  12.834  0.00  0.00    +0.000 Br
ATOM     20  C   UNL     1       5.939   5.889  15.157  0.00  0.00    +0.000 A 
ATOM     21  C   UNL     1       5.157   5.559  16.271  0.00  0.00    +0.000 A 
ENDBRANCH   7  15
TORSDOF 1
ENDMDL
MODEL 3
REMARK VINA RESULT:      -7.3      1.462      1.974
REMARK  Name = 
REMARK  1 active torsions:
REMARK  status: ('A' for Active; 'I' for Inactive)
REMARK    1  A    between atoms: N_7  and  C_8
REMARK                            x       y       z     vdW  Elec       q    Type
REMARK                         _______ _______ _______ _____ _____    ______ ____
ROOT
ATOM      1  O   UNL     1       4.696   6.274  18.630  0.00  0.00    +0.000 OA
ATOM      2  C   UNL     1       4.492   5.076  18.746  0.00  0.00    +0.000 C 
ATOM      3  C   UNL     1       3.827   4.496  19.952  0.00  0.00    +0.000 C 
ATOM      4  C   UNL     1       4.015   2.969  19.790  0.00  0.00    +0.000 C 
ATOM      5  C   UNL     1       4.356   2.828  18.320  0.00  0.00    +0.000 C 
ATOM      6  O   UNL     1       4.295   1.764  17.721  0.00  0.00    +0.000 OA
ATOM      7  N   UNL     1       4.787   4.062  17.862  0.00  0.00    +0.000 N 
ATOM      8  C   UNL     1       2.635   2.409  20.181  0.00  0.00    +0.000 C 
ATOM      9  C   UNL     1       2.319   2.894  21.610  0.00  0.00    +0.000 C 
ATOM     10  C   UNL     1       2.060   4.222  21.548  0.00  0.00    +0.000 C 
ATOM     11  C   UNL     1       2.279   4.639  20.095  0.00  0.00    +0.000 C 
ATOM     12  C   UNL     1       1.752   3.380  19.427  0.00  0.00    +0.000 C 
ATOM     13  C   UNL     1       0.282   3.037  19.294  0.00  0.00    +0.000 C 
ATOM     14  C   UNL     1       1.129   3.238  18.065  0.00  0.00    +0.000 C 
ENDROOT
BRANCH   7  15
ATOM     15  C   UNL     1       5.494   4.269  16.646  0.00  0.00    +0.000 A 
ATOM     16  C   UNL     1       4.835   4.164  15.409  0.00  0.00    +0.000 A 
ATOM     17  C   UNL     1       5.498   4.431  14.207  0.00  0.00    +0.000 A 
ATOM     18  C   UNL     1       6.845   4.773  14.218  0.00  0.00    +0.000 A 
ATOM     19 BR   UNL     1       7.742   5.132  12.596  0.00  0.00    +0.000 Br
ATOM     20  C   UNL     1       7.526   4.860  15.428  0.00  0.00    +0.000 A 
ATOM     21  C   UNL     1       6.849   4.630  16.632  0.00  0.00    +0.000 A 
ENDBRANCH   7  15
TORSDOF 1
ENDMDL
MODEL 4
REMARK VINA RESULT:      -7.3      1.469      1.905
REMARK  Name = 
REMARK  1 active torsions:
REMARK  status: ('A' for Active; 'I' for Inactive)
REMARK    1  A    between atoms: N_7  and  C_8
REMARK                            x       y       z     vdW  Elec       q    Type
REMARK                         _______ _______ _______ _____ _____    ______ ____
ROOT
ATOM      1  O   UNL     1       4.678   6.272  18.739  0.00  0.00    +0.000 OA
ATOM      2  C   UNL     1       4.478   5.069  18.808  0.00  0.00    +0.000 C 
ATOM      3  C   UNL     1       3.839   4.437  20.001  0.00  0.00    +0.000 C 
ATOM      4  C   UNL     1       4.025   2.919  19.769  0.00  0.00    +0.000 C 
ATOM      5  C   UNL     1       4.334   2.843  18.288  0.00  0.00    +0.000 C 
ATOM      6  O   UNL     1       4.261   1.805  17.644  0.00  0.00    +0.000 OA
ATOM      7  N   UNL     1       4.753   4.095  17.874  0.00  0.00    +0.000 N 
ATOM      8  C   UNL     1       2.654   2.340  20.166  0.00  0.00    +0.000 C 
ATOM      9  C   UNL     1       2.370   2.762  21.621  0.00  0.00    +0.000 C 
ATOM     10  C   UNL     1       2.108   4.091  21.622  0.00  0.00    +0.000 C 
ATOM     11  C   UNL     1       2.295   4.571  20.184  0.00  0.00    +0.000 C 
ATOM     12  C   UNL     1       1.754   3.341  19.474  0.00  0.00    +0.000 C 
ATOM     13  C   UNL     1       0.282   3.002  19.359  0.00  0.00    +0.000 C 
ATOM     14  C   UNL     1       1.102   3.257  18.121  0.00  0.00    +0.000 C 
ENDROOT
BRANCH   7  15
ATOM     15  C   UNL     1       5.434   4.356  16.653  0.00  0.00    +0.000 A 
ATOM     16  C   UNL     1       6.798   4.694  16.653  0.00  0.00    +0.000 A 
ATOM     17  C   UNL     1       7.499   4.886  15.458  0.00  0.00    +0.000 A 
ATOM     18  C   UNL     1       6.838   4.781  14.240  0.00  0.00    +0.000 A 
ATOM     19 BR   UNL     1       7.783   5.042  12.627  0.00  0.00    +0.000 Br
ATOM     20  C   UNL     1       5.482   4.471  14.214  0.00  0.00    +0.000 A 
ATOM     21  C   UNL     1       4.793   4.240  15.411  0.00  0.00    +0.000 A 
ENDBRANCH   7  15
TORSDOF 1
ENDMDL
MODEL 5
REMARK VINA RESULT:      -6.7      1.280      2.397
REMARK  Name = 
REMARK  1 active torsions:
REMARK  status: ('A' for Active; 'I' for Inactive)
REMARK    1  A    between atoms: N_7  and  C_8
REMARK                            x       y       z     vdW  Elec       q    Type
REMARK                         _______ _______ _______ _____ _____    ______ ____
ROOT
ATOM      1  O   UNL     1       3.116   6.639  17.469  0.00  0.00    +0.000 OA
ATOM      2  C   UNL     1       3.505   5.666  18.097  0.00  0.00    +0.000 C 
ATOM      3  C   UNL     1       2.900   5.272  19.404  0.00  0.00    +0.000 C 
ATOM      4  C   UNL     1       3.851   4.179  19.945  0.00  0.00    +0.000 C 
ATOM      5  C   UNL     1       4.618   3.759  18.708  0.00  0.00    +0.000 C 
ATOM      6  O   UNL     1       5.261   2.721  18.641  0.00  0.00    +0.000 OA
ATOM      7  N   UNL     1       4.496   4.769  17.768  0.00  0.00    +0.000 N 
ATOM      8  C   UNL     1       2.879   3.113  20.486  0.00  0.00    +0.000 C 
ATOM      9  C   UNL     1       1.976   3.791  21.536  0.00  0.00    +0.000 C 
ATOM     10  C   UNL     1       1.128   4.617  20.879  0.00  0.00    +0.000 C 
ATOM     11  C   UNL     1       1.515   4.552  19.403  0.00  0.00    +0.000 C 
ATOM     12  C   UNL     1       1.889   3.081  19.342  0.00  0.00    +0.000 C 
ATOM     13  C   UNL     1       0.885   1.947  19.313  0.00  0.00    +0.000 C 
ATOM     14  C   UNL     1       1.832   2.152  18.160  0.00  0.00    +0.000 C 
ENDROOT
BRANCH   7  15
ATOM     15  C   UNL     1       5.321   4.905  16.618  0.00  0.00    +0.000 A 
ATOM     16  C   UNL     1       6.533   5.612  16.688  0.00  0.00    +0.000 A 
ATOM     17  C   UNL     1       7.390   5.698  15.585  0.00  0.00    +0.000 A 
ATOM     18  C   UNL     1       7.031   5.107  14.380  0.00  0.00    +0.000 A 
ATOM     19 BR   UNL     1       8.186   5.223  12.890  0.00  0.00    +0.000 Br
ATOM     20  C   UNL     1       5.825   4.420  14.278  0.00  0.00    +0.000 A 
ATOM     21  C   UNL     1       4.989   4.304  15.395  0.00  0.00    +0.000 A 
ENDBRANCH   7  15
TORSDOF 1
ENDMDL
MODEL 6
REMARK VINA RESULT:      -6.7      1.032      2.673
REMARK  Name = 
REMARK  1 active torsions:
REMARK  status: ('A' for Active; 'I' for Inactive)
REMARK    1  A    between atoms: N_7  and  C_8
REMARK                            x       y       z     vdW  Elec       q    Type
REMARK                         _______ _______ _______ _____ _____    ______ ____
ROOT
ATOM      1  O   UNL     1       2.307   3.280  16.228  0.00  0.00    +0.000 OA
ATOM      2  C   UNL     1       2.700   3.867  17.224  0.00  0.00    +0.000 C 
ATOM      3  C   UNL     1       1.885   3.945  18.474  0.00  0.00    +0.000 C 
ATOM      4  C   UNL     1       2.635   4.976  19.349  0.00  0.00    +0.000 C 
ATOM      5  C   UNL     1       4.005   5.028  18.706  0.00  0.00    +0.000 C 
ATOM      6  O   UNL     1       4.986   5.501  19.264  0.00  0.00    +0.000 OA
ATOM      7  N   UNL     1       3.893   4.526  17.421  0.00  0.00    +0.000 N 
ATOM      8  C   UNL     1       2.609   4.326  20.746  0.00  0.00    +0.000 C 
ATOM      9  C   UNL     1       1.134   4.078  21.121  0.00  0.00    +0.000 C 
ATOM     10  C   UNL     1       0.675   3.067  20.347  0.00  0.00    +0.000 C 
ATOM     11  C   UNL     1       1.815   2.691  19.402  0.00  0.00    +0.000 C 
ATOM     12  C   UNL     1       2.972   2.907  20.363  0.00  0.00    +0.000 C 
ATOM     13  C   UNL     1       3.343   1.951  21.478  0.00  0.00    +0.000 C 
ATOM     14  C   UNL     1       4.319   2.237  20.366  0.00  0.00    +0.000 C 
ENDROOT
BRANCH   7  15
ATOM     15  C   UNL     1       4.864   4.703  16.398  0.00  0.00    +0.000 A 
ATOM     16  C   UNL     1       5.543   3.597  15.859  0.00  0.00    +0.000 A 
ATOM     17  C   UNL     1       6.452   3.744  14.805  0.00  0.00    +0.000 A 
ATOM     18  C   UNL     1       6.725   5.008  14.296  0.00  0.00    +0.000 A 
ATOM     19 BR   UNL     1       7.952   5.209  12.875  0.00  0.00    +0.000 Br
ATOM     20  C   UNL     1       6.083   6.122  14.828  0.00  0.00    +0.000 A 
ATOM     21  C   UNL     1       5.145   5.966  15.856  0.00  0.00    +0.000 A 
ENDBRANCH   7  15
TORSDOF 1
ENDMDL
MODEL 7
REMARK VINA RESULT:      -6.6      1.009      2.478
REMARK  Name = 
REMARK  1 active torsions:
REMARK  status: ('A' for Active; 'I' for Inactive)
REMARK    1  A    between atoms: N_7  and  C_8
REMARK                            x       y       z     vdW  Elec       q    Type
REMARK                         _______ _______ _______ _____ _____    ______ ____
ROOT
ATOM      1  O   UNL     1       2.260   3.259  16.289  0.00  0.00    +0.000 OA
ATOM      2  C   UNL     1       2.696   3.838  17.271  0.00  0.00    +0.000 C 
ATOM      3  C   UNL     1       1.933   3.916  18.552  0.00  0.00    +0.000 C 
ATOM      4  C   UNL     1       2.724   4.937  19.402  0.00  0.00    +0.000 C 
ATOM      5  C   UNL     1       4.068   4.983  18.706  0.00  0.00    +0.000 C 
ATOM      6  O   UNL     1       5.074   5.446  19.226  0.00  0.00    +0.000 OA
ATOM      7  N   UNL     1       3.901   4.488  17.423  0.00  0.00    +0.000 N 
ATOM      8  C   UNL     1       2.749   4.280  20.796  0.00  0.00    +0.000 C 
ATOM      9  C   UNL     1       1.288   4.042  21.228  0.00  0.00    +0.000 C 
ATOM     10  C   UNL     1       0.791   3.037  20.468  0.00  0.00    +0.000 C 
ATOM     11  C   UNL     1       1.890   2.658  19.477  0.00  0.00    +0.000 C 
ATOM     12  C   UNL     1       3.086   2.861  20.392  0.00  0.00    +0.000 C 
ATOM     13  C   UNL     1       3.494   1.897  21.487  0.00  0.00    +0.000 C 
ATOM     14  C   UNL     1       4.427   2.181  20.338  0.00  0.00    +0.000 C 
ENDROOT
BRANCH   7  15
ATOM     15  C   UNL     1       4.832   4.663  16.363  0.00  0.00    +0.000 A 
ATOM     16  C   UNL     1       5.136   5.948  15.883  0.00  0.00    +0.000 A 
ATOM     17  C   UNL     1       6.100   6.145  14.888  0.00  0.00    +0.000 A 
ATOM     18  C   UNL     1       6.751   5.052  14.329  0.00  0.00    +0.000 A 
ATOM     19 BR   UNL     1       8.051   5.315  12.984  0.00  0.00    +0.000 Br
ATOM     20  C   UNL     1       6.452   3.767  14.770  0.00  0.00    +0.000 A 
ATOM     21  C   UNL     1       5.515   3.578  15.793  0.00  0.00    +0.000 A 
ENDBRANCH   7  15
TORSDOF 1
ENDMDL
MODEL 8
REMARK VINA RESULT:      -6.5      6.525      8.867
REMARK  Name = 
REMARK  1 active torsions:
REMARK  status: ('A' for Active; 'I' for Inactive)
REMARK    1  A    between atoms: N_7  and  C_8
REMARK                            x       y       z     vdW  Elec       q    Type
REMARK                         _______ _______ _______ _____ _____    ______ ____
ROOT
ATOM      1  O   UNL     1      -1.850  10.214  18.443  0.00  0.00    +0.000 OA
ATOM      2  C   UNL     1      -1.186  10.972  19.132  0.00  0.00    +0.000 C 
ATOM      3  C   UNL     1      -1.704  12.301  19.577  0.00  0.00    +0.000 C 
ATOM      4  C   UNL     1      -0.467  13.006  20.180  0.00  0.00    +0.000 C 
ATOM      5  C   UNL     1       0.490  11.856  20.421  0.00  0.00    +0.000 C 
ATOM      6  O   UNL     1       1.467  11.943  21.152  0.00  0.00    +0.000 OA
ATOM      7  N   UNL     1       0.084  10.792  19.634  0.00  0.00    +0.000 N 
ATOM      8  C   UNL     1      -1.028  13.649  21.463  0.00  0.00    +0.000 C 
ATOM      9  C   UNL     1      -2.190  14.575  21.054  0.00  0.00    +0.000 C 
ATOM     10  C   UNL     1      -3.227  13.793  20.672  0.00  0.00    +0.000 C 
ATOM     11  C   UNL     1      -2.734  12.349  20.750  0.00  0.00    +0.000 C 
ATOM     12  C   UNL     1      -1.851  12.489  21.979  0.00  0.00    +0.000 C 
ATOM     13  C   UNL     1      -2.375  12.574  23.398  0.00  0.00    +0.000 C 
ATOM     14  C   UNL     1      -1.481  11.434  22.986  0.00  0.00    +0.000 C 
ENDROOT
BRANCH   7  15
ATOM     15  C   UNL     1       0.889   9.660  19.330  0.00  0.00    +0.000 A 
ATOM     16  C   UNL     1       1.492   9.530  18.068  0.00  0.00    +0.000 A 
ATOM     17  C   UNL     1       2.342   8.457  17.774  0.00  0.00    +0.000 A 
ATOM     18  C   UNL     1       2.574   7.476  18.730  0.00  0.00    +0.000 A 
ATOM     19 BR   UNL     1       3.719   6.027  18.335  0.00  0.00    +0.000 Br
ATOM     20  C   UNL     1       1.970   7.569  19.979  0.00  0.00    +0.000 A 
ATOM     21  C   UNL     1       1.152   8.664  20.282  0.00  0.00    +0.000 A 
ENDBRANCH   7  15
TORSDOF 1
ENDMDL
MODEL 9
REMARK VINA RESULT:      -6.5      6.574      8.927
REMARK  Name = 
REMARK  1 active torsions:
REMARK  status: ('A' for Active; 'I' for Inactive)
REMARK    1  A    between atoms: N_7  and  C_8
REMARK                            x       y       z     vdW  Elec       q    Type
REMARK                         _______ _______ _______ _____ _____    ______ ____
ROOT
ATOM      1  O   UNL     1      -1.841  10.192  18.488  0.00  0.00    +0.000 OA
ATOM      2  C   UNL     1      -1.199  10.985  19.159  0.00  0.00    +0.000 C 
ATOM      3  C   UNL     1      -1.760  12.301  19.587  0.00  0.00    +0.000 C 
ATOM      4  C   UNL     1      -0.544  13.059  20.169  0.00  0.00    +0.000 C 
ATOM      5  C   UNL     1       0.454  11.948  20.420  0.00  0.00    +0.000 C 
ATOM      6  O   UNL     1       1.432  12.080  21.142  0.00  0.00    +0.000 OA
ATOM      7  N   UNL     1       0.080  10.857  19.654  0.00  0.00    +0.000 N 
ATOM      8  C   UNL     1      -1.118  13.703  21.445  0.00  0.00    +0.000 C 
ATOM      9  C   UNL     1      -2.315  14.581  21.030  0.00  0.00    +0.000 C 
ATOM     10  C   UNL     1      -3.327  13.757  20.669  0.00  0.00    +0.000 C 
ATOM     11  C   UNL     1      -2.782  12.333  20.766  0.00  0.00    +0.000 C 
ATOM     12  C   UNL     1      -1.897  12.523  21.987  0.00  0.00    +0.000 C 
ATOM     13  C   UNL     1      -2.412  12.613  23.408  0.00  0.00    +0.000 C 
ATOM     14  C   UNL     1      -1.483  11.498  23.007  0.00  0.00    +0.000 C 
ENDROOT
BRANCH   7  15
ATOM     15  C   UNL     1       0.922   9.749  19.362  0.00  0.00    +0.000 A 
ATOM     16  C   UNL     1       1.150   8.752  20.325  0.00  0.00    +0.000 A 
ATOM     17  C   UNL     1       1.919   7.620  20.033  0.00  0.00    +0.000 A 
ATOM     18  C   UNL     1       2.506   7.485  18.781  0.00  0.00    +0.000 A 
ATOM     19 BR   UNL     1       3.547   5.960  18.386  0.00  0.00    +0.000 Br
ATOM     20  C   UNL     1       2.315   8.470  17.817  0.00  0.00    +0.000 A 
ATOM     21  C   UNL     1       1.512   9.581  18.101  0.00  0.00    +0.000 A 
ENDBRANCH   7  15
TORSDOF 1
ENDMDL
