MODEL 1
REMARK VINA RESULT:      -7.7      0.000      0.000
REMARK  Name = 
REMARK  12 active torsions:
REMARK  status: ('A' for Active; 'I' for Inactive)
REMARK    1  A    between atoms: C_1  and  N_2
REMARK    2  A    between atoms: N_2  and  C_3
REMARK    3  A    between atoms: C_3  and  C_4
REMARK    4  A    between atoms: C_4  and  C_5
REMARK    5  A    between atoms: C_5  and  O_6
REMARK    6  A    between atoms: C_5  and  C_7
REMARK    7  A    between atoms: C_7  and  N_8
REMARK    8  A    between atoms: C_10  and  C_11
REMARK    9  A    between atoms: C_17  and  C_18
REMARK   10  A    between atoms: C_18  and  C_19
REMARK   11  A    between atoms: C_19  and  C_20
REMARK   12  A    between atoms: C_26  and  C_27
REMARK                            x       y       z     vdW  Elec       q    Type
REMARK                         _______ _______ _______ _____ _____    ______ ____
ROOT
ATOM      1  N   UNL     1       6.252   5.495  17.691  0.00  0.00    +0.000 N 
ATOM      2  C   UNL     1       5.968   4.673  16.631  0.00  0.00    +0.000 A 
ATOM      3  C   UNL     1       6.739   5.136  15.593  0.00  0.00    +0.000 A 
ATOM      4  N   UNL     1       7.536   6.171  16.018  0.00  0.00    +0.000 NA
ATOM      5  C   UNL     1       7.210   6.394  17.278  0.00  0.00    +0.000 A 
ENDROOT
BRANCH   3   6
ATOM      6  C   UNL     1       6.684   4.634  14.188  0.00  0.00    +0.000 A 
ATOM      7  C   UNL     1       5.738   3.742  13.726  0.00  0.00    +0.000 A 
ATOM      8  C   UNL     1       5.971   3.369  12.368  0.00  0.00    +0.000 A 
ATOM      9  C   UNL     1       7.078   3.997  11.842  0.00  0.00    +0.000 A 
ATOM     10  S   UNL     1       7.810   5.051  12.970  0.00  0.00    +0.000 S 
ENDBRANCH   3   6
BRANCH   1  11
ATOM     11  C   UNL     1       5.528   5.452  18.951  0.00  0.00    +0.000 C 
BRANCH  11  12
ATOM     12  C   UNL     1       4.123   4.845  18.822  0.00  0.00    +0.000 C 
BRANCH  12  13
ATOM     13  O   UNL     1       4.142   3.477  19.257  0.00  0.00    +0.000 OA
ATOM     14  H   UNL     1       4.282   3.456  20.219  0.00  0.00    +0.000 HD
ENDBRANCH  12  13
BRANCH  12  15
ATOM     15  C   UNL     1       3.068   5.589  19.658  0.00  0.00    +0.000 C 
BRANCH  15  16
ATOM     16  C   UNL     1       2.518   4.846  20.882  0.00  0.00    +0.000 C 
BRANCH  16  18
ATOM     17  C   UNL     1       1.401   2.767  21.357  0.00  0.00    +0.000 C 
ATOM     18  N   UNL     1       1.387   3.984  20.553  0.00  0.00    +0.000 NA
ATOM     19  H   UNL     1       0.499   4.462  20.698  0.00  0.00    +0.000 HD
ENDBRANCH  16  18
ENDBRANCH  15  16
ENDBRANCH  12  15
ENDBRANCH  11  12
ENDBRANCH   1  11
BRANCH   5  20
ATOM     20  C   UNL     1       7.804   7.464  18.140  0.00  0.00    +0.000 C 
BRANCH  20  21
ATOM     21  C   UNL     1       7.896   8.815  17.438  0.00  0.00    +0.000 C 
BRANCH  21  22
ATOM     22  C   UNL     1       8.517   9.922  18.220  0.00  0.00    +0.000 A 
ATOM     23  N   UNL     1       9.476   9.741  19.186  0.00  0.00    +0.000 NA
ATOM     24  C   UNL     1       9.794  10.977  19.517  0.00  0.00    +0.000 A 
ATOM     25  C   UNL     1      10.732  11.512  20.446  0.00  0.00    +0.000 A 
ATOM     26  C   UNL     1      10.861  12.847  20.574  0.00  0.00    +0.000 A 
ATOM     27  C   UNL     1      10.061  13.767  19.784  0.00  0.00    +0.000 A 
ATOM     28  C   UNL     1       9.183  13.282  18.884  0.00  0.00    +0.000 A 
ATOM     29  C   UNL     1       8.343  14.147  17.999  0.00  0.00    +0.000 C 
ATOM     30  N   UNL     1       9.051  11.888  18.758  0.00  0.00    +0.000 N 
ATOM     31  N   UNL     1       8.253  11.193  17.913  0.00  0.00    +0.000 NA
ENDBRANCH  21  22
ENDBRANCH  20  21
ENDBRANCH   5  20
TORSDOF 10
ENDMDL
MODEL 2
REMARK VINA RESULT:      -7.6      4.460      5.533
REMARK  Name = 
REMARK  12 active torsions:
REMARK  status: ('A' for Active; 'I' for Inactive)
REMARK    1  A    between atoms: C_1  and  N_2
REMARK    2  A    between atoms: N_2  and  C_3
REMARK    3  A    between atoms: C_3  and  C_4
REMARK    4  A    between atoms: C_4  and  C_5
REMARK    5  A    between atoms: C_5  and  O_6
REMARK    6  A    between atoms: C_5  and  C_7
REMARK    7  A    between atoms: C_7  and  N_8
REMARK    8  A    between atoms: C_10  and  C_11
REMARK    9  A    between atoms: C_17  and  C_18
REMARK   10  A    between atoms: C_18  and  C_19
REMARK   11  A    between atoms: C_19  and  C_20
REMARK   12  A    between atoms: C_26  and  C_27
REMARK                            x       y       z     vdW  Elec       q    Type
REMARK                         _______ _______ _______ _____ _____    ______ ____
ROOT
ATOM      1  N   UNL     1       5.641   5.174  17.661  0.00  0.00    +0.000 N 
ATOM      2  C   UNL     1       6.213   4.428  16.663  0.00  0.00    +0.000 A 
ATOM      3  C   UNL     1       5.985   5.131  15.505  0.00  0.00    +0.000 A 
ATOM      4  N   UNL     1       5.353   6.318  15.786  0.00  0.00    +0.000 NA
ATOM      5  C   UNL     1       5.127   6.316  17.088  0.00  0.00    +0.000 A 
ENDROOT
BRANCH   3   6
ATOM      6  C   UNL     1       6.317   4.656  14.129  0.00  0.00    +0.000 A 
ATOM      7  C   UNL     1       5.555   3.748  13.424  0.00  0.00    +0.000 A 
ATOM      8  C   UNL     1       6.148   3.408  12.170  0.00  0.00    +0.000 A 
ATOM      9  C   UNL     1       7.334   4.076  11.962  0.00  0.00    +0.000 A 
ATOM     10  S   UNL     1       7.710   5.128  13.256  0.00  0.00    +0.000 S 
ENDBRANCH   3   6
BRANCH   1  11
ATOM     11  C   UNL     1       5.515   4.710  19.033  0.00  0.00    +0.000 C 
BRANCH  11  12
ATOM     12  C   UNL     1       4.447   3.621  19.209  0.00  0.00    +0.000 C 
BRANCH  12  13
ATOM     13  O   UNL     1       5.005   2.502  19.914  0.00  0.00    +0.000 OA
ATOM     14  H   UNL     1       5.194   2.770  20.829  0.00  0.00    +0.000 HD
ENDBRANCH  12  13
BRANCH  12  15
ATOM     15  C   UNL     1       3.217   4.106  19.996  0.00  0.00    +0.000 C 
BRANCH  15  16
ATOM     16  C   UNL     1       1.852   3.890  19.332  0.00  0.00    +0.000 C 
BRANCH  16  18
ATOM     17  C   UNL     1       1.315   2.795  21.408  0.00  0.00    +0.000 C 
ATOM     18  N   UNL     1       0.800   3.591  20.299  0.00  0.00    +0.000 NA
ATOM     19  H   UNL     1       0.384   4.442  20.673  0.00  0.00    +0.000 HD
ENDBRANCH  16  18
ENDBRANCH  15  16
ENDBRANCH  12  15
ENDBRANCH  11  12
ENDBRANCH   1  11
BRANCH   5  20
ATOM     20  C   UNL     1       4.423   7.404  17.836  0.00  0.00    +0.000 C 
BRANCH  20  21
ATOM     21  C   UNL     1       2.910   7.374  17.652  0.00  0.00    +0.000 C 
BRANCH  21  22
ATOM     22  C   UNL     1       2.104   8.039  18.717  0.00  0.00    +0.000 A 
ATOM     23  N   UNL     1       2.070   7.628  20.027  0.00  0.00    +0.000 NA
ATOM     24  C   UNL     1       1.330   8.556  20.603  0.00  0.00    +0.000 A 
ATOM     25  C   UNL     1       0.910   8.750  21.950  0.00  0.00    +0.000 A 
ATOM     26  C   UNL     1       0.150   9.816  22.269  0.00  0.00    +0.000 A 
ATOM     27  C   UNL     1      -0.259  10.784  21.265  0.00  0.00    +0.000 A 
ATOM     28  C   UNL     1       0.145  10.631  19.989  0.00  0.00    +0.000 A 
ATOM     29  C   UNL     1      -0.193  11.592  18.893  0.00  0.00    +0.000 C 
ATOM     30  N   UNL     1       0.935   9.514  19.663  0.00  0.00    +0.000 N 
ATOM     31  N   UNL     1       1.460   9.179  18.461  0.00  0.00    +0.000 NA
ENDBRANCH  21  22
ENDBRANCH  20  21
ENDBRANCH   5  20
TORSDOF 10
ENDMDL
MODEL 3
REMARK VINA RESULT:      -7.6      4.863      6.242
REMARK  Name = 
REMARK  12 active torsions:
REMARK  status: ('A' for Active; 'I' for Inactive)
REMARK    1  A    between atoms: C_1  and  N_2
REMARK    2  A    between atoms: N_2  and  C_3
REMARK    3  A    between atoms: C_3  and  C_4
REMARK    4  A    between atoms: C_4  and  C_5
REMARK    5  A    between atoms: C_5  and  O_6
REMARK    6  A    between atoms: C_5  and  C_7
REMARK    7  A    between atoms: C_7  and  N_8
REMARK    8  A    between atoms: C_10  and  C_11
REMARK    9  A    between atoms: C_17  and  C_18
REMARK   10  A    between atoms: C_18  and  C_19
REMARK   11  A    between atoms: C_19  and  C_20
REMARK   12  A    between atoms: C_26  and  C_27
REMARK                            x       y       z     vdW  Elec       q    Type
REMARK                         _______ _______ _______ _____ _____    ______ ____
ROOT
ATOM      1  N   UNL     1       2.980   5.817  19.575  0.00  0.00    +0.000 N 
ATOM      2  C   UNL     1       3.942   5.053  18.967  0.00  0.00    +0.000 A 
ATOM      3  C   UNL     1       4.323   5.762  17.854  0.00  0.00    +0.000 A 
ATOM      4  N   UNL     1       3.667   6.969  17.812  0.00  0.00    +0.000 NA
ATOM      5  C   UNL     1       2.840   6.974  18.842  0.00  0.00    +0.000 A 
ENDROOT
BRANCH   3   6
ATOM      6  C   UNL     1       5.265   5.277  16.803  0.00  0.00    +0.000 A 
ATOM      7  C   UNL     1       4.940   4.329  15.856  0.00  0.00    +0.000 A 
ATOM      8  C   UNL     1       6.053   3.990  15.029  0.00  0.00    +0.000 A 
ATOM      9  C   UNL     1       7.183   4.699  15.370  0.00  0.00    +0.000 A 
ATOM     10  S   UNL     1       6.892   5.787  16.656  0.00  0.00    +0.000 S 
ENDBRANCH   3   6
BRANCH   1  11
ATOM     11  C   UNL     1       2.194   5.357  20.709  0.00  0.00    +0.000 C 
BRANCH  11  12
ATOM     12  C   UNL     1       2.110   3.827  20.806  0.00  0.00    +0.000 C 
BRANCH  12  13
ATOM     13  O   UNL     1       2.177   3.423  22.183  0.00  0.00    +0.000 OA
ATOM     14  H   UNL     1       2.616   2.558  22.235  0.00  0.00    +0.000 HD
ENDBRANCH  12  13
BRANCH  12  15
ATOM     15  C   UNL     1       0.812   3.256  20.212  0.00  0.00    +0.000 C 
BRANCH  15  16
ATOM     16  C   UNL     1       0.929   2.565  18.848  0.00  0.00    +0.000 C 
BRANCH  16  18
ATOM     17  C   UNL     1       3.008   1.868  17.855  0.00  0.00    +0.000 C 
ATOM     18  N   UNL     1       1.970   1.542  18.826  0.00  0.00    +0.000 NA
ATOM     19  H   UNL     1       2.402   1.430  19.742  0.00  0.00    +0.000 HD
ENDBRANCH  16  18
ENDBRANCH  15  16
ENDBRANCH  12  15
ENDBRANCH  11  12
ENDBRANCH   1  11
BRANCH   5  20
ATOM     20  C   UNL     1       1.892   8.084  19.173  0.00  0.00    +0.000 C 
BRANCH  20  21
ATOM     21  C   UNL     1       1.672   9.049  18.013  0.00  0.00    +0.000 C 
BRANCH  21  22
ATOM     22  C   UNL     1       1.369  10.463  18.380  0.00  0.00    +0.000 A 
ATOM     23  N   UNL     1       2.244  11.507  18.211  0.00  0.00    +0.000 NA
ATOM     24  C   UNL     1       1.522  12.552  18.565  0.00  0.00    +0.000 A 
ATOM     25  C   UNL     1       1.808  13.947  18.612  0.00  0.00    +0.000 A 
ATOM     26  C   UNL     1       0.857  14.813  19.012  0.00  0.00    +0.000 A 
ATOM     27  C   UNL     1      -0.467  14.360  19.402  0.00  0.00    +0.000 A 
ATOM     28  C   UNL     1      -0.766  13.048  19.344  0.00  0.00    +0.000 A 
ATOM     29  C   UNL     1      -2.111  12.489  19.688  0.00  0.00    +0.000 C 
ATOM     30  N   UNL     1       0.233  12.149  18.930  0.00  0.00    +0.000 N 
ATOM     31  N   UNL     1       0.145  10.806  18.782  0.00  0.00    +0.000 NA
ENDBRANCH  21  22
ENDBRANCH  20  21
ENDBRANCH   5  20
TORSDOF 10
ENDMDL
MODEL 4
REMARK VINA RESULT:      -7.5      2.614      5.310
REMARK  Name = 
REMARK  12 active torsions:
REMARK  status: ('A' for Active; 'I' for Inactive)
REMARK    1  A    between atoms: C_1  and  N_2
REMARK    2  A    between atoms: N_2  and  C_3
REMARK    3  A    between atoms: C_3  and  C_4
REMARK    4  A    between atoms: C_4  and  C_5
REMARK    5  A    between atoms: C_5  and  O_6
REMARK    6  A    between atoms: C_5  and  C_7
REMARK    7  A    between atoms: C_7  and  N_8
REMARK    8  A    between atoms: C_10  and  C_11
REMARK    9  A    between atoms: C_17  and  C_18
REMARK   10  A    between atoms: C_18  and  C_19
REMARK   11  A    between atoms: C_19  and  C_20
REMARK   12  A    between atoms: C_26  and  C_27
REMARK                            x       y       z     vdW  Elec       q    Type
REMARK                         _______ _______ _______ _____ _____    ______ ____
ROOT
ATOM      1  N   UNL     1       6.202   4.930  16.985  0.00  0.00    +0.000 N 
ATOM      2  C   UNL     1       4.965   4.345  17.073  0.00  0.00    +0.000 A 
ATOM      3  C   UNL     1       4.429   4.800  18.253  0.00  0.00    +0.000 A 
ATOM      4  N   UNL     1       5.280   5.701  18.846  0.00  0.00    +0.000 NA
ATOM      5  C   UNL     1       6.357   5.747  18.083  0.00  0.00    +0.000 A 
ENDROOT
BRANCH   3   6
ATOM      6  C   UNL     1       3.138   4.343  18.846  0.00  0.00    +0.000 A 
ATOM      7  C   UNL     1       2.191   3.611  18.159  0.00  0.00    +0.000 A 
ATOM      8  C   UNL     1       1.018   3.382  18.940  0.00  0.00    +0.000 A 
ATOM      9  C   UNL     1       1.117   3.939  20.195  0.00  0.00    +0.000 A 
ATOM     10  S   UNL     1       2.626   4.703  20.438  0.00  0.00    +0.000 S 
ENDBRANCH   3   6
BRANCH   1  11
ATOM     11  C   UNL     1       7.174   4.590  15.959  0.00  0.00    +0.000 C 
BRANCH  11  12
ATOM     12  C   UNL     1       6.693   4.916  14.538  0.00  0.00    +0.000 C 
BRANCH  12  13
ATOM     13  O   UNL     1       7.811   5.298  13.722  0.00  0.00    +0.000 OA
ATOM     14  H   UNL     1       7.890   4.670  12.984  0.00  0.00    +0.000 HD
ENDBRANCH  12  13
BRANCH  12  15
ATOM     15  C   UNL     1       5.996   3.729  13.852  0.00  0.00    +0.000 C 
BRANCH  15  16
ATOM     16  C   UNL     1       6.133   3.644  12.327  0.00  0.00    +0.000 C 
BRANCH  16  18
ATOM     17  C   UNL     1       6.239   1.496  11.243  0.00  0.00    +0.000 C 
ATOM     18  N   UNL     1       7.002   2.551  11.902  0.00  0.00    +0.000 NA
ATOM     19  H   UNL     1       7.728   2.877  11.266  0.00  0.00    +0.000 HD
ENDBRANCH  16  18
ENDBRANCH  15  16
ENDBRANCH  12  15
ENDBRANCH  11  12
ENDBRANCH   1  11
BRANCH   5  20
ATOM     20  C   UNL     1       7.570   6.577  18.364  0.00  0.00    +0.000 C 
BRANCH  20  21
ATOM     21  C   UNL     1       7.679   7.802  17.462  0.00  0.00    +0.000 C 
BRANCH  21  22
ATOM     22  C   UNL     1       8.218   9.040  18.096  0.00  0.00    +0.000 A 
ATOM     23  N   UNL     1       9.097   9.047  19.151  0.00  0.00    +0.000 NA
ATOM     24  C   UNL     1       9.369  10.329  19.296  0.00  0.00    +0.000 A 
ATOM     25  C   UNL     1      10.219  11.035  20.194  0.00  0.00    +0.000 A 
ATOM     26  C   UNL     1      10.318  12.377  20.109  0.00  0.00    +0.000 A 
ATOM     27  C   UNL     1       9.572  13.131  19.117  0.00  0.00    +0.000 A 
ATOM     28  C   UNL     1       8.778  12.481  18.244  0.00  0.00    +0.000 A 
ATOM     29  C   UNL     1       8.001  13.165  17.164  0.00  0.00    +0.000 C 
ATOM     30  N   UNL     1       8.677  11.082  18.341  0.00  0.00    +0.000 N 
ATOM     31  N   UNL     1       7.961  10.236  17.563  0.00  0.00    +0.000 NA
ENDBRANCH  21  22
ENDBRANCH  20  21
ENDBRANCH   5  20
TORSDOF 10
ENDMDL
MODEL 5
REMARK VINA RESULT:      -7.5      4.505      5.808
REMARK  Name = 
REMARK  12 active torsions:
REMARK  status: ('A' for Active; 'I' for Inactive)
REMARK    1  A    between atoms: C_1  and  N_2
REMARK    2  A    between atoms: N_2  and  C_3
REMARK    3  A    between atoms: C_3  and  C_4
REMARK    4  A    between atoms: C_4  and  C_5
REMARK    5  A    between atoms: C_5  and  O_6
REMARK    6  A    between atoms: C_5  and  C_7
REMARK    7  A    between atoms: C_7  and  N_8
REMARK    8  A    between atoms: C_10  and  C_11
REMARK    9  A    between atoms: C_17  and  C_18
REMARK   10  A    between atoms: C_18  and  C_19
REMARK   11  A    between atoms: C_19  and  C_20
REMARK   12  A    between atoms: C_26  and  C_27
REMARK                            x       y       z     vdW  Elec       q    Type
REMARK                         _______ _______ _______ _____ _____    ______ ____
ROOT
ATOM      1  N   UNL     1       5.456   5.266  17.666  0.00  0.00    +0.000 N 
ATOM      2  C   UNL     1       6.029   4.475  16.703  0.00  0.00    +0.000 A 
ATOM      3  C   UNL     1       5.830   5.140  15.518  0.00  0.00    +0.000 A 
ATOM      4  N   UNL     1       5.216   6.348  15.748  0.00  0.00    +0.000 NA
ATOM      5  C   UNL     1       4.972   6.396  17.045  0.00  0.00    +0.000 A 
ENDROOT
BRANCH   3   6
ATOM      6  C   UNL     1       6.172   4.611  14.165  0.00  0.00    +0.000 A 
ATOM      7  C   UNL     1       5.393   3.708  13.472  0.00  0.00    +0.000 A 
ATOM      8  C   UNL     1       5.998   3.308  12.242  0.00  0.00    +0.000 A 
ATOM      9  C   UNL     1       7.211   3.928  12.038  0.00  0.00    +0.000 A 
ATOM     10  S   UNL     1       7.598   5.007  13.306  0.00  0.00    +0.000 S 
ENDBRANCH   3   6
BRANCH   1  11
ATOM     11  C   UNL     1       5.304   4.853  19.052  0.00  0.00    +0.000 C 
BRANCH  11  12
ATOM     12  C   UNL     1       4.315   3.691  19.231  0.00  0.00    +0.000 C 
BRANCH  12  13
ATOM     13  O   UNL     1       5.002   2.547  19.761  0.00  0.00    +0.000 OA
ATOM     14  H   UNL     1       5.362   2.027  19.022  0.00  0.00    +0.000 HD
ENDBRANCH  12  13
BRANCH  12  15
ATOM     15  C   UNL     1       3.159   4.028  20.188  0.00  0.00    +0.000 C 
BRANCH  15  16
ATOM     16  C   UNL     1       2.340   2.843  20.714  0.00  0.00    +0.000 C 
BRANCH  16  18
ATOM     17  C   UNL     1       0.746   2.477  18.947  0.00  0.00    +0.000 C 
ATOM     18  N   UNL     1       0.935   2.917  20.325  0.00  0.00    +0.000 NA
ATOM     19  H   UNL     1       0.349   2.348  20.934  0.00  0.00    +0.000 HD
ENDBRANCH  16  18
ENDBRANCH  15  16
ENDBRANCH  12  15
ENDBRANCH  11  12
ENDBRANCH   1  11
BRANCH   5  20
ATOM     20  C   UNL     1       4.278   7.522  17.744  0.00  0.00    +0.000 C 
BRANCH  20  21
ATOM     21  C   UNL     1       2.822   7.212  18.078  0.00  0.00    +0.000 C 
BRANCH  21  22
ATOM     22  C   UNL     1       2.022   8.339  18.641  0.00  0.00    +0.000 A 
ATOM     23  N   UNL     1       1.586   9.416  17.909  0.00  0.00    +0.000 NA
ATOM     24  C   UNL     1       0.848  10.078  18.778  0.00  0.00    +0.000 A 
ATOM     25  C   UNL     1       0.089  11.279  18.675  0.00  0.00    +0.000 A 
ATOM     26  C   UNL     1      -0.596  11.733  19.743  0.00  0.00    +0.000 A 
ATOM     27  C   UNL     1      -0.582  11.024  21.011  0.00  0.00    +0.000 A 
ATOM     28  C   UNL     1       0.112   9.875  21.124  0.00  0.00    +0.000 A 
ATOM     29  C   UNL     1       0.157   9.054  22.374  0.00  0.00    +0.000 C 
ATOM     30  N   UNL     1       0.828   9.409  20.007  0.00  0.00    +0.000 N 
ATOM     31  N   UNL     1       1.568   8.281  19.894  0.00  0.00    +0.000 NA
ENDBRANCH  21  22
ENDBRANCH  20  21
ENDBRANCH   5  20
TORSDOF 10
ENDMDL
MODEL 6
REMARK VINA RESULT:      -7.5      1.328      1.424
REMARK  Name = 
REMARK  12 active torsions:
REMARK  status: ('A' for Active; 'I' for Inactive)
REMARK    1  A    between atoms: C_1  and  N_2
REMARK    2  A    between atoms: N_2  and  C_3
REMARK    3  A    between atoms: C_3  and  C_4
REMARK    4  A    between atoms: C_4  and  C_5
REMARK    5  A    between atoms: C_5  and  O_6
REMARK    6  A    between atoms: C_5  and  C_7
REMARK    7  A    between atoms: C_7  and  N_8
REMARK    8  A    between atoms: C_10  and  C_11
REMARK    9  A    between atoms: C_17  and  C_18
REMARK   10  A    between atoms: C_18  and  C_19
REMARK   11  A    between atoms: C_19  and  C_20
REMARK   12  A    between atoms: C_26  and  C_27
REMARK                            x       y       z     vdW  Elec       q    Type
REMARK                         _______ _______ _______ _____ _____    ______ ____
ROOT
ATOM      1  N   UNL     1       6.470   5.374  17.832  0.00  0.00    +0.000 N 
ATOM      2  C   UNL     1       6.175   4.566  16.765  0.00  0.00    +0.000 A 
ATOM      3  C   UNL     1       6.858   5.101  15.700  0.00  0.00    +0.000 A 
ATOM      4  N   UNL     1       7.616   6.171  16.112  0.00  0.00    +0.000 NA
ATOM      5  C   UNL     1       7.349   6.339  17.395  0.00  0.00    +0.000 A 
ENDROOT
BRANCH   3   6
ATOM      6  C   UNL     1       6.752   4.636  14.286  0.00  0.00    +0.000 A 
ATOM      7  C   UNL     1       5.789   3.758  13.834  0.00  0.00    +0.000 A 
ATOM      8  C   UNL     1       5.973   3.419  12.460  0.00  0.00    +0.000 A 
ATOM      9  C   UNL     1       7.063   4.058  11.912  0.00  0.00    +0.000 A 
ATOM     10  S   UNL     1       7.837   5.082  13.040  0.00  0.00    +0.000 S 
ENDBRANCH   3   6
BRANCH   1  11
ATOM     11  C   UNL     1       5.822   5.253  19.128  0.00  0.00    +0.000 C 
BRANCH  11  12
ATOM     12  C   UNL     1       4.330   5.616  19.096  0.00  0.00    +0.000 C 
BRANCH  12  13
ATOM     13  O   UNL     1       4.112   6.689  18.167  0.00  0.00    +0.000 OA
ATOM     14  H   UNL     1       4.838   6.697  17.520  0.00  0.00    +0.000 HD
ENDBRANCH  12  13
BRANCH  12  15
ATOM     15  C   UNL     1       3.434   4.439  18.673  0.00  0.00    +0.000 C 
BRANCH  15  16
ATOM     16  C   UNL     1       2.881   3.561  19.801  0.00  0.00    +0.000 C 
BRANCH  16  18
ATOM     17  C   UNL     1       3.469   1.659  18.447  0.00  0.00    +0.000 C 
ATOM     18  N   UNL     1       3.450   2.216  19.795  0.00  0.00    +0.000 NA
ATOM     19  H   UNL     1       4.399   2.211  20.165  0.00  0.00    +0.000 HD
ENDBRANCH  16  18
ENDBRANCH  15  16
ENDBRANCH  12  15
ENDBRANCH  11  12
ENDBRANCH   1  11
BRANCH   5  20
ATOM     20  C   UNL     1       7.927   7.419  18.255  0.00  0.00    +0.000 C 
BRANCH  20  21
ATOM     21  C   UNL     1       7.887   8.794  17.596  0.00  0.00    +0.000 C 
BRANCH  21  22
ATOM     22  C   UNL     1       8.657   9.874  18.280  0.00  0.00    +0.000 A 
ATOM     23  N   UNL     1       8.854   9.940  19.636  0.00  0.00    +0.000 NA
ATOM     24  C   UNL     1       9.661  10.976  19.763  0.00  0.00    +0.000 A 
ATOM     25  C   UNL     1      10.269  11.586  20.897  0.00  0.00    +0.000 A 
ATOM     26  C   UNL     1      11.078  12.651  20.732  0.00  0.00    +0.000 A 
ATOM     27  C   UNL     1      11.349  13.202  19.415  0.00  0.00    +0.000 A 
ATOM     28  C   UNL     1      10.800  12.627  18.327  0.00  0.00    +0.000 A 
ATOM     29  C   UNL     1      11.048  13.096  16.929  0.00  0.00    +0.000 C 
ATOM     30  N   UNL     1       9.954  11.518  18.507  0.00  0.00    +0.000 N 
ATOM     31  N   UNL     1       9.320  10.783  17.563  0.00  0.00    +0.000 NA
ENDBRANCH  21  22
ENDBRANCH  20  21
ENDBRANCH   5  20
TORSDOF 10
ENDMDL
MODEL 7
REMARK VINA RESULT:      -7.5      2.328      5.353
REMARK  Name = 
REMARK  12 active torsions:
REMARK  status: ('A' for Active; 'I' for Inactive)
REMARK    1  A    between atoms: C_1  and  N_2
REMARK    2  A    between atoms: N_2  and  C_3
REMARK    3  A    between atoms: C_3  and  C_4
REMARK    4  A    between atoms: C_4  and  C_5
REMARK    5  A    between atoms: C_5  and  O_6
REMARK    6  A    between atoms: C_5  and  C_7
REMARK    7  A    between atoms: C_7  and  N_8
REMARK    8  A    between atoms: C_10  and  C_11
REMARK    9  A    between atoms: C_17  and  C_18
REMARK   10  A    between atoms: C_18  and  C_19
REMARK   11  A    between atoms: C_19  and  C_20
REMARK   12  A    between atoms: C_26  and  C_27
REMARK                            x       y       z     vdW  Elec       q    Type
REMARK                         _______ _______ _______ _____ _____    ______ ____
ROOT
ATOM      1  N   UNL     1       6.276   4.820  17.316  0.00  0.00    +0.000 N 
ATOM      2  C   UNL     1       5.097   4.200  17.640  0.00  0.00    +0.000 A 
ATOM      3  C   UNL     1       4.753   4.692  18.876  0.00  0.00    +0.000 A 
ATOM      4  N   UNL     1       5.655   5.647  19.275  0.00  0.00    +0.000 NA
ATOM      5  C   UNL     1       6.584   5.693  18.336  0.00  0.00    +0.000 A 
ENDROOT
BRANCH   3   6
ATOM      6  C   UNL     1       3.601   4.221  19.701  0.00  0.00    +0.000 A 
ATOM      7  C   UNL     1       2.577   5.038  20.131  0.00  0.00    +0.000 A 
ATOM      8  C   UNL     1       1.654   4.346  20.972  0.00  0.00    +0.000 A 
ATOM      9  C   UNL     1       2.003   3.025  21.145  0.00  0.00    +0.000 A 
ATOM     10  S   UNL     1       3.415   2.619  20.272  0.00  0.00    +0.000 S 
ENDBRANCH   3   6
BRANCH   1  11
ATOM     11  C   UNL     1       7.071   4.465  16.152  0.00  0.00    +0.000 C 
BRANCH  11  12
ATOM     12  C   UNL     1       6.406   4.853  14.823  0.00  0.00    +0.000 C 
BRANCH  12  13
ATOM     13  O   UNL     1       5.854   6.175  14.925  0.00  0.00    +0.000 OA
ATOM     14  H   UNL     1       6.529   6.770  15.292  0.00  0.00    +0.000 HD
ENDBRANCH  12  13
BRANCH  12  15
ATOM     15  C   UNL     1       7.384   4.843  13.636  0.00  0.00    +0.000 C 
BRANCH  15  16
ATOM     16  C   UNL     1       6.862   4.240  12.326  0.00  0.00    +0.000 C 
BRANCH  16  18
ATOM     17  C   UNL     1       5.162   2.651  11.709  0.00  0.00    +0.000 C 
ATOM     18  N   UNL     1       6.371   2.875  12.494  0.00  0.00    +0.000 NA
ATOM     19  H   UNL     1       7.073   2.190  12.218  0.00  0.00    +0.000 HD
ENDBRANCH  16  18
ENDBRANCH  15  16
ENDBRANCH  12  15
ENDBRANCH  11  12
ENDBRANCH   1  11
BRANCH   5  20
ATOM     20  C   UNL     1       7.792   6.574  18.370  0.00  0.00    +0.000 C 
BRANCH  20  21
ATOM     21  C   UNL     1       7.637   7.835  17.526  0.00  0.00    +0.000 C 
BRANCH  21  22
ATOM     22  C   UNL     1       8.204   9.088  18.104  0.00  0.00    +0.000 A 
ATOM     23  N   UNL     1       9.154   9.119  19.095  0.00  0.00    +0.000 NA
ATOM     24  C   UNL     1       9.420  10.406  19.203  0.00  0.00    +0.000 A 
ATOM     25  C   UNL     1      10.322  11.135  20.030  0.00  0.00    +0.000 A 
ATOM     26  C   UNL     1      10.398  12.476  19.920  0.00  0.00    +0.000 A 
ATOM     27  C   UNL     1       9.576  13.208  18.972  0.00  0.00    +0.000 A 
ATOM     28  C   UNL     1       8.732  12.537  18.166  0.00  0.00    +0.000 A 
ATOM     29  C   UNL     1       7.873  13.196  17.133  0.00  0.00    +0.000 C 
ATOM     30  N   UNL     1       8.654  11.138  18.288  0.00  0.00    +0.000 N 
ATOM     31  N   UNL     1       7.896  10.273  17.574  0.00  0.00    +0.000 NA
ENDBRANCH  21  22
ENDBRANCH  20  21
ENDBRANCH   5  20
TORSDOF 10
ENDMDL
MODEL 8
REMARK VINA RESULT:      -7.4      1.435      1.642
REMARK  Name = 
REMARK  12 active torsions:
REMARK  status: ('A' for Active; 'I' for Inactive)
REMARK    1  A    between atoms: C_1  and  N_2
REMARK    2  A    between atoms: N_2  and  C_3
REMARK    3  A    between atoms: C_3  and  C_4
REMARK    4  A    between atoms: C_4  and  C_5
REMARK    5  A    between atoms: C_5  and  O_6
REMARK    6  A    between atoms: C_5  and  C_7
REMARK    7  A    between atoms: C_7  and  N_8
REMARK    8  A    between atoms: C_10  and  C_11
REMARK    9  A    between atoms: C_17  and  C_18
REMARK   10  A    between atoms: C_18  and  C_19
REMARK   11  A    between atoms: C_19  and  C_20
REMARK   12  A    between atoms: C_26  and  C_27
REMARK                            x       y       z     vdW  Elec       q    Type
REMARK                         _______ _______ _______ _____ _____    ______ ____
ROOT
ATOM      1  N   UNL     1       6.366   5.497  17.747  0.00  0.00    +0.000 N 
ATOM      2  C   UNL     1       6.063   4.675  16.692  0.00  0.00    +0.000 A 
ATOM      3  C   UNL     1       6.804   5.146  15.636  0.00  0.00    +0.000 A 
ATOM      4  N   UNL     1       7.603   6.187  16.043  0.00  0.00    +0.000 NA
ATOM      5  C   UNL     1       7.307   6.405  17.312  0.00  0.00    +0.000 A 
ENDROOT
BRANCH   3   6
ATOM      6  C   UNL     1       6.718   4.647  14.232  0.00  0.00    +0.000 A 
ATOM      7  C   UNL     1       5.767   3.751  13.791  0.00  0.00    +0.000 A 
ATOM      8  C   UNL     1       5.969   3.381  12.427  0.00  0.00    +0.000 A 
ATOM      9  C   UNL     1       7.060   4.015  11.876  0.00  0.00    +0.000 A 
ATOM     10  S   UNL     1       7.813   5.072  12.988  0.00  0.00    +0.000 S 
ENDBRANCH   3   6
BRANCH   1  11
ATOM     11  C   UNL     1       5.675   5.446  19.024  0.00  0.00    +0.000 C 
BRANCH  11  12
ATOM     12  C   UNL     1       4.148   5.545  18.890  0.00  0.00    +0.000 C 
BRANCH  12  13
ATOM     13  O   UNL     1       3.543   5.508  20.192  0.00  0.00    +0.000 OA
ATOM     14  H   UNL     1       4.002   4.844  20.733  0.00  0.00    +0.000 HD
ENDBRANCH  12  13
BRANCH  12  15
ATOM     15  C   UNL     1       3.688   6.837  18.195  0.00  0.00    +0.000 C 
BRANCH  15  16
ATOM     16  C   UNL     1       2.194   7.172  18.293  0.00  0.00    +0.000 C 
BRANCH  16  18
ATOM     17  C   UNL     1       1.521   8.351  20.281  0.00  0.00    +0.000 C 
ATOM     18  N   UNL     1       1.951   8.480  18.893  0.00  0.00    +0.000 NA
ATOM     19  H   UNL     1       2.783   9.066  18.861  0.00  0.00    +0.000 HD
ENDBRANCH  16  18
ENDBRANCH  15  16
ENDBRANCH  12  15
ENDBRANCH  11  12
ENDBRANCH   1  11
BRANCH   5  20
ATOM     20  C   UNL     1       7.913   7.478  18.161  0.00  0.00    +0.000 C 
BRANCH  20  21
ATOM     21  C   UNL     1       7.902   8.848  17.490  0.00  0.00    +0.000 C 
BRANCH  21  22
ATOM     22  C   UNL     1       8.498   9.969  18.274  0.00  0.00    +0.000 A 
ATOM     23  N   UNL     1       9.345   9.799  19.341  0.00  0.00    +0.000 NA
ATOM     24  C   UNL     1       9.691  11.036  19.639  0.00  0.00    +0.000 A 
ATOM     25  C   UNL     1      10.557  11.580  20.630  0.00  0.00    +0.000 A 
ATOM     26  C   UNL     1      10.740  12.913  20.702  0.00  0.00    +0.000 A 
ATOM     27  C   UNL     1      10.071  13.822  19.787  0.00  0.00    +0.000 A 
ATOM     28  C   UNL     1       9.264  13.327  18.828  0.00  0.00    +0.000 A 
ATOM     29  C   UNL     1       8.562  14.178  17.818  0.00  0.00    +0.000 C 
ATOM     30  N   UNL     1       9.075  11.936  18.761  0.00  0.00    +0.000 N 
ATOM     31  N   UNL     1       8.330  11.231  17.876  0.00  0.00    +0.000 NA
ENDBRANCH  21  22
ENDBRANCH  20  21
ENDBRANCH   5  20
TORSDOF 10
ENDMDL
MODEL 9
REMARK VINA RESULT:      -7.3      1.283      1.562
REMARK  Name = 
REMARK  12 active torsions:
REMARK  status: ('A' for Active; 'I' for Inactive)
REMARK    1  A    between atoms: C_1  and  N_2
REMARK    2  A    between atoms: N_2  and  C_3
REMARK    3  A    between atoms: C_3  and  C_4
REMARK    4  A    between atoms: C_4  and  C_5
REMARK    5  A    between atoms: C_5  and  O_6
REMARK    6  A    between atoms: C_5  and  C_7
REMARK    7  A    between atoms: C_7  and  N_8
REMARK    8  A    between atoms: C_10  and  C_11
REMARK    9  A    between atoms: C_17  and  C_18
REMARK   10  A    between atoms: C_18  and  C_19
REMARK   11  A    between atoms: C_19  and  C_20
REMARK   12  A    between atoms: C_26  and  C_27
REMARK                            x       y       z     vdW  Elec       q    Type
REMARK                         _______ _______ _______ _____ _____    ______ ____
ROOT
ATOM      1  N   UNL     1       6.501   5.339  17.790  0.00  0.00    +0.000 N 
ATOM      2  C   UNL     1       6.229   4.559  16.696  0.00  0.00    +0.000 A 
ATOM      3  C   UNL     1       6.920   5.133  15.657  0.00  0.00    +0.000 A 
ATOM      4  N   UNL     1       7.660   6.198  16.109  0.00  0.00    +0.000 NA
ATOM      5  C   UNL     1       7.375   6.326  17.393  0.00  0.00    +0.000 A 
ENDROOT
BRANCH   3   6
ATOM      6  C   UNL     1       6.838   4.707  14.228  0.00  0.00    +0.000 A 
ATOM      7  C   UNL     1       5.904   3.817  13.742  0.00  0.00    +0.000 A 
ATOM      8  C   UNL     1       6.107   3.524  12.360  0.00  0.00    +0.000 A 
ATOM      9  C   UNL     1       7.183   4.210  11.841  0.00  0.00    +0.000 A 
ATOM     10  S   UNL     1       7.919   5.221  13.006  0.00  0.00    +0.000 S 
ENDBRANCH   3   6
BRANCH   1  11
ATOM     11  C   UNL     1       5.838   5.173  19.073  0.00  0.00    +0.000 C 
BRANCH  11  12
ATOM     12  C   UNL     1       4.509   4.409  18.974  0.00  0.00    +0.000 C 
BRANCH  12  13
ATOM     13  O   UNL     1       4.357   3.549  20.114  0.00  0.00    +0.000 OA
ATOM     14  H   UNL     1       3.604   3.861  20.644  0.00  0.00    +0.000 HD
ENDBRANCH  12  13
BRANCH  12  15
ATOM     15  C   UNL     1       3.284   5.337  18.920  0.00  0.00    +0.000 C 
BRANCH  15  16
ATOM     16  C   UNL     1       2.018   4.760  18.275  0.00  0.00    +0.000 C 
BRANCH  16  18
ATOM     17  C   UNL     1       1.062   2.619  18.821  0.00  0.00    +0.000 C 
ATOM     18  N   UNL     1       2.100   3.317  18.071  0.00  0.00    +0.000 NA
ATOM     19  H   UNL     1       2.012   3.075  17.085  0.00  0.00    +0.000 HD
ENDBRANCH  16  18
ENDBRANCH  15  16
ENDBRANCH  12  15
ENDBRANCH  11  12
ENDBRANCH   1  11
BRANCH   5  20
ATOM     20  C   UNL     1       7.929   7.387  18.291  0.00  0.00    +0.000 C 
BRANCH  20  21
ATOM     21  C   UNL     1       7.925   8.773  17.654  0.00  0.00    +0.000 C 
BRANCH  21  22
ATOM     22  C   UNL     1       8.782   9.802  18.311  0.00  0.00    +0.000 A 
ATOM     23  N   UNL     1       9.760  10.518  17.665  0.00  0.00    +0.000 NA
ATOM     24  C   UNL     1      10.166  11.361  18.595  0.00  0.00    +0.000 A 
ATOM     25  C   UNL     1      11.145  12.394  18.592  0.00  0.00    +0.000 A 
ATOM     26  C   UNL     1      11.350  13.126  19.705  0.00  0.00    +0.000 A 
ATOM     27  C   UNL     1      10.593  12.887  20.922  0.00  0.00    +0.000 A 
ATOM     28  C   UNL     1       9.646  11.928  20.939  0.00  0.00    +0.000 A 
ATOM     29  C   UNL     1       8.790  11.632  22.129  0.00  0.00    +0.000 C 
ATOM     30  N   UNL     1       9.440  11.166  19.775  0.00  0.00    +0.000 N 
ATOM     31  N   UNL     1       8.539  10.176  19.568  0.00  0.00    +0.000 NA
ENDBRANCH  21  22
ENDBRANCH  20  21
ENDBRANCH   5  20
TORSDOF 10
ENDMDL
