MODEL 1
REMARK VINA RESULT:      -9.2      0.000      0.000
REMARK  Name = 
REMARK  9 active torsions:
REMARK  status: ('A' for Active; 'I' for Inactive)
REMARK    1  A    between atoms: C_1  and  O_2
REMARK    2  A    between atoms: O_2  and  C_3
REMARK    3  A    between atoms: C_9  and  C_10
REMARK    4  A    between atoms: C_10  and  C_12
REMARK    5  A    between atoms: C_14  and  C_15
REMARK    6  A    between atoms: N_17  and  C_18
REMARK    7  A    between atoms: C_22  and  O_23
REMARK    8  A    between atoms: O_23  and  C_24
REMARK    9  A    between atoms: N_30  and  C_31
REMARK                            x       y       z     vdW  Elec       q    Type
REMARK                         _______ _______ _______ _____ _____    ______ ____
ROOT
ATOM      1  C   UNL     1       1.604   9.403  18.885  0.00  0.00    +0.000 A 
ATOM      2  N   UNL     1       2.071   8.506  18.037  0.00  0.00    +0.000 NA
ATOM      3  C   UNL     1       2.181   7.386  18.817  0.00  0.00    +0.000 A 
ATOM      4  N   UNL     1       1.798   7.553  20.091  0.00  0.00    +0.000 NA
ATOM      5  O   UNL     1       1.440   8.901  20.147  0.00  0.00    +0.000 OA
ENDROOT
BRANCH   3   6
ATOM      6  C   UNL     1       2.691   6.123  18.279  0.00  0.00    +0.000 A 
ATOM      7  C   UNL     1       2.028   4.913  18.278  0.00  0.00    +0.000 A 
ATOM      8  N   UNL     1       2.851   3.977  17.716  0.00  0.00    +0.000 N 
ATOM      9  C   UNL     1       2.512   2.583  17.533  0.00  0.00    +0.000 C 
ATOM     10  C   UNL     1       4.052   4.551  17.355  0.00  0.00    +0.000 A 
ATOM     11  C   UNL     1       5.197   3.985  16.774  0.00  0.00    +0.000 A 
ATOM     12  C   UNL     1       6.287   4.819  16.504  0.00  0.00    +0.000 A 
ATOM     13  C   UNL     1       6.240   6.180  16.795  0.00  0.00    +0.000 A 
ATOM     14  C   UNL     1       5.090   6.726  17.383  0.00  0.00    +0.000 A 
ATOM     15  C   UNL     1       3.973   5.911  17.677  0.00  0.00    +0.000 A 
BRANCH  13  16
ATOM     16  O   UNL     1       7.242   7.083  16.559  0.00  0.00    +0.000 OA
ATOM     17  C   UNL     1       7.744   7.794  17.685  0.00  0.00    +0.000 C 
ENDBRANCH  13  16
ENDBRANCH   3   6
BRANCH   1  18
ATOM     18  C   UNL     1       1.266  10.795  18.656  0.00  0.00    +0.000 C 
ATOM     19  O   UNL     1       2.084  11.611  18.234  0.00  0.00    +0.000 OA
BRANCH  18  26
ATOM     20  C   UNL     1      -2.927  10.139  16.626  0.00  0.00    +0.000 A 
ATOM     21  C   UNL     1      -3.954  10.778  17.316  0.00  0.00    +0.000 A 
ATOM     22  C   UNL     1      -3.694  11.498  18.484  0.00  0.00    +0.000 A 
ATOM     23  C   UNL     1      -2.370  11.565  18.945  0.00  0.00    +0.000 A 
ATOM     24  C   UNL     1      -1.315  10.921  18.291  0.00  0.00    +0.000 A 
ATOM     25  C   UNL     1      -1.615  10.186  17.119  0.00  0.00    +0.000 A 
ATOM     26  C   UNL     1      -0.101  11.211  19.018  0.00  0.00    +0.000 A 
ATOM     27  C   UNL     1      -0.485  12.008  20.086  0.00  0.00    +0.000 A 
ATOM     28  N   UNL     1      -1.837  12.209  20.034  0.00  0.00    +0.000 N 
ATOM     29  C   UNL     1      -2.581  13.031  20.961  0.00  0.00    +0.000 C 
BRANCH  20  31
ATOM     30  C   UNL     1      -3.305  10.174  14.293  0.00  0.00    +0.000 C 
ATOM     31  O   UNL     1      -3.095   9.412  15.477  0.00  0.00    +0.000 OA
ENDBRANCH  20  31
ENDBRANCH  18  26
ENDBRANCH   1  18
TORSDOF 5
ENDMDL
MODEL 2
REMARK VINA RESULT:      -8.8      1.690      2.908
REMARK  Name = 
REMARK  9 active torsions:
REMARK  status: ('A' for Active; 'I' for Inactive)
REMARK    1  A    between atoms: C_1  and  O_2
REMARK    2  A    between atoms: O_2  and  C_3
REMARK    3  A    between atoms: C_9  and  C_10
REMARK    4  A    between atoms: C_10  and  C_12
REMARK    5  A    between atoms: C_14  and  C_15
REMARK    6  A    between atoms: N_17  and  C_18
REMARK    7  A    between atoms: C_22  and  O_23
REMARK    8  A    between atoms: O_23  and  C_24
REMARK    9  A    between atoms: N_30  and  C_31
REMARK                            x       y       z     vdW  Elec       q    Type
REMARK                         _______ _______ _______ _____ _____    ______ ____
ROOT
ATOM      1  C   UNL     1       1.489  10.059  18.741  0.00  0.00    +0.000 A 
ATOM      2  N   UNL     1       2.186   9.324  17.895  0.00  0.00    +0.000 NA
ATOM      3  C   UNL     1       2.314   8.137  18.565  0.00  0.00    +0.000 A 
ATOM      4  N   UNL     1       1.724   8.109  19.769  0.00  0.00    +0.000 NA
ATOM      5  O   UNL     1       1.199   9.396  19.901  0.00  0.00    +0.000 OA
ENDROOT
BRANCH   3   6
ATOM      6  C   UNL     1       3.052   7.009  17.993  0.00  0.00    +0.000 A 
ATOM      7  C   UNL     1       4.106   7.093  17.106  0.00  0.00    +0.000 A 
ATOM      8  N   UNL     1       4.498   5.823  16.788  0.00  0.00    +0.000 N 
ATOM      9  C   UNL     1       5.579   5.494  15.886  0.00  0.00    +0.000 C 
ATOM     10  C   UNL     1       3.710   4.901  17.445  0.00  0.00    +0.000 A 
ATOM     11  C   UNL     1       3.722   3.498  17.410  0.00  0.00    +0.000 A 
ATOM     12  C   UNL     1       2.798   2.805  18.197  0.00  0.00    +0.000 A 
ATOM     13  C   UNL     1       1.890   3.484  19.006  0.00  0.00    +0.000 A 
ATOM     14  C   UNL     1       1.887   4.886  19.022  0.00  0.00    +0.000 A 
ATOM     15  C   UNL     1       2.801   5.620  18.232  0.00  0.00    +0.000 A 
BRANCH  13  16
ATOM     16  O   UNL     1       0.957   2.904  19.823  0.00  0.00    +0.000 OA
ATOM     17  C   UNL     1       1.248   2.881  21.215  0.00  0.00    +0.000 C 
ENDBRANCH  13  16
ENDBRANCH   3   6
BRANCH   1  18
ATOM     18  C   UNL     1       1.021  11.425  18.601  0.00  0.00    +0.000 C 
ATOM     19  O   UNL     1       1.758  12.341  18.238  0.00  0.00    +0.000 OA
BRANCH  18  26
ATOM     20  C   UNL     1      -3.101  10.220  16.682  0.00  0.00    +0.000 A 
ATOM     21  C   UNL     1      -4.183  10.751  17.378  0.00  0.00    +0.000 A 
ATOM     22  C   UNL     1      -3.990  11.529  18.521  0.00  0.00    +0.000 A 
ATOM     23  C   UNL     1      -2.675  11.765  18.951  0.00  0.00    +0.000 A 
ATOM     24  C   UNL     1      -1.563  11.234  18.290  0.00  0.00    +0.000 A 
ATOM     25  C   UNL     1      -1.795  10.436  17.144  0.00  0.00    +0.000 A 
ATOM     26  C   UNL     1      -0.379  11.686  18.983  0.00  0.00    +0.000 A 
ATOM     27  C   UNL     1      -0.835  12.461  20.039  0.00  0.00    +0.000 A 
ATOM     28  N   UNL     1      -2.201  12.499  20.011  0.00  0.00    +0.000 N 
ATOM     29  C   UNL     1      -3.021  13.252  20.933  0.00  0.00    +0.000 C 
BRANCH  20  31
ATOM     30  C   UNL     1      -3.074  10.140  14.319  0.00  0.00    +0.000 C 
ATOM     31  O   UNL     1      -3.203   9.446  15.555  0.00  0.00    +0.000 OA
ENDBRANCH  20  31
ENDBRANCH  18  26
ENDBRANCH   1  18
TORSDOF 5
ENDMDL
MODEL 3
REMARK VINA RESULT:      -8.5      2.053      9.035
REMARK  Name = 
REMARK  9 active torsions:
REMARK  status: ('A' for Active; 'I' for Inactive)
REMARK    1  A    between atoms: C_1  and  O_2
REMARK    2  A    between atoms: O_2  and  C_3
REMARK    3  A    between atoms: C_9  and  C_10
REMARK    4  A    between atoms: C_10  and  C_12
REMARK    5  A    between atoms: C_14  and  C_15
REMARK    6  A    between atoms: N_17  and  C_18
REMARK    7  A    between atoms: C_22  and  O_23
REMARK    8  A    between atoms: O_23  and  C_24
REMARK    9  A    between atoms: N_30  and  C_31
REMARK                            x       y       z     vdW  Elec       q    Type
REMARK                         _______ _______ _______ _____ _____    ______ ____
ROOT
ATOM      1  C   UNL     1       2.420   7.224  18.374  0.00  0.00    +0.000 A 
ATOM      2  N   UNL     1       1.601   7.842  19.202  0.00  0.00    +0.000 NA
ATOM      3  C   UNL     1       1.493   9.088  18.644  0.00  0.00    +0.000 A 
ATOM      4  N   UNL     1       2.197   9.256  17.515  0.00  0.00    +0.000 NA
ATOM      5  O   UNL     1       2.837   8.026  17.347  0.00  0.00    +0.000 OA
ENDROOT
BRANCH   3   6
ATOM      6  C   UNL     1       0.677  10.136  19.259  0.00  0.00    +0.000 A 
ATOM      7  C   UNL     1       1.012  10.877  20.374  0.00  0.00    +0.000 A 
ATOM      8  N   UNL     1      -0.024  11.727  20.647  0.00  0.00    +0.000 N 
ATOM      9  C   UNL     1      -0.050  12.671  21.742  0.00  0.00    +0.000 C 
ATOM     10  C   UNL     1      -1.042  11.549  19.734  0.00  0.00    +0.000 A 
ATOM     11  C   UNL     1      -2.296  12.170  19.631  0.00  0.00    +0.000 A 
ATOM     12  C   UNL     1      -3.141  11.793  18.582  0.00  0.00    +0.000 A 
ATOM     13  C   UNL     1      -2.749  10.832  17.653  0.00  0.00    +0.000 A 
ATOM     14  C   UNL     1      -1.495  10.217  17.777  0.00  0.00    +0.000 A 
ATOM     15  C   UNL     1      -0.620  10.566  18.830  0.00  0.00    +0.000 A 
BRANCH  13  16
ATOM     16  O   UNL     1      -3.490  10.404  16.585  0.00  0.00    +0.000 OA
ATOM     17  C   UNL     1      -2.783   9.769  15.526  0.00  0.00    +0.000 C 
ENDBRANCH  13  16
ENDBRANCH   3   6
BRANCH   1  18
ATOM     18  C   UNL     1       2.917   5.861  18.418  0.00  0.00    +0.000 C 
ATOM     19  O   UNL     1       2.176   4.895  18.592  0.00  0.00    +0.000 OA
BRANCH  18  26
ATOM     20  C   UNL     1       5.726   4.420  14.931  0.00  0.00    +0.000 A 
ATOM     21  C   UNL     1       7.061   4.361  15.318  0.00  0.00    +0.000 A 
ATOM     22  C   UNL     1       7.452   4.724  16.609  0.00  0.00    +0.000 A 
ATOM     23  C   UNL     1       6.461   5.147  17.509  0.00  0.00    +0.000 A 
ATOM     24  C   UNL     1       5.113   5.239  17.152  0.00  0.00    +0.000 A 
ATOM     25  C   UNL     1       4.753   4.879  15.831  0.00  0.00    +0.000 A 
ATOM     26  C   UNL     1       4.377   5.687  18.312  0.00  0.00    +0.000 A 
ATOM     27  C   UNL     1       5.322   5.856  19.312  0.00  0.00    +0.000 A 
ATOM     28  N   UNL     1       6.558   5.535  18.823  0.00  0.00    +0.000 N 
ATOM     29  C   UNL     1       7.777   5.549  19.599  0.00  0.00    +0.000 C 
BRANCH  20  31
ATOM     30  C   UNL     1       6.244   3.630  12.763  0.00  0.00    +0.000 C 
ATOM     31  O   UNL     1       5.260   4.086  13.686  0.00  0.00    +0.000 OA
ENDBRANCH  20  31
ENDBRANCH  18  26
ENDBRANCH   1  18
TORSDOF 5
ENDMDL
MODEL 4
REMARK VINA RESULT:      -8.4      5.756      9.527
REMARK  Name = 
REMARK  9 active torsions:
REMARK  status: ('A' for Active; 'I' for Inactive)
REMARK    1  A    between atoms: C_1  and  O_2
REMARK    2  A    between atoms: O_2  and  C_3
REMARK    3  A    between atoms: C_9  and  C_10
REMARK    4  A    between atoms: C_10  and  C_12
REMARK    5  A    between atoms: C_14  and  C_15
REMARK    6  A    between atoms: N_17  and  C_18
REMARK    7  A    between atoms: C_22  and  O_23
REMARK    8  A    between atoms: O_23  and  C_24
REMARK    9  A    between atoms: N_30  and  C_31
REMARK                            x       y       z     vdW  Elec       q    Type
REMARK                         _______ _______ _______ _____ _____    ______ ____
ROOT
ATOM      1  C   UNL     1       7.979   7.421  18.385  0.00  0.00    +0.000 A 
ATOM      2  N   UNL     1       8.813   8.257  18.974  0.00  0.00    +0.000 NA
ATOM      3  C   UNL     1       8.604   9.423  18.287  0.00  0.00    +0.000 A 
ATOM      4  N   UNL     1       7.682   9.342  17.317  0.00  0.00    +0.000 NA
ATOM      5  O   UNL     1       7.284   8.004  17.361  0.00  0.00    +0.000 OA
ENDROOT
BRANCH   3   6
ATOM      6  C   UNL     1       9.352  10.642  18.599  0.00  0.00    +0.000 A 
ATOM      7  C   UNL     1      10.222  11.302  17.754  0.00  0.00    +0.000 A 
ATOM      8  N   UNL     1      10.739  12.374  18.427  0.00  0.00    +0.000 N 
ATOM      9  C   UNL     1      11.688  13.315  17.875  0.00  0.00    +0.000 C 
ATOM     10  C   UNL     1      10.231  12.424  19.708  0.00  0.00    +0.000 A 
ATOM     11  C   UNL     1      10.488  13.319  20.758  0.00  0.00    +0.000 A 
ATOM     12  C   UNL     1       9.814  13.134  21.969  0.00  0.00    +0.000 A 
ATOM     13  C   UNL     1       8.903  12.094  22.133  0.00  0.00    +0.000 A 
ATOM     14  C   UNL     1       8.665  11.205  21.076  0.00  0.00    +0.000 A 
ATOM     15  C   UNL     1       9.335  11.356  19.840  0.00  0.00    +0.000 A 
BRANCH  13  16
ATOM     16  O   UNL     1       8.182  11.834  23.268  0.00  0.00    +0.000 OA
ATOM     17  C   UNL     1       6.817  12.235  23.268  0.00  0.00    +0.000 C 
ENDBRANCH  13  16
ENDBRANCH   3   6
BRANCH   1  18
ATOM     18  C   UNL     1       7.725   6.022  18.672  0.00  0.00    +0.000 C 
ATOM     19  O   UNL     1       8.274   5.430  19.600  0.00  0.00    +0.000 OA
BRANCH  18  26
ATOM     20  C   UNL     1       3.407   4.225  19.169  0.00  0.00    +0.000 A 
ATOM     21  C   UNL     1       2.966   3.582  18.015  0.00  0.00    +0.000 A 
ATOM     22  C   UNL     1       3.764   3.534  16.870  0.00  0.00    +0.000 A 
ATOM     23  C   UNL     1       5.025   4.149  16.912  0.00  0.00    +0.000 A 
ATOM     24  C   UNL     1       5.496   4.820  18.045  0.00  0.00    +0.000 A 
ATOM     25  C   UNL     1       4.655   4.864  19.183  0.00  0.00    +0.000 A 
ATOM     26  C   UNL     1       6.821   5.312  17.749  0.00  0.00    +0.000 A 
ATOM     27  C   UNL     1       7.083   4.923  16.444  0.00  0.00    +0.000 A 
ATOM     28  N   UNL     1       6.008   4.235  15.955  0.00  0.00    +0.000 N 
ATOM     29  C   UNL     1       5.943   3.637  14.641  0.00  0.00    +0.000 C 
BRANCH  20  31
ATOM     30  C   UNL     1       1.955   5.528  20.504  0.00  0.00    +0.000 C 
ATOM     31  O   UNL     1       2.688   4.319  20.331  0.00  0.00    +0.000 OA
ENDBRANCH  20  31
ENDBRANCH  18  26
ENDBRANCH   1  18
TORSDOF 5
ENDMDL
MODEL 5
REMARK VINA RESULT:      -8.4      2.235      3.973
REMARK  Name = 
REMARK  9 active torsions:
REMARK  status: ('A' for Active; 'I' for Inactive)
REMARK    1  A    between atoms: C_1  and  O_2
REMARK    2  A    between atoms: O_2  and  C_3
REMARK    3  A    between atoms: C_9  and  C_10
REMARK    4  A    between atoms: C_10  and  C_12
REMARK    5  A    between atoms: C_14  and  C_15
REMARK    6  A    between atoms: N_17  and  C_18
REMARK    7  A    between atoms: C_22  and  O_23
REMARK    8  A    between atoms: O_23  and  C_24
REMARK    9  A    between atoms: N_30  and  C_31
REMARK                            x       y       z     vdW  Elec       q    Type
REMARK                         _______ _______ _______ _____ _____    ______ ____
ROOT
ATOM      1  C   UNL     1       1.152   9.563  19.223  0.00  0.00    +0.000 A 
ATOM      2  N   UNL     1       1.813   8.947  18.262  0.00  0.00    +0.000 NA
ATOM      3  C   UNL     1       2.248   7.805  18.880  0.00  0.00    +0.000 A 
ATOM      4  N   UNL     1       1.878   7.691  20.164  0.00  0.00    +0.000 NA
ATOM      5  O   UNL     1       1.173   8.872  20.404  0.00  0.00    +0.000 OA
ENDROOT
BRANCH   3   6
ATOM      6  C   UNL     1       3.060   6.812  18.175  0.00  0.00    +0.000 A 
ATOM      7  C   UNL     1       4.072   7.081  17.275  0.00  0.00    +0.000 A 
ATOM      8  N   UNL     1       4.560   5.889  16.816  0.00  0.00    +0.000 N 
ATOM      9  C   UNL     1       5.635   5.752  15.857  0.00  0.00    +0.000 C 
ATOM     10  C   UNL     1       3.878   4.839  17.392  0.00  0.00    +0.000 A 
ATOM     11  C   UNL     1       4.009   3.454  17.209  0.00  0.00    +0.000 A 
ATOM     12  C   UNL     1       3.176   2.604  17.943  0.00  0.00    +0.000 A 
ATOM     13  C   UNL     1       2.241   3.113  18.841  0.00  0.00    +0.000 A 
ATOM     14  C   UNL     1       2.118   4.500  19.004  0.00  0.00    +0.000 A 
ATOM     15  C   UNL     1       2.938   5.389  18.272  0.00  0.00    +0.000 A 
BRANCH  13  16
ATOM     16  O   UNL     1       1.390   2.372  19.616  0.00  0.00    +0.000 OA
ATOM     17  C   UNL     1       1.223   2.789  20.966  0.00  0.00    +0.000 C 
ENDBRANCH  13  16
ENDBRANCH   3   6
BRANCH   1  18
ATOM     18  C   UNL     1       0.444  10.829  19.187  0.00  0.00    +0.000 C 
ATOM     19  O   UNL     1       0.881  11.844  19.728  0.00  0.00    +0.000 OA
BRANCH  18  26
ATOM     20  C   UNL     1      -3.714  12.711  20.324  0.00  0.00    +0.000 A 
ATOM     21  C   UNL     1      -4.707  12.397  19.401  0.00  0.00    +0.000 A 
ATOM     22  C   UNL     1      -4.421  11.621  18.275  0.00  0.00    +0.000 A 
ATOM     23  C   UNL     1      -3.106  11.162  18.099  0.00  0.00    +0.000 A 
ATOM     24  C   UNL     1      -2.078  11.473  18.995  0.00  0.00    +0.000 A 
ATOM     25  C   UNL     1      -2.398  12.275  20.116  0.00  0.00    +0.000 A 
ATOM     26  C   UNL     1      -0.872  10.831  18.523  0.00  0.00    +0.000 A 
ATOM     27  C   UNL     1      -1.230  10.172  17.356  0.00  0.00    +0.000 A 
ATOM     28  N   UNL     1      -2.559  10.378  17.113  0.00  0.00    +0.000 N 
ATOM     29  C   UNL     1      -3.290   9.804  16.006  0.00  0.00    +0.000 C 
BRANCH  20  31
ATOM     30  C   UNL     1      -5.198  13.361  22.046  0.00  0.00    +0.000 C 
ATOM     31  O   UNL     1      -3.909  13.467  21.451  0.00  0.00    +0.000 OA
ENDBRANCH  20  31
ENDBRANCH  18  26
ENDBRANCH   1  18
TORSDOF 5
ENDMDL
MODEL 6
REMARK VINA RESULT:      -8.4      1.497      1.870
REMARK  Name = 
REMARK  9 active torsions:
REMARK  status: ('A' for Active; 'I' for Inactive)
REMARK    1  A    between atoms: C_1  and  O_2
REMARK    2  A    between atoms: O_2  and  C_3
REMARK    3  A    between atoms: C_9  and  C_10
REMARK    4  A    between atoms: C_10  and  C_12
REMARK    5  A    between atoms: C_14  and  C_15
REMARK    6  A    between atoms: N_17  and  C_18
REMARK    7  A    between atoms: C_22  and  O_23
REMARK    8  A    between atoms: O_23  and  C_24
REMARK    9  A    between atoms: N_30  and  C_31
REMARK                            x       y       z     vdW  Elec       q    Type
REMARK                         _______ _______ _______ _____ _____    ______ ____
ROOT
ATOM      1  C   UNL     1       1.427  10.247  18.762  0.00  0.00    +0.000 A 
ATOM      2  N   UNL     1       1.544   9.182  19.531  0.00  0.00    +0.000 NA
ATOM      3  C   UNL     1       2.085   8.255  18.680  0.00  0.00    +0.000 A 
ATOM      4  N   UNL     1       2.311   8.703  17.437  0.00  0.00    +0.000 NA
ATOM      5  O   UNL     1       1.848  10.020  17.480  0.00  0.00    +0.000 OA
ENDROOT
BRANCH   3   6
ATOM      6  C   UNL     1       2.372   6.887  19.118  0.00  0.00    +0.000 A 
ATOM      7  C   UNL     1       1.883   6.279  20.257  0.00  0.00    +0.000 A 
ATOM      8  N   UNL     1       2.407   5.018  20.324  0.00  0.00    +0.000 N 
ATOM      9  C   UNL     1       2.130   4.064  21.374  0.00  0.00    +0.000 C 
ATOM     10  C   UNL     1       3.243   4.790  19.251  0.00  0.00    +0.000 A 
ATOM     11  C   UNL     1       4.013   3.666  18.916  0.00  0.00    +0.000 A 
ATOM     12  C   UNL     1       4.776   3.707  17.744  0.00  0.00    +0.000 A 
ATOM     13  C   UNL     1       4.770   4.831  16.922  0.00  0.00    +0.000 A 
ATOM     14  C   UNL     1       4.001   5.948  17.278  0.00  0.00    +0.000 A 
ATOM     15  C   UNL     1       3.224   5.945  18.459  0.00  0.00    +0.000 A 
BRANCH  13  16
ATOM     16  O   UNL     1       5.466   4.970  15.751  0.00  0.00    +0.000 OA
ATOM     17  C   UNL     1       6.780   4.424  15.717  0.00  0.00    +0.000 C 
ENDBRANCH  13  16
ENDBRANCH   3   6
BRANCH   1  18
ATOM     18  C   UNL     1       0.923  11.567  19.090  0.00  0.00    +0.000 C 
ATOM     19  O   UNL     1       1.666  12.533  19.256  0.00  0.00    +0.000 OA
BRANCH  18  26
ATOM     20  C   UNL     1      -2.773  10.494  16.386  0.00  0.00    +0.000 A 
ATOM     21  C   UNL     1      -3.982  10.845  16.979  0.00  0.00    +0.000 A 
ATOM     22  C   UNL     1      -4.016  11.430  18.248  0.00  0.00    +0.000 A 
ATOM     23  C   UNL     1      -2.799  11.656  18.909  0.00  0.00    +0.000 A 
ATOM     24  C   UNL     1      -1.566  11.300  18.354  0.00  0.00    +0.000 A 
ATOM     25  C   UNL     1      -1.568  10.695  17.074  0.00  0.00    +0.000 A 
ATOM     26  C   UNL     1      -0.533  11.689  19.286  0.00  0.00    +0.000 A 
ATOM     27  C   UNL     1      -1.195  12.252  20.366  0.00  0.00    +0.000 A 
ATOM     28  N   UNL     1      -2.541  12.225  20.132  0.00  0.00    +0.000 N 
ATOM     29  C   UNL     1      -3.541  12.770  21.023  0.00  0.00    +0.000 C 
BRANCH  20  31
ATOM     30  C   UNL     1      -3.753  10.109  14.269  0.00  0.00    +0.000 C 
ATOM     31  O   UNL     1      -2.651   9.915  15.149  0.00  0.00    +0.000 OA
ENDBRANCH  20  31
ENDBRANCH  18  26
ENDBRANCH   1  18
TORSDOF 5
ENDMDL
MODEL 7
REMARK VINA RESULT:      -8.3      1.421      1.598
REMARK  Name = 
REMARK  9 active torsions:
REMARK  status: ('A' for Active; 'I' for Inactive)
REMARK    1  A    between atoms: C_1  and  O_2
REMARK    2  A    between atoms: O_2  and  C_3
REMARK    3  A    between atoms: C_9  and  C_10
REMARK    4  A    between atoms: C_10  and  C_12
REMARK    5  A    between atoms: C_14  and  C_15
REMARK    6  A    between atoms: N_17  and  C_18
REMARK    7  A    between atoms: C_22  and  O_23
REMARK    8  A    between atoms: O_23  and  C_24
REMARK    9  A    between atoms: N_30  and  C_31
REMARK                            x       y       z     vdW  Elec       q    Type
REMARK                         _______ _______ _______ _____ _____    ______ ____
ROOT
ATOM      1  C   UNL     1       1.157   9.268  19.641  0.00  0.00    +0.000 A 
ATOM      2  N   UNL     1       1.819   8.221  19.188  0.00  0.00    +0.000 NA
ATOM      3  C   UNL     1       1.712   7.329  20.222  0.00  0.00    +0.000 A 
ATOM      4  N   UNL     1       1.012   7.776  21.274  0.00  0.00    +0.000 NA
ATOM      5  O   UNL     1       0.665   9.076  20.903  0.00  0.00    +0.000 OA
ENDROOT
BRANCH   3   6
ATOM      6  C   UNL     1       2.332   6.004  20.159  0.00  0.00    +0.000 A 
ATOM      7  C   UNL     1       1.992   4.910  20.930  0.00  0.00    +0.000 A 
ATOM      8  N   UNL     1       2.822   3.877  20.592  0.00  0.00    +0.000 N 
ATOM      9  C   UNL     1       2.777   2.557  21.180  0.00  0.00    +0.000 C 
ATOM     10  C   UNL     1       3.712   4.278  19.618  0.00  0.00    +0.000 A 
ATOM     11  C   UNL     1       4.753   3.579  18.988  0.00  0.00    +0.000 A 
ATOM     12  C   UNL     1       5.504   4.241  18.012  0.00  0.00    +0.000 A 
ATOM     13  C   UNL     1       5.226   5.561  17.664  0.00  0.00    +0.000 A 
ATOM     14  C   UNL     1       4.187   6.246  18.310  0.00  0.00    +0.000 A 
ATOM     15  C   UNL     1       3.413   5.610  19.307  0.00  0.00    +0.000 A 
BRANCH  13  16
ATOM     16  O   UNL     1       5.888   6.294  16.716  0.00  0.00    +0.000 OA
ATOM     17  C   UNL     1       5.225   6.483  15.471  0.00  0.00    +0.000 C 
ENDBRANCH  13  16
ENDBRANCH   3   6
BRANCH   1  18
ATOM     18  C   UNL     1       0.904  10.544  18.998  0.00  0.00    +0.000 C 
ATOM     19  O   UNL     1       1.785  11.174  18.415  0.00  0.00    +0.000 OA
BRANCH  18  26
ATOM     20  C   UNL     1      -2.964  10.202  16.343  0.00  0.00    +0.000 A 
ATOM     21  C   UNL     1      -4.021  10.953  16.850  0.00  0.00    +0.000 A 
ATOM     22  C   UNL     1      -3.880  11.685  18.031  0.00  0.00    +0.000 A 
ATOM     23  C   UNL     1      -2.644  11.647  18.694  0.00  0.00    +0.000 A 
ATOM     24  C   UNL     1      -1.565  10.890  18.227  0.00  0.00    +0.000 A 
ATOM     25  C   UNL     1      -1.746  10.146  17.036  0.00  0.00    +0.000 A 
ATOM     26  C   UNL     1      -0.457  11.093  19.132  0.00  0.00    +0.000 A 
ATOM     27  C   UNL     1      -0.927  11.956  20.111  0.00  0.00    +0.000 A 
ATOM     28  N   UNL     1      -2.228  12.277  19.842  0.00  0.00    +0.000 N 
ATOM     29  C   UNL     1      -3.027  13.192  20.624  0.00  0.00    +0.000 C 
BRANCH  20  31
ATOM     30  C   UNL     1      -3.716  10.051  14.107  0.00  0.00    +0.000 C 
ATOM     31  O   UNL     1      -3.018   9.455  15.195  0.00  0.00    +0.000 OA
ENDBRANCH  20  31
ENDBRANCH  18  26
ENDBRANCH   1  18
TORSDOF 5
ENDMDL
MODEL 8
REMARK VINA RESULT:      -8.3      1.746      3.656
REMARK  Name = 
REMARK  9 active torsions:
REMARK  status: ('A' for Active; 'I' for Inactive)
REMARK    1  A    between atoms: C_1  and  O_2
REMARK    2  A    between atoms: O_2  and  C_3
REMARK    3  A    between atoms: C_9  and  C_10
REMARK    4  A    between atoms: C_10  and  C_12
REMARK    5  A    between atoms: C_14  and  C_15
REMARK    6  A    between atoms: N_17  and  C_18
REMARK    7  A    between atoms: C_22  and  O_23
REMARK    8  A    between atoms: O_23  and  C_24
REMARK    9  A    between atoms: N_30  and  C_31
REMARK                            x       y       z     vdW  Elec       q    Type
REMARK                         _______ _______ _______ _____ _____    ______ ____
ROOT
ATOM      1  C   UNL     1       1.493   9.108  19.593  0.00  0.00    +0.000 A 
ATOM      2  N   UNL     1       1.845   7.838  19.636  0.00  0.00    +0.000 NA
ATOM      3  C   UNL     1       2.356   7.625  18.383  0.00  0.00    +0.000 A 
ATOM      4  N   UNL     1       2.341   8.702  17.584  0.00  0.00    +0.000 NA
ATOM      5  O   UNL     1       1.742   9.683  18.376  0.00  0.00    +0.000 OA
ENDROOT
BRANCH   3   6
ATOM      6  C   UNL     1       2.860   6.313  17.973  0.00  0.00    +0.000 A 
ATOM      7  C   UNL     1       2.152   5.128  17.993  0.00  0.00    +0.000 A 
ATOM      8  N   UNL     1       2.982   4.129  17.565  0.00  0.00    +0.000 N 
ATOM      9  C   UNL     1       2.606   2.738  17.444  0.00  0.00    +0.000 C 
ATOM     10  C   UNL     1       4.230   4.637  17.273  0.00  0.00    +0.000 A 
ATOM     11  C   UNL     1       5.398   3.996  16.831  0.00  0.00    +0.000 A 
ATOM     12  C   UNL     1       6.538   4.772  16.604  0.00  0.00    +0.000 A 
ATOM     13  C   UNL     1       6.521   6.150  16.801  0.00  0.00    +0.000 A 
ATOM     14  C   UNL     1       5.348   6.773  17.251  0.00  0.00    +0.000 A 
ATOM     15  C   UNL     1       4.178   6.018  17.500  0.00  0.00    +0.000 A 
BRANCH  13  16
ATOM     16  O   UNL     1       7.573   7.002  16.595  0.00  0.00    +0.000 OA
ATOM     17  C   UNL     1       7.821   7.972  17.605  0.00  0.00    +0.000 C 
ENDBRANCH  13  16
ENDBRANCH   3   6
BRANCH   1  18
ATOM     18  C   UNL     1       0.896   9.933  20.626  0.00  0.00    +0.000 C 
ATOM     19  O   UNL     1       1.307   9.936  21.786  0.00  0.00    +0.000 OA
BRANCH  18  26
ATOM     20  C   UNL     1      -1.349  13.535  22.654  0.00  0.00    +0.000 A 
ATOM     21  C   UNL     1      -2.472  13.930  21.934  0.00  0.00    +0.000 A 
ATOM     22  C   UNL     1      -2.820  13.294  20.739  0.00  0.00    +0.000 A 
ATOM     23  C   UNL     1      -2.009  12.243  20.285  0.00  0.00    +0.000 A 
ATOM     24  C   UNL     1      -0.863  11.830  20.970  0.00  0.00    +0.000 A 
ATOM     25  C   UNL     1      -0.530  12.506  22.168  0.00  0.00    +0.000 A 
ATOM     26  C   UNL     1      -0.285  10.725  20.239  0.00  0.00    +0.000 A 
ATOM     27  C   UNL     1      -1.107  10.533  19.139  0.00  0.00    +0.000 A 
ATOM     28  N   UNL     1      -2.127  11.443  19.175  0.00  0.00    +0.000 N 
ATOM     29  C   UNL     1      -3.202  11.509  18.211  0.00  0.00    +0.000 C 
BRANCH  20  31
ATOM     30  C   UNL     1      -1.796  15.108  24.361  0.00  0.00    +0.000 C 
ATOM     31  O   UNL     1      -0.936  14.105  23.830  0.00  0.00    +0.000 OA
ENDBRANCH  20  31
ENDBRANCH  18  26
ENDBRANCH   1  18
TORSDOF 5
ENDMDL
MODEL 9
REMARK VINA RESULT:      -8.3      1.456      3.222
REMARK  Name = 
REMARK  9 active torsions:
REMARK  status: ('A' for Active; 'I' for Inactive)
REMARK    1  A    between atoms: C_1  and  O_2
REMARK    2  A    between atoms: O_2  and  C_3
REMARK    3  A    between atoms: C_9  and  C_10
REMARK    4  A    between atoms: C_10  and  C_12
REMARK    5  A    between atoms: C_14  and  C_15
REMARK    6  A    between atoms: N_17  and  C_18
REMARK    7  A    between atoms: C_22  and  O_23
REMARK    8  A    between atoms: O_23  and  C_24
REMARK    9  A    between atoms: N_30  and  C_31
REMARK                            x       y       z     vdW  Elec       q    Type
REMARK                         _______ _______ _______ _____ _____    ______ ____
ROOT
ATOM      1  C   UNL     1       1.689   9.354  18.787  0.00  0.00    +0.000 A 
ATOM      2  N   UNL     1       2.138   8.452  17.936  0.00  0.00    +0.000 NA
ATOM      3  C   UNL     1       2.279   7.341  18.723  0.00  0.00    +0.000 A 
ATOM      4  N   UNL     1       1.930   7.517  20.006  0.00  0.00    +0.000 NA
ATOM      5  O   UNL     1       1.564   8.864  20.058  0.00  0.00    +0.000 OA
ENDROOT
BRANCH   3   6
ATOM      6  C   UNL     1       2.784   6.077  18.183  0.00  0.00    +0.000 A 
ATOM      7  C   UNL     1       2.107   4.874  18.160  0.00  0.00    +0.000 A 
ATOM      8  N   UNL     1       2.929   3.934  17.604  0.00  0.00    +0.000 N 
ATOM      9  C   UNL     1       2.576   2.546  17.403  0.00  0.00    +0.000 C 
ATOM     10  C   UNL     1       4.142   4.496  17.270  0.00  0.00    +0.000 A 
ATOM     11  C   UNL     1       5.291   3.922  16.705  0.00  0.00    +0.000 A 
ATOM     12  C   UNL     1       6.396   4.745  16.463  0.00  0.00    +0.000 A 
ATOM     13  C   UNL     1       6.360   6.104  16.765  0.00  0.00    +0.000 A 
ATOM     14  C   UNL     1       5.206   6.659  17.336  0.00  0.00    +0.000 A 
ATOM     15  C   UNL     1       4.074   5.855  17.603  0.00  0.00    +0.000 A 
BRANCH  13  16
ATOM     16  O   UNL     1       7.376   6.997  16.555  0.00  0.00    +0.000 OA
ATOM     17  C   UNL     1       7.570   7.995  17.551  0.00  0.00    +0.000 C 
ENDBRANCH  13  16
ENDBRANCH   3   6
BRANCH   1  18
ATOM     18  C   UNL     1       1.333  10.741  18.554  0.00  0.00    +0.000 C 
ATOM     19  O   UNL     1       2.170  11.598  18.274  0.00  0.00    +0.000 OA
BRANCH  18  26
ATOM     20  C   UNL     1      -0.939  13.275  21.801  0.00  0.00    +0.000 A 
ATOM     21  C   UNL     1      -2.315  13.294  21.590  0.00  0.00    +0.000 A 
ATOM     22  C   UNL     1      -2.883  12.627  20.502  0.00  0.00    +0.000 A 
ATOM     23  C   UNL     1      -2.032  11.935  19.627  0.00  0.00    +0.000 A 
ATOM     24  C   UNL     1      -0.644  11.909  19.795  0.00  0.00    +0.000 A 
ATOM     25  C   UNL     1      -0.099  12.608  20.898  0.00  0.00    +0.000 A 
ATOM     26  C   UNL     1      -0.085  11.099  18.737  0.00  0.00    +0.000 A 
ATOM     27  C   UNL     1      -1.166  10.684  17.972  0.00  0.00    +0.000 A 
ATOM     28  N   UNL     1      -2.317  11.189  18.510  0.00  0.00    +0.000 N 
ATOM     29  C   UNL     1      -3.645  10.925  18.003  0.00  0.00    +0.000 C 
BRANCH  20  31
ATOM     30  C   UNL     1      -1.150  14.569  23.769  0.00  0.00    +0.000 C 
ATOM     31  O   UNL     1      -0.301  13.903  22.839  0.00  0.00    +0.000 OA
ENDBRANCH  20  31
ENDBRANCH  18  26
ENDBRANCH   1  18
TORSDOF 5
ENDMDL
