MODEL 1
REMARK VINA RESULT:      -7.3      0.000      0.000
REMARK  Name = 
REMARK  4 active torsions:
REMARK  status: ('A' for Active; 'I' for Inactive)
REMARK    1  A    between atoms: C_2  and  O_3
REMARK    2  A    between atoms: C_2  and  C_4
REMARK    3  A    between atoms: N_6  and  C_7
REMARK    4  A    between atoms: C_20  and  C_21
REMARK                            x       y       z     vdW  Elec       q    Type
REMARK                         _______ _______ _______ _____ _____    ______ ____
ROOT
ATOM      1  C   UNL     1      -5.533  13.056  19.208  0.00  0.00    +0.000 A 
ATOM      2  C   UNL     1      -4.929  12.083  18.517  0.00  0.00    +0.000 A 
ATOM      3  N   UNL     1      -3.632  11.619  18.724  0.00  0.00    +0.000 N 
ATOM      4  C   UNL     1      -2.876  12.011  19.878  0.00  0.00    +0.000 A 
ATOM      5  C   UNL     1      -3.436  12.998  20.655  0.00  0.00    +0.000 A 
ATOM      6  C   UNL     1      -4.736  13.646  20.283  0.00  0.00    +0.000 A 
ATOM      7  O   UNL     1      -5.164  14.644  20.866  0.00  0.00    +0.000 OA
ATOM      8  C   UNL     1      -2.826  13.470  21.884  0.00  0.00    +0.000 C 
ATOM      9  C   UNL     1      -1.674  12.974  22.322  0.00  0.00    +0.000 C 
ATOM     10  F   UNL     1      -1.094  13.386  23.463  0.00  0.00    +0.000 F 
ATOM     11  C   UNL     1      -0.997  11.930  21.507  0.00  0.00    +0.000 C 
ATOM     12  N   UNL     1       0.146  11.536  22.000  0.00  0.00    +0.000 NA
ATOM     13  N   UNL     1       0.912  10.593  21.348  0.00  0.00    +0.000 NA
ATOM     14  C   UNL     1       0.500  10.102  20.222  0.00  0.00    +0.000 C 
ATOM     15  C   UNL     1      -0.816  10.490  19.574  0.00  0.00    +0.000 C 
ATOM     16  N   UNL     1      -1.600  11.476  20.321  0.00  0.00    +0.000 N 
ENDROOT
BRANCH  14  17
ATOM     17  C   UNL     1       1.388   9.090  19.537  0.00  0.00    +0.000 A 
ATOM     18  C   UNL     1       1.716   7.899  20.211  0.00  0.00    +0.000 A 
ATOM     19  C   UNL     1       2.501   6.916  19.597  0.00  0.00    +0.000 A 
ATOM     20  C   UNL     1       2.972   7.120  18.305  0.00  0.00    +0.000 A 
ATOM     21 BR   UNL     1       3.994   5.780  17.450  0.00  0.00    +0.000 Br
ATOM     22  C   UNL     1       2.682   8.305  17.633  0.00  0.00    +0.000 A 
ATOM     23  C   UNL     1       1.892   9.288  18.245  0.00  0.00    +0.000 A 
ENDBRANCH  14  17
BRANCH   3  24
ATOM     24  C   UNL     1      -3.183  10.560  17.789  0.00  0.00    +0.000 C 
ATOM     25  C   UNL     1      -3.735  10.387  16.385  0.00  0.00    +0.000 C 
ATOM     26  C   UNL     1      -2.348  10.893  16.574  0.00  0.00    +0.000 C 
ENDBRANCH   3  24
BRANCH   1  28
ATOM     27  O   UNL     1      -7.285  13.608  17.704  0.00  0.00    +0.000 OA
ATOM     28  C   UNL     1      -6.896  13.494  18.859  0.00  0.00    +0.000 C 
BRANCH  28  29
ATOM     29  O   UNL     1      -7.685  13.786  19.916  0.00  0.00    +0.000 OA
ATOM     30  H   UNL     1      -7.318  13.512  20.793  0.00  0.00    +0.000 HD
ENDBRANCH  28  29
ENDBRANCH   1  28
TORSDOF 4
ENDMDL
MODEL 2
REMARK VINA RESULT:      -7.2      0.647      1.131
REMARK  Name = 
REMARK  4 active torsions:
REMARK  status: ('A' for Active; 'I' for Inactive)
REMARK    1  A    between atoms: C_2  and  O_3
REMARK    2  A    between atoms: C_2  and  C_4
REMARK    3  A    between atoms: N_6  and  C_7
REMARK    4  A    between atoms: C_20  and  C_21
REMARK                            x       y       z     vdW  Elec       q    Type
REMARK                         _______ _______ _______ _____ _____    ______ ____
ROOT
ATOM      1  C   UNL     1      -5.139  12.886  18.934  0.00  0.00    +0.000 A 
ATOM      2  C   UNL     1      -4.524  11.936  18.221  0.00  0.00    +0.000 A 
ATOM      3  N   UNL     1      -3.262  11.406  18.482  0.00  0.00    +0.000 N 
ATOM      4  C   UNL     1      -2.576  11.690  19.709  0.00  0.00    +0.000 A 
ATOM      5  C   UNL     1      -3.152  12.646  20.512  0.00  0.00    +0.000 A 
ATOM      6  C   UNL     1      -4.399  13.369  20.099  0.00  0.00    +0.000 A 
ATOM      7  O   UNL     1      -4.829  14.344  20.719  0.00  0.00    +0.000 OA
ATOM      8  C   UNL     1      -2.613  13.010  21.809  0.00  0.00    +0.000 C 
ATOM      9  C   UNL     1      -1.514  12.439  22.289  0.00  0.00    +0.000 C 
ATOM     10  F   UNL     1      -1.001  12.751  23.492  0.00  0.00    +0.000 F 
ATOM     11  C   UNL     1      -0.820  11.424  21.453  0.00  0.00    +0.000 C 
ATOM     12  N   UNL     1       0.270  10.952  21.993  0.00  0.00    +0.000 NA
ATOM     13  N   UNL     1       1.045  10.023  21.332  0.00  0.00    +0.000 NA
ATOM     14  C   UNL     1       0.696   9.624  20.150  0.00  0.00    +0.000 C 
ATOM     15  C   UNL     1      -0.556  10.108  19.441  0.00  0.00    +0.000 C 
ATOM     16  N   UNL     1      -1.354  11.074  20.200  0.00  0.00    +0.000 N 
ENDROOT
BRANCH  14  17
ATOM     17  C   UNL     1       1.591   8.624  19.458  0.00  0.00    +0.000 A 
ATOM     18  C   UNL     1       2.058   8.904  18.161  0.00  0.00    +0.000 A 
ATOM     19  C   UNL     1       2.922   8.025  17.499  0.00  0.00    +0.000 A 
ATOM     20  C   UNL     1       3.322   6.851  18.128  0.00  0.00    +0.000 A 
ATOM     21 BR   UNL     1       4.526   5.679  17.262  0.00  0.00    +0.000 Br
ATOM     22  C   UNL     1       2.847   6.541  19.400  0.00  0.00    +0.000 A 
ATOM     23  C   UNL     1       1.985   7.425  20.065  0.00  0.00    +0.000 A 
ENDBRANCH  14  17
BRANCH   3  24
ATOM     24  C   UNL     1      -2.788  10.394  17.510  0.00  0.00    +0.000 C 
ATOM     25  C   UNL     1      -3.632   9.867  16.363  0.00  0.00    +0.000 C 
ATOM     26  C   UNL     1      -2.483  10.768  16.078  0.00  0.00    +0.000 C 
ENDBRANCH   3  24
BRANCH   1  28
ATOM     27  O   UNL     1      -7.453  12.694  18.440  0.00  0.00    +0.000 OA
ATOM     28  C   UNL     1      -6.457  13.401  18.525  0.00  0.00    +0.000 C 
BRANCH  28  29
ATOM     29  O   UNL     1      -6.482  14.717  18.224  0.00  0.00    +0.000 OA
ATOM     30  H   UNL     1      -7.199  14.984  17.597  0.00  0.00    +0.000 HD
ENDBRANCH  28  29
ENDBRANCH   1  28
TORSDOF 4
ENDMDL
MODEL 3
REMARK VINA RESULT:      -7.1      0.576      1.063
REMARK  Name = 
REMARK  4 active torsions:
REMARK  status: ('A' for Active; 'I' for Inactive)
REMARK    1  A    between atoms: C_2  and  O_3
REMARK    2  A    between atoms: C_2  and  C_4
REMARK    3  A    between atoms: N_6  and  C_7
REMARK    4  A    between atoms: C_20  and  C_21
REMARK                            x       y       z     vdW  Elec       q    Type
REMARK                         _______ _______ _______ _____ _____    ______ ____
ROOT
ATOM      1  C   UNL     1      -5.736  13.555  19.599  0.00  0.00    +0.000 A 
ATOM      2  C   UNL     1      -5.182  12.557  18.902  0.00  0.00    +0.000 A 
ATOM      3  N   UNL     1      -3.897  12.051  19.080  0.00  0.00    +0.000 N 
ATOM      4  C   UNL     1      -3.099  12.427  20.211  0.00  0.00    +0.000 A 
ATOM      5  C   UNL     1      -3.606  13.439  20.993  0.00  0.00    +0.000 A 
ATOM      6  C   UNL     1      -4.893  14.126  20.649  0.00  0.00    +0.000 A 
ATOM      7  O   UNL     1      -5.272  15.143  21.233  0.00  0.00    +0.000 OA
ATOM      8  C   UNL     1      -2.949  13.899  22.202  0.00  0.00    +0.000 C 
ATOM      9  C   UNL     1      -1.804  13.368  22.615  0.00  0.00    +0.000 C 
ATOM     10  F   UNL     1      -1.182  13.770  23.738  0.00  0.00    +0.000 F 
ATOM     11  C   UNL     1      -1.183  12.296  21.794  0.00  0.00    +0.000 C 
ATOM     12  N   UNL     1      -0.042  11.868  22.261  0.00  0.00    +0.000 NA
ATOM     13  N   UNL     1       0.676  10.895  21.598  0.00  0.00    +0.000 NA
ATOM     14  C   UNL     1       0.219  10.408  20.488  0.00  0.00    +0.000 C 
ATOM     15  C   UNL     1      -1.099  10.835  19.869  0.00  0.00    +0.000 C 
ATOM     16  N   UNL     1      -1.831  11.853  20.627  0.00  0.00    +0.000 N 
ENDROOT
BRANCH  14  17
ATOM     17  C   UNL     1       1.055   9.362  19.789  0.00  0.00    +0.000 A 
ATOM     18  C   UNL     1       1.412   9.557  18.442  0.00  0.00    +0.000 A 
ATOM     19  C   UNL     1       2.218   8.633  17.768  0.00  0.00    +0.000 A 
ATOM     20  C   UNL     1       2.669   7.500  18.435  0.00  0.00    +0.000 A 
ATOM     21 BR   UNL     1       3.797   6.269  17.549  0.00  0.00    +0.000 Br
ATOM     22  C   UNL     1       2.302   7.273  19.759  0.00  0.00    +0.000 A 
ATOM     23  C   UNL     1       1.497   8.201  20.436  0.00  0.00    +0.000 A 
ENDBRANCH  14  17
BRANCH   3  24
ATOM     24  C   UNL     1      -3.507  10.970  18.144  0.00  0.00    +0.000 C 
ATOM     25  C   UNL     1      -4.028  10.860  16.722  0.00  0.00    +0.000 C 
ATOM     26  C   UNL     1      -2.611  11.248  16.960  0.00  0.00    +0.000 C 
ENDBRANCH   3  24
BRANCH   1  28
ATOM     27  O   UNL     1      -7.473  14.248  18.137  0.00  0.00    +0.000 OA
ATOM     28  C   UNL     1      -7.092  14.035  19.281  0.00  0.00    +0.000 C 
BRANCH  28  29
ATOM     29  O   UNL     1      -7.883  14.249  20.354  0.00  0.00    +0.000 OA
ATOM     30  H   UNL     1      -8.525  14.994  20.252  0.00  0.00    +0.000 HD
ENDBRANCH  28  29
ENDBRANCH   1  28
TORSDOF 4
ENDMDL
MODEL 4
REMARK VINA RESULT:      -6.9      4.007      4.711
REMARK  Name = 
REMARK  4 active torsions:
REMARK  status: ('A' for Active; 'I' for Inactive)
REMARK    1  A    between atoms: C_2  and  O_3
REMARK    2  A    between atoms: C_2  and  C_4
REMARK    3  A    between atoms: N_6  and  C_7
REMARK    4  A    between atoms: C_20  and  C_21
REMARK                            x       y       z     vdW  Elec       q    Type
REMARK                         _______ _______ _______ _____ _____    ______ ____
ROOT
ATOM      1  C   UNL     1       0.597  15.870  21.271  0.00  0.00    +0.000 A 
ATOM      2  C   UNL     1       1.331  15.124  20.439  0.00  0.00    +0.000 A 
ATOM      3  N   UNL     1       1.422  13.734  20.454  0.00  0.00    +0.000 N 
ATOM      4  C   UNL     1       0.537  12.939  21.254  0.00  0.00    +0.000 A 
ATOM      5  C   UNL     1      -0.268  13.631  22.128  0.00  0.00    +0.000 A 
ATOM      6  C   UNL     1      -0.185  15.123  22.255  0.00  0.00    +0.000 A 
ATOM      7  O   UNL     1      -0.768  15.740  23.149  0.00  0.00    +0.000 OA
ATOM      8  C   UNL     1      -1.255  12.981  22.969  0.00  0.00    +0.000 C 
ATOM      9  C   UNL     1      -1.426  11.664  22.946  0.00  0.00    +0.000 C 
ATOM     10  F   UNL     1      -2.342  11.039  23.707  0.00  0.00    +0.000 F 
ATOM     11  C   UNL     1      -0.560  10.852  22.051  0.00  0.00    +0.000 C 
ATOM     12  N   UNL     1      -0.778   9.568  22.130  0.00  0.00    +0.000 NA
ATOM     13  N   UNL     1      -0.037   8.675  21.384  0.00  0.00    +0.000 NA
ATOM     14  C   UNL     1       0.900   9.116  20.605  0.00  0.00    +0.000 C 
ATOM     15  C   UNL     1       1.223  10.590  20.439  0.00  0.00    +0.000 C 
ATOM     16  N   UNL     1       0.389  11.493  21.236  0.00  0.00    +0.000 N 
ENDROOT
BRANCH  14  17
ATOM     17  C   UNL     1       1.698   8.096  19.828  0.00  0.00    +0.000 A 
ATOM     18  C   UNL     1       1.995   6.858  20.427  0.00  0.00    +0.000 A 
ATOM     19  C   UNL     1       2.697   5.869  19.728  0.00  0.00    +0.000 A 
ATOM     20  C   UNL     1       3.115   6.113  18.425  0.00  0.00    +0.000 A 
ATOM     21 BR   UNL     1       4.022   4.768  17.456  0.00  0.00    +0.000 Br
ATOM     22  C   UNL     1       2.856   7.344  17.826  0.00  0.00    +0.000 A 
ATOM     23  C   UNL     1       2.149   8.333  18.524  0.00  0.00    +0.000 A 
ENDBRANCH  14  17
BRANCH   3  24
ATOM     24  C   UNL     1       2.345  13.150  19.451  0.00  0.00    +0.000 C 
ATOM     25  C   UNL     1       2.077  13.156  17.956  0.00  0.00    +0.000 C 
ATOM     26  C   UNL     1       3.143  14.031  18.517  0.00  0.00    +0.000 C 
ENDBRANCH   3  24
BRANCH   1  28
ATOM     27  O   UNL     1       0.363  17.955  20.160  0.00  0.00    +0.000 OA
ATOM     28  C   UNL     1       0.623  17.341  21.187  0.00  0.00    +0.000 C 
BRANCH  28  29
ATOM     29  O   UNL     1       0.982  17.968  22.328  0.00  0.00    +0.000 OA
ATOM     30  H   UNL     1       1.952  18.140  22.417  0.00  0.00    +0.000 HD
ENDBRANCH  28  29
ENDBRANCH   1  28
TORSDOF 4
ENDMDL
MODEL 5
REMARK VINA RESULT:      -6.9      4.014      4.832
REMARK  Name = 
REMARK  4 active torsions:
REMARK  status: ('A' for Active; 'I' for Inactive)
REMARK    1  A    between atoms: C_2  and  O_3
REMARK    2  A    between atoms: C_2  and  C_4
REMARK    3  A    between atoms: N_6  and  C_7
REMARK    4  A    between atoms: C_20  and  C_21
REMARK                            x       y       z     vdW  Elec       q    Type
REMARK                         _______ _______ _______ _____ _____    ______ ____
ROOT
ATOM      1  C   UNL     1       0.685  15.936  21.266  0.00  0.00    +0.000 A 
ATOM      2  C   UNL     1       1.416  15.182  20.438  0.00  0.00    +0.000 A 
ATOM      3  N   UNL     1       1.489  13.791  20.449  0.00  0.00    +0.000 N 
ATOM      4  C   UNL     1       0.587  13.005  21.240  0.00  0.00    +0.000 A 
ATOM      5  C   UNL     1      -0.216  13.706  22.109  0.00  0.00    +0.000 A 
ATOM      6  C   UNL     1      -0.114  15.196  22.242  0.00  0.00    +0.000 A 
ATOM      7  O   UNL     1      -0.697  15.818  23.133  0.00  0.00    +0.000 OA
ATOM      8  C   UNL     1      -1.218  13.066  22.941  0.00  0.00    +0.000 C 
ATOM      9  C   UNL     1      -1.407  11.752  22.913  0.00  0.00    +0.000 C 
ATOM     10  F   UNL     1      -2.336  11.136  23.665  0.00  0.00    +0.000 F 
ATOM     11  C   UNL     1      -0.544  10.931  22.022  0.00  0.00    +0.000 C 
ATOM     12  N   UNL     1      -0.779   9.649  22.095  0.00  0.00    +0.000 NA
ATOM     13  N   UNL     1      -0.044   8.749  21.353  0.00  0.00    +0.000 NA
ATOM     14  C   UNL     1       0.904   9.180  20.582  0.00  0.00    +0.000 C 
ATOM     15  C   UNL     1       1.248  10.650  20.423  0.00  0.00    +0.000 C 
ATOM     16  N   UNL     1       0.419  11.562  21.216  0.00  0.00    +0.000 N 
ENDROOT
BRANCH  14  17
ATOM     17  C   UNL     1       1.695   8.152  19.808  0.00  0.00    +0.000 A 
ATOM     18  C   UNL     1       2.106   8.450  18.496  0.00  0.00    +0.000 A 
ATOM     19  C   UNL     1       2.875   7.544  17.758  0.00  0.00    +0.000 A 
ATOM     20  C   UNL     1       3.234   6.326  18.324  0.00  0.00    +0.000 A 
ATOM     21 BR   UNL     1       4.311   5.113  17.354  0.00  0.00    +0.000 Br
ATOM     22  C   UNL     1       2.811   6.000  19.611  0.00  0.00    +0.000 A 
ATOM     23  C   UNL     1       2.044   6.910  20.352  0.00  0.00    +0.000 A 
ENDBRANCH  14  17
BRANCH   3  24
ATOM     24  C   UNL     1       2.411  13.198  19.452  0.00  0.00    +0.000 C 
ATOM     25  C   UNL     1       2.130  13.165  17.960  0.00  0.00    +0.000 C 
ATOM     26  C   UNL     1       3.187  14.069  18.490  0.00  0.00    +0.000 C 
ENDBRANCH   3  24
BRANCH   1  28
ATOM     27  O   UNL     1       1.779  18.039  21.146  0.00  0.00    +0.000 OA
ATOM     28  C   UNL     1       0.732  17.407  21.186  0.00  0.00    +0.000 C 
BRANCH  28  29
ATOM     29  O   UNL     1      -0.475  18.012  21.186  0.00  0.00    +0.000 OA
ATOM     30  H   UNL     1      -0.636  18.614  21.955  0.00  0.00    +0.000 HD
ENDBRANCH  28  29
ENDBRANCH   1  28
TORSDOF 4
ENDMDL
MODEL 6
REMARK VINA RESULT:      -6.9      3.878      4.990
REMARK  Name = 
REMARK  4 active torsions:
REMARK  status: ('A' for Active; 'I' for Inactive)
REMARK    1  A    between atoms: C_2  and  O_3
REMARK    2  A    between atoms: C_2  and  C_4
REMARK    3  A    between atoms: N_6  and  C_7
REMARK    4  A    between atoms: C_20  and  C_21
REMARK                            x       y       z     vdW  Elec       q    Type
REMARK                         _______ _______ _______ _____ _____    ______ ____
ROOT
ATOM      1  C   UNL     1      -0.900  13.494  22.359  0.00  0.00    +0.000 A 
ATOM      2  C   UNL     1      -0.790  12.190  22.634  0.00  0.00    +0.000 A 
ATOM      3  N   UNL     1      -0.284  11.214  21.779  0.00  0.00    +0.000 N 
ATOM      4  C   UNL     1       0.387  11.567  20.561  0.00  0.00    +0.000 A 
ATOM      5  C   UNL     1       0.336  12.896  20.212  0.00  0.00    +0.000 A 
ATOM      6  C   UNL     1      -0.413  13.897  21.040  0.00  0.00    +0.000 A 
ATOM      7  O   UNL     1      -0.615  15.050  20.655  0.00  0.00    +0.000 OA
ATOM      8  C   UNL     1       1.008  13.426  19.040  0.00  0.00    +0.000 C 
ATOM      9  C   UNL     1       1.707  12.641  18.227  0.00  0.00    +0.000 C 
ATOM     10  F   UNL     1       2.348  13.109  17.142  0.00  0.00    +0.000 F 
ATOM     11  C   UNL     1       1.769  11.186  18.527  0.00  0.00    +0.000 C 
ATOM     12  N   UNL     1       2.445  10.496  17.650  0.00  0.00    +0.000 NA
ATOM     13  N   UNL     1       2.572   9.128  17.769  0.00  0.00    +0.000 NA
ATOM     14  C   UNL     1       2.000   8.516  18.757  0.00  0.00    +0.000 C 
ATOM     15  C   UNL     1       1.201   9.231  19.831  0.00  0.00    +0.000 C 
ATOM     16  N   UNL     1       1.120  10.685  19.669  0.00  0.00    +0.000 N 
ENDROOT
BRANCH  14  17
ATOM     17  C   UNL     1       2.150   7.015  18.829  0.00  0.00    +0.000 A 
ATOM     18  C   UNL     1       1.931   6.363  20.057  0.00  0.00    +0.000 A 
ATOM     19  C   UNL     1       2.019   4.970  20.160  0.00  0.00    +0.000 A 
ATOM     20  C   UNL     1       2.334   4.217  19.035  0.00  0.00    +0.000 A 
ATOM     21 BR   UNL     1       2.410   2.332  19.151  0.00  0.00    +0.000 Br
ATOM     22  C   UNL     1       2.584   4.846  17.817  0.00  0.00    +0.000 A 
ATOM     23  C   UNL     1       2.491   6.241  17.713  0.00  0.00    +0.000 A 
ENDBRANCH  14  17
BRANCH   3  24
ATOM     24  C   UNL     1      -0.314   9.831  22.309  0.00  0.00    +0.000 C 
ATOM     25  C   UNL     1       0.898   9.128  22.896  0.00  0.00    +0.000 C 
ATOM     26  C   UNL     1      -0.209   9.560  23.792  0.00  0.00    +0.000 C 
ENDBRANCH   3  24
BRANCH   1  28
ATOM     27  O   UNL     1      -1.020  14.631  24.440  0.00  0.00    +0.000 OA
ATOM     28  C   UNL     1      -1.501  14.422  23.333  0.00  0.00    +0.000 C 
BRANCH  28  29
ATOM     29  O   UNL     1      -2.643  15.013  22.922  0.00  0.00    +0.000 OA
ATOM     30  H   UNL     1      -3.466  14.652  23.335  0.00  0.00    +0.000 HD
ENDBRANCH  28  29
ENDBRANCH   1  28
TORSDOF 4
ENDMDL
MODEL 7
REMARK VINA RESULT:      -6.8      1.677      2.604
REMARK  Name = 
REMARK  4 active torsions:
REMARK  status: ('A' for Active; 'I' for Inactive)
REMARK    1  A    between atoms: C_2  and  O_3
REMARK    2  A    between atoms: C_2  and  C_4
REMARK    3  A    between atoms: N_6  and  C_7
REMARK    4  A    between atoms: C_20  and  C_21
REMARK                            x       y       z     vdW  Elec       q    Type
REMARK                         _______ _______ _______ _____ _____    ______ ____
ROOT
ATOM      1  C   UNL     1      -3.402  12.808  20.272  0.00  0.00    +0.000 A 
ATOM      2  C   UNL     1      -2.843  12.197  19.223  0.00  0.00    +0.000 A 
ATOM      3  N   UNL     1      -1.730  11.361  19.262  0.00  0.00    +0.000 N 
ATOM      4  C   UNL     1      -1.194  10.894  20.507  0.00  0.00    +0.000 A 
ATOM      5  C   UNL     1      -1.727  11.461  21.641  0.00  0.00    +0.000 A 
ATOM      6  C   UNL     1      -2.774  12.531  21.564  0.00  0.00    +0.000 A 
ATOM      7  O   UNL     1      -3.135  13.169  22.554  0.00  0.00    +0.000 OA
ATOM      8  C   UNL     1      -1.332  11.060  22.978  0.00  0.00    +0.000 C 
ATOM      9  C   UNL     1      -0.415  10.120  23.179  0.00  0.00    +0.000 C 
ATOM     10  F   UNL     1      -0.041   9.723  24.408  0.00  0.00    +0.000 F 
ATOM     11  C   UNL     1       0.229   9.494  21.994  0.00  0.00    +0.000 C 
ATOM     12  N   UNL     1       1.143   8.613  22.295  0.00  0.00    +0.000 NA
ATOM     13  N   UNL     1       1.855   7.963  21.308  0.00  0.00    +0.000 NA
ATOM     14  C   UNL     1       1.624   8.241  20.065  0.00  0.00    +0.000 C 
ATOM     15  C   UNL     1       0.577   9.244  19.614  0.00  0.00    +0.000 C 
ATOM     16  N   UNL     1      -0.165   9.885  20.702  0.00  0.00    +0.000 N 
ENDROOT
BRANCH  14  17
ATOM     17  C   UNL     1       2.446   7.519  19.024  0.00  0.00    +0.000 A 
ATOM     18  C   UNL     1       2.912   8.232  17.904  0.00  0.00    +0.000 A 
ATOM     19  C   UNL     1       3.711   7.613  16.936  0.00  0.00    +0.000 A 
ATOM     20  C   UNL     1       4.045   6.271  17.077  0.00  0.00    +0.000 A 
ATOM     21 BR   UNL     1       5.162   5.436  15.800  0.00  0.00    +0.000 Br
ATOM     22  C   UNL     1       3.569   5.541  18.163  0.00  0.00    +0.000 A 
ATOM     23  C   UNL     1       2.772   6.162  19.135  0.00  0.00    +0.000 A 
ENDBRANCH  14  17
BRANCH   3  24
ATOM     24  C   UNL     1      -1.280  10.845  17.947  0.00  0.00    +0.000 C 
ATOM     25  C   UNL     1      -1.991   9.738  17.189  0.00  0.00    +0.000 C 
ATOM     26  C   UNL     1      -2.060  11.136  16.685  0.00  0.00    +0.000 C 
ENDBRANCH   3  24
BRANCH   1  28
ATOM     27  O   UNL     1      -5.641  13.333  19.682  0.00  0.00    +0.000 OA
ATOM     28  C   UNL     1      -4.553  13.712  20.095  0.00  0.00    +0.000 C 
BRANCH  28  29
ATOM     29  O   UNL     1      -4.310  15.005  20.401  0.00  0.00    +0.000 OA
ATOM     30  H   UNL     1      -3.715  15.140  21.180  0.00  0.00    +0.000 HD
ENDBRANCH  28  29
ENDBRANCH   1  28
TORSDOF 4
ENDMDL
MODEL 8
REMARK VINA RESULT:      -6.6      4.727      7.537
REMARK  Name = 
REMARK  4 active torsions:
REMARK  status: ('A' for Active; 'I' for Inactive)
REMARK    1  A    between atoms: C_2  and  O_3
REMARK    2  A    between atoms: C_2  and  C_4
REMARK    3  A    between atoms: N_6  and  C_7
REMARK    4  A    between atoms: C_20  and  C_21
REMARK                            x       y       z     vdW  Elec       q    Type
REMARK                         _______ _______ _______ _____ _____    ______ ____
ROOT
ATOM      1  C   UNL     1      -2.975  11.468  17.826  0.00  0.00    +0.000 A 
ATOM      2  C   UNL     1      -2.062  12.024  18.630  0.00  0.00    +0.000 A 
ATOM      3  N   UNL     1      -2.330  12.825  19.737  0.00  0.00    +0.000 N 
ATOM      4  C   UNL     1      -3.660  12.955  20.258  0.00  0.00    +0.000 A 
ATOM      5  C   UNL     1      -4.660  12.394  19.498  0.00  0.00    +0.000 A 
ATOM      6  C   UNL     1      -4.368  11.728  18.187  0.00  0.00    +0.000 A 
ATOM      7  O   UNL     1      -5.262  11.377  17.415  0.00  0.00    +0.000 OA
ATOM      8  C   UNL     1      -6.050  12.391  19.911  0.00  0.00    +0.000 C 
ATOM      9  C   UNL     1      -6.436  12.947  21.054  0.00  0.00    +0.000 C 
ATOM     10  F   UNL     1      -7.717  12.948  21.463  0.00  0.00    +0.000 F 
ATOM     11  C   UNL     1      -5.410  13.606  21.904  0.00  0.00    +0.000 C 
ATOM     12  N   UNL     1      -5.893  14.156  22.984  0.00  0.00    +0.000 NA
ATOM     13  N   UNL     1      -5.074  14.832  23.864  0.00  0.00    +0.000 NA
ATOM     14  C   UNL     1      -3.809  14.936  23.608  0.00  0.00    +0.000 C 
ATOM     15  C   UNL     1      -3.151  14.324  22.384  0.00  0.00    +0.000 C 
ATOM     16  N   UNL     1      -4.064  13.597  21.498  0.00  0.00    +0.000 N 
ENDROOT
BRANCH  14  17
ATOM     17  C   UNL     1      -2.959  15.706  24.591  0.00  0.00    +0.000 A 
ATOM     18  C   UNL     1      -2.073  15.003  25.428  0.00  0.00    +0.000 A 
ATOM     19  C   UNL     1      -1.238  15.679  26.324  0.00  0.00    +0.000 A 
ATOM     20  C   UNL     1      -1.288  17.067  26.397  0.00  0.00    +0.000 A 
ATOM     21 BR   UNL     1      -0.132  17.994  27.570  0.00  0.00    +0.000 Br
ATOM     22  C   UNL     1      -2.180  17.778  25.598  0.00  0.00    +0.000 A 
ATOM     23  C   UNL     1      -3.013  17.101  24.697  0.00  0.00    +0.000 A 
ENDBRANCH  14  17
BRANCH   3  24
ATOM     24  C   UNL     1      -1.136  13.357  20.436  0.00  0.00    +0.000 C 
ATOM     25  C   UNL     1      -0.235  12.515  21.322  0.00  0.00    +0.000 C 
ATOM     26  C   UNL     1       0.260  12.978  19.997  0.00  0.00    +0.000 C 
ENDBRANCH   3  24
BRANCH   1  28
ATOM     27  O   UNL     1      -1.877   9.667  16.735  0.00  0.00    +0.000 OA
ATOM     28  C   UNL     1      -2.564  10.677  16.651  0.00  0.00    +0.000 C 
BRANCH  28  29
ATOM     29  O   UNL     1      -2.984  11.166  15.465  0.00  0.00    +0.000 OA
ATOM     30  H   UNL     1      -2.263  11.334  14.809  0.00  0.00    +0.000 HD
ENDBRANCH  28  29
ENDBRANCH   1  28
TORSDOF 4
ENDMDL
MODEL 9
REMARK VINA RESULT:      -6.5      4.413      6.991
REMARK  Name = 
REMARK  4 active torsions:
REMARK  status: ('A' for Active; 'I' for Inactive)
REMARK    1  A    between atoms: C_2  and  O_3
REMARK    2  A    between atoms: C_2  and  C_4
REMARK    3  A    between atoms: N_6  and  C_7
REMARK    4  A    between atoms: C_20  and  C_21
REMARK                            x       y       z     vdW  Elec       q    Type
REMARK                         _______ _______ _______ _____ _____    ______ ____
ROOT
ATOM      1  C   UNL     1      -3.504  11.208  17.575  0.00  0.00    +0.000 A 
ATOM      2  C   UNL     1      -2.443  11.753  18.179  0.00  0.00    +0.000 A 
ATOM      3  N   UNL     1      -2.469  12.521  19.340  0.00  0.00    +0.000 N 
ATOM      4  C   UNL     1      -3.655  12.622  20.140  0.00  0.00    +0.000 A 
ATOM      5  C   UNL     1      -4.793  12.072  19.598  0.00  0.00    +0.000 A 
ATOM      6  C   UNL     1      -4.788  11.444  18.236  0.00  0.00    +0.000 A 
ATOM      7  O   UNL     1      -5.826  11.104  17.666  0.00  0.00    +0.000 OA
ATOM      8  C   UNL     1      -6.061  12.043  20.301  0.00  0.00    +0.000 C 
ATOM      9  C   UNL     1      -6.194  12.564  21.515  0.00  0.00    +0.000 C 
ATOM     10  F   UNL     1      -7.356  12.540  22.192  0.00  0.00    +0.000 F 
ATOM     11  C   UNL     1      -5.011  13.210  22.142  0.00  0.00    +0.000 C 
ATOM     12  N   UNL     1      -5.253  13.727  23.316  0.00  0.00    +0.000 NA
ATOM     13  N   UNL     1      -4.266  14.388  24.017  0.00  0.00    +0.000 NA
ATOM     14  C   UNL     1      -3.086  14.512  23.498  0.00  0.00    +0.000 C 
ATOM     15  C   UNL     1      -2.706  13.940  22.144  0.00  0.00    +0.000 C 
ATOM     16  N   UNL     1      -3.785  13.227  21.455  0.00  0.00    +0.000 N 
ENDROOT
BRANCH  14  17
ATOM     17  C   UNL     1      -2.048  15.265  24.295  0.00  0.00    +0.000 A 
ATOM     18  C   UNL     1      -1.035  15.963  23.614  0.00  0.00    +0.000 A 
ATOM     19  C   UNL     1      -0.077  16.708  24.312  0.00  0.00    +0.000 A 
ATOM     20  C   UNL     1      -0.120  16.752  25.701  0.00  0.00    +0.000 A 
ATOM     21 BR   UNL     1       1.140  17.792  26.652  0.00  0.00    +0.000 Br
ATOM     22  C   UNL     1      -1.097  16.043  26.395  0.00  0.00    +0.000 A 
ATOM     23  C   UNL     1      -2.060  15.302  25.695  0.00  0.00    +0.000 A 
ENDBRANCH  14  17
BRANCH   3  24
ATOM     24  C   UNL     1      -1.154  13.047  19.780  0.00  0.00    +0.000 C 
ATOM     25  C   UNL     1      -0.038  12.174  20.325  0.00  0.00    +0.000 C 
ATOM     26  C   UNL     1       0.099  12.788  18.976  0.00  0.00    +0.000 C 
ENDBRANCH   3  24
BRANCH   1  28
ATOM     27  O   UNL     1      -2.385   9.744  16.080  0.00  0.00    +0.000 OA
ATOM     28  C   UNL     1      -3.353  10.454  16.318  0.00  0.00    +0.000 C 
BRANCH  28  29
ATOM     29  O   UNL     1      -4.357  10.625  15.431  0.00  0.00    +0.000 OA
ATOM     30  H   UNL     1      -4.452  11.548  15.088  0.00  0.00    +0.000 HD
ENDBRANCH  28  29
ENDBRANCH   1  28
TORSDOF 4
ENDMDL
