MODEL 1
REMARK VINA RESULT:      -6.9      0.000      0.000
REMARK  Name = 
REMARK  8 active torsions:
REMARK  status: ('A' for Active; 'I' for Inactive)
REMARK    1  A    between atoms: C_1  and  O_2
REMARK    2  A    between atoms: O_2  and  C_3
REMARK    3  A    between atoms: C_5  and  C_6
REMARK    4  A    between atoms: N_10  and  C_11
REMARK    5  A    between atoms: C_14  and  C_15
REMARK    6  A    between atoms: C_15  and  C_16
REMARK    7  A    between atoms: C_16  and  C_17
REMARK    8  A    between atoms: C_16  and  C_18
REMARK                            x       y       z     vdW  Elec       q    Type
REMARK                         _______ _______ _______ _____ _____    ______ ____
ROOT
ATOM      1  C   UNL     1       5.584   4.405  16.297  0.00  0.00    +0.000 A 
ATOM      2  O   UNL     1       4.603   3.619  16.824  0.00  0.00    +0.000 OA
ATOM      3  C   UNL     1       3.890   4.423  17.695  0.00  0.00    +0.000 A 
ATOM      4  N   UNL     1       4.368   5.661  17.704  0.00  0.00    +0.000 NA
ATOM      5  C   UNL     1       5.457   5.660  16.859  0.00  0.00    +0.000 A 
ENDROOT
BRANCH   3   6
ATOM      6  C   UNL     1       2.796   3.953  18.504  0.00  0.00    +0.000 C 
ATOM      7  C   UNL     1       1.945   3.064  17.961  0.00  0.00    +0.000 C 
ATOM      8  C   UNL     1       0.809   2.463  18.717  0.00  0.00    +0.000 C 
ATOM      9  C   UNL     1       0.579   3.004  20.136  0.00  0.00    +0.000 C 
ATOM     10  N   UNL     1       1.635   3.772  20.784  0.00  0.00    +0.000 NA
ATOM     11  C   UNL     1       2.199   3.144  21.966  0.00  0.00    +0.000 C 
ATOM     12  C   UNL     1       2.635   4.419  19.934  0.00  0.00    +0.000 C 
ENDBRANCH   3   6
BRANCH   1  14
ATOM     13  C   UNL     1       6.265   4.165  14.074  0.00  0.00    +0.000 C 
ATOM     14  O   UNL     1       6.351   3.756  15.428  0.00  0.00    +0.000 OA
ENDBRANCH   1  14
BRANCH   5  15
ATOM     15  C   UNL     1       6.271   6.893  16.656  0.00  0.00    +0.000 C 
BRANCH  15  16
ATOM     16  C   UNL     1       7.601   6.950  17.431  0.00  0.00    +0.000 C 
ATOM     17  C   UNL     1       7.984   8.379  17.825  0.00  0.00    +0.000 C 
ATOM     18  C   UNL     1       7.480   6.091  18.694  0.00  0.00    +0.000 C 
ENDBRANCH  15  16
ENDBRANCH   5  15
TORSDOF 4
ENDMDL
MODEL 2
REMARK VINA RESULT:      -6.9      1.343      2.971
REMARK  Name = 
REMARK  8 active torsions:
REMARK  status: ('A' for Active; 'I' for Inactive)
REMARK    1  A    between atoms: C_1  and  O_2
REMARK    2  A    between atoms: O_2  and  C_3
REMARK    3  A    between atoms: C_5  and  C_6
REMARK    4  A    between atoms: N_10  and  C_11
REMARK    5  A    between atoms: C_14  and  C_15
REMARK    6  A    between atoms: C_15  and  C_16
REMARK    7  A    between atoms: C_16  and  C_17
REMARK    8  A    between atoms: C_16  and  C_18
REMARK                            x       y       z     vdW  Elec       q    Type
REMARK                         _______ _______ _______ _____ _____    ______ ____
ROOT
ATOM      1  C   UNL     1       5.701   5.873  16.645  0.00  0.00    +0.000 A 
ATOM      2  O   UNL     1       4.680   5.875  17.548  0.00  0.00    +0.000 OA
ATOM      3  C   UNL     1       4.157   4.595  17.544  0.00  0.00    +0.000 A 
ATOM      4  N   UNL     1       4.824   3.808  16.709  0.00  0.00    +0.000 NA
ATOM      5  C   UNL     1       5.775   4.603  16.106  0.00  0.00    +0.000 A 
ENDROOT
BRANCH   3   6
ATOM      6  C   UNL     1       3.017   4.193  18.326  0.00  0.00    +0.000 C 
ATOM      7  C   UNL     1       2.138   3.342  17.769  0.00  0.00    +0.000 C 
ATOM      8  C   UNL     1       0.950   2.812  18.498  0.00  0.00    +0.000 C 
ATOM      9  C   UNL     1       0.707   3.383  19.902  0.00  0.00    +0.000 C 
ATOM     10  N   UNL     1       1.782   4.106  20.572  0.00  0.00    +0.000 NA
ATOM     11  C   UNL     1       2.277   3.466  21.778  0.00  0.00    +0.000 C 
ATOM     12  C   UNL     1       2.839   4.688  19.744  0.00  0.00    +0.000 C 
ENDBRANCH   3   6
BRANCH   1  14
ATOM     13  C   UNL     1       7.387   7.287  17.432  0.00  0.00    +0.000 C 
ATOM     14  O   UNL     1       6.303   7.052  16.549  0.00  0.00    +0.000 OA
ENDBRANCH   1  14
BRANCH   5  15
ATOM     15  C   UNL     1       6.691   4.050  15.067  0.00  0.00    +0.000 C 
BRANCH  15  16
ATOM     16  C   UNL     1       6.501   4.608  13.644  0.00  0.00    +0.000 C 
ATOM     17  C   UNL     1       7.785   5.229  13.087  0.00  0.00    +0.000 C 
ATOM     18  C   UNL     1       6.044   3.475  12.720  0.00  0.00    +0.000 C 
ENDBRANCH  15  16
ENDBRANCH   5  15
TORSDOF 4
ENDMDL
MODEL 3
REMARK VINA RESULT:      -6.7      1.395      2.994
REMARK  Name = 
REMARK  8 active torsions:
REMARK  status: ('A' for Active; 'I' for Inactive)
REMARK    1  A    between atoms: C_1  and  O_2
REMARK    2  A    between atoms: O_2  and  C_3
REMARK    3  A    between atoms: C_5  and  C_6
REMARK    4  A    between atoms: N_10  and  C_11
REMARK    5  A    between atoms: C_14  and  C_15
REMARK    6  A    between atoms: C_15  and  C_16
REMARK    7  A    between atoms: C_16  and  C_17
REMARK    8  A    between atoms: C_16  and  C_18
REMARK                            x       y       z     vdW  Elec       q    Type
REMARK                         _______ _______ _______ _____ _____    ______ ____
ROOT
ATOM      1  C   UNL     1       6.249   4.578  16.962  0.00  0.00    +0.000 A 
ATOM      2  O   UNL     1       5.475   4.167  18.005  0.00  0.00    +0.000 OA
ATOM      3  C   UNL     1       4.191   4.041  17.509  0.00  0.00    +0.000 A 
ATOM      4  N   UNL     1       4.149   4.326  16.213  0.00  0.00    +0.000 NA
ATOM      5  C   UNL     1       5.426   4.702  15.859  0.00  0.00    +0.000 A 
ENDROOT
BRANCH   3   6
ATOM      6  C   UNL     1       3.053   3.680  18.313  0.00  0.00    +0.000 C 
ATOM      7  C   UNL     1       2.229   2.724  17.849  0.00  0.00    +0.000 C 
ATOM      8  C   UNL     1       1.052   2.226  18.616  0.00  0.00    +0.000 C 
ATOM      9  C   UNL     1       0.748   2.950  19.936  0.00  0.00    +0.000 C 
ATOM     10  N   UNL     1       1.772   3.801  20.532  0.00  0.00    +0.000 NA
ATOM     11  C   UNL     1       2.268   3.337  21.815  0.00  0.00    +0.000 C 
ATOM     12  C   UNL     1       2.818   4.332  19.658  0.00  0.00    +0.000 C 
ENDBRANCH   3   6
BRANCH   1  14
ATOM     13  C   UNL     1       7.781   5.394  18.527  0.00  0.00    +0.000 C 
ATOM     14  O   UNL     1       7.524   4.736  17.298  0.00  0.00    +0.000 OA
ENDBRANCH   1  14
BRANCH   5  15
ATOM     15  C   UNL     1       5.741   5.133  14.466  0.00  0.00    +0.000 C 
BRANCH  15  16
ATOM     16  C   UNL     1       6.624   4.169  13.652  0.00  0.00    +0.000 C 
ATOM     17  C   UNL     1       5.839   3.448  12.554  0.00  0.00    +0.000 C 
ATOM     18  C   UNL     1       7.774   4.959  13.018  0.00  0.00    +0.000 C 
ENDBRANCH  15  16
ENDBRANCH   5  15
TORSDOF 4
ENDMDL
MODEL 4
REMARK VINA RESULT:      -6.7      2.389      4.747
REMARK  Name = 
REMARK  8 active torsions:
REMARK  status: ('A' for Active; 'I' for Inactive)
REMARK    1  A    between atoms: C_1  and  O_2
REMARK    2  A    between atoms: O_2  and  C_3
REMARK    3  A    between atoms: C_5  and  C_6
REMARK    4  A    between atoms: N_10  and  C_11
REMARK    5  A    between atoms: C_14  and  C_15
REMARK    6  A    between atoms: C_15  and  C_16
REMARK    7  A    between atoms: C_16  and  C_17
REMARK    8  A    between atoms: C_16  and  C_18
REMARK                            x       y       z     vdW  Elec       q    Type
REMARK                         _______ _______ _______ _____ _____    ______ ____
ROOT
ATOM      1  C   UNL     1       7.183   5.072  14.259  0.00  0.00    +0.000 A 
ATOM      2  O   UNL     1       6.675   5.340  15.494  0.00  0.00    +0.000 OA
ATOM      3  C   UNL     1       5.526   4.581  15.613  0.00  0.00    +0.000 A 
ATOM      4  N   UNL     1       5.324   3.844  14.527  0.00  0.00    +0.000 NA
ATOM      5  C   UNL     1       6.336   4.168  13.649  0.00  0.00    +0.000 A 
ENDROOT
BRANCH   3   6
ATOM      6  C   UNL     1       4.655   4.621  16.758  0.00  0.00    +0.000 C 
ATOM      7  C   UNL     1       4.255   5.824  17.206  0.00  0.00    +0.000 C 
ATOM      8  C   UNL     1       3.311   5.991  18.347  0.00  0.00    +0.000 C 
ATOM      9  C   UNL     1       2.897   4.706  19.078  0.00  0.00    +0.000 C 
ATOM     10  N   UNL     1       3.139   3.417  18.441  0.00  0.00    +0.000 NA
ATOM     11  C   UNL     1       1.937   2.675  18.107  0.00  0.00    +0.000 C 
ATOM     12  C   UNL     1       4.176   3.343  17.411  0.00  0.00    +0.000 C 
ENDBRANCH   3   6
BRANCH   1  14
ATOM     13  C   UNL     1       8.626   5.956  12.646  0.00  0.00    +0.000 C 
ATOM     14  O   UNL     1       8.305   5.738  14.009  0.00  0.00    +0.000 OA
ENDBRANCH   1  14
BRANCH   5  15
ATOM     15  C   UNL     1       6.401   3.549  12.293  0.00  0.00    +0.000 C 
BRANCH  15  16
ATOM     16  C   UNL     1       5.280   2.546  11.961  0.00  0.00    +0.000 C 
ATOM     17  C   UNL     1       4.154   3.182  11.143  0.00  0.00    +0.000 C 
ATOM     18  C   UNL     1       5.876   1.372  11.178  0.00  0.00    +0.000 C 
ENDBRANCH  15  16
ENDBRANCH   5  15
TORSDOF 4
ENDMDL
MODEL 5
REMARK VINA RESULT:      -6.7      1.544      3.446
REMARK  Name = 
REMARK  8 active torsions:
REMARK  status: ('A' for Active; 'I' for Inactive)
REMARK    1  A    between atoms: C_1  and  O_2
REMARK    2  A    between atoms: O_2  and  C_3
REMARK    3  A    between atoms: C_5  and  C_6
REMARK    4  A    between atoms: N_10  and  C_11
REMARK    5  A    between atoms: C_14  and  C_15
REMARK    6  A    between atoms: C_15  and  C_16
REMARK    7  A    between atoms: C_16  and  C_17
REMARK    8  A    between atoms: C_16  and  C_18
REMARK                            x       y       z     vdW  Elec       q    Type
REMARK                         _______ _______ _______ _____ _____    ______ ____
ROOT
ATOM      1  C   UNL     1       6.534   5.510  16.687  0.00  0.00    +0.000 A 
ATOM      2  O   UNL     1       5.744   5.785  17.764  0.00  0.00    +0.000 OA
ATOM      3  C   UNL     1       4.776   4.799  17.796  0.00  0.00    +0.000 A 
ATOM      4  N   UNL     1       4.952   3.923  16.814  0.00  0.00    +0.000 NA
ATOM      5  C   UNL     1       6.030   4.375  16.084  0.00  0.00    +0.000 A 
ENDROOT
BRANCH   3   6
ATOM      6  C   UNL     1       3.705   4.760  18.756  0.00  0.00    +0.000 C 
ATOM      7  C   UNL     1       3.234   5.929  19.225  0.00  0.00    +0.000 C 
ATOM      8  C   UNL     1       2.091   6.019  20.178  0.00  0.00    +0.000 C 
ATOM      9  C   UNL     1       1.541   4.686  20.703  0.00  0.00    +0.000 C 
ATOM     10  N   UNL     1       1.892   3.451  20.013  0.00  0.00    +0.000 NA
ATOM     11  C   UNL     1       0.770   2.766  19.395  0.00  0.00    +0.000 C 
ATOM     12  C   UNL     1       3.104   3.442  19.193  0.00  0.00    +0.000 C 
ENDBRANCH   3   6
BRANCH   1  14
ATOM     13  C   UNL     1       7.541   7.483  17.435  0.00  0.00    +0.000 C 
ATOM     14  O   UNL     1       7.521   6.386  16.537  0.00  0.00    +0.000 OA
ENDBRANCH   1  14
BRANCH   5  15
ATOM     15  C   UNL     1       6.491   3.646  14.866  0.00  0.00    +0.000 C 
BRANCH  15  16
ATOM     16  C   UNL     1       6.347   4.409  13.536  0.00  0.00    +0.000 C 
ATOM     17  C   UNL     1       7.649   5.097  13.117  0.00  0.00    +0.000 C 
ATOM     18  C   UNL     1       5.917   3.427  12.441  0.00  0.00    +0.000 C 
ENDBRANCH  15  16
ENDBRANCH   5  15
TORSDOF 4
ENDMDL
MODEL 6
REMARK VINA RESULT:      -6.7      1.690      3.683
REMARK  Name = 
REMARK  8 active torsions:
REMARK  status: ('A' for Active; 'I' for Inactive)
REMARK    1  A    between atoms: C_1  and  O_2
REMARK    2  A    between atoms: O_2  and  C_3
REMARK    3  A    between atoms: C_5  and  C_6
REMARK    4  A    between atoms: N_10  and  C_11
REMARK    5  A    between atoms: C_14  and  C_15
REMARK    6  A    between atoms: C_15  and  C_16
REMARK    7  A    between atoms: C_16  and  C_17
REMARK    8  A    between atoms: C_16  and  C_18
REMARK                            x       y       z     vdW  Elec       q    Type
REMARK                         _______ _______ _______ _____ _____    ______ ____
ROOT
ATOM      1  C   UNL     1       6.496   5.571  16.012  0.00  0.00    +0.000 A 
ATOM      2  O   UNL     1       5.635   5.406  17.054  0.00  0.00    +0.000 OA
ATOM      3  C   UNL     1       4.684   4.496  16.630  0.00  0.00    +0.000 A 
ATOM      4  N   UNL     1       4.938   4.079  15.397  0.00  0.00    +0.000 NA
ATOM      5  C   UNL     1       6.052   4.772  14.977  0.00  0.00    +0.000 A 
ENDROOT
BRANCH   3   6
ATOM      6  C   UNL     1       3.554   4.091  17.425  0.00  0.00    +0.000 C 
ATOM      7  C   UNL     1       3.170   2.803  17.367  0.00  0.00    +0.000 C 
ATOM      8  C   UNL     1       2.051   2.254  18.184  0.00  0.00    +0.000 C 
ATOM      9  C   UNL     1       1.265   3.269  19.025  0.00  0.00    +0.000 C 
ATOM     10  N   UNL     1       1.835   4.590  19.262  0.00  0.00    +0.000 NA
ATOM     11  C   UNL     1       2.149   4.870  20.652  0.00  0.00    +0.000 C 
ATOM     12  C   UNL     1       2.847   5.079  18.325  0.00  0.00    +0.000 C 
ENDBRANCH   3   6
BRANCH   1  14
ATOM     13  C   UNL     1       7.595   6.847  17.632  0.00  0.00    +0.000 C 
ATOM     14  O   UNL     1       7.476   6.425  16.285  0.00  0.00    +0.000 OA
ENDBRANCH   1  14
BRANCH   5  15
ATOM     15  C   UNL     1       6.603   4.579  13.603  0.00  0.00    +0.000 C 
BRANCH  15  16
ATOM     16  C   UNL     1       6.046   3.373  12.823  0.00  0.00    +0.000 C 
ATOM     17  C   UNL     1       4.760   3.713  12.068  0.00  0.00    +0.000 C 
ATOM     18  C   UNL     1       7.107   2.889  11.829  0.00  0.00    +0.000 C 
ENDBRANCH  15  16
ENDBRANCH   5  15
TORSDOF 4
ENDMDL
MODEL 7
REMARK VINA RESULT:      -6.7      1.719      3.267
REMARK  Name = 
REMARK  8 active torsions:
REMARK  status: ('A' for Active; 'I' for Inactive)
REMARK    1  A    between atoms: C_1  and  O_2
REMARK    2  A    between atoms: O_2  and  C_3
REMARK    3  A    between atoms: C_5  and  C_6
REMARK    4  A    between atoms: N_10  and  C_11
REMARK    5  A    between atoms: C_14  and  C_15
REMARK    6  A    between atoms: C_15  and  C_16
REMARK    7  A    between atoms: C_16  and  C_17
REMARK    8  A    between atoms: C_16  and  C_18
REMARK                            x       y       z     vdW  Elec       q    Type
REMARK                         _______ _______ _______ _____ _____    ______ ____
ROOT
ATOM      1  C   UNL     1       6.771   5.626  18.030  0.00  0.00    +0.000 A 
ATOM      2  O   UNL     1       5.785   5.597  18.970  0.00  0.00    +0.000 OA
ATOM      3  C   UNL     1       4.891   4.624  18.562  0.00  0.00    +0.000 A 
ATOM      4  N   UNL     1       5.296   4.041  17.440  0.00  0.00    +0.000 NA
ATOM      5  C   UNL     1       6.458   4.684  17.071  0.00  0.00    +0.000 A 
ENDROOT
BRANCH   3   6
ATOM      6  C   UNL     1       3.668   4.319  19.257  0.00  0.00    +0.000 C 
ATOM      7  C   UNL     1       3.061   5.311  19.933  0.00  0.00    +0.000 C 
ATOM      8  C   UNL     1       1.763   5.132  20.643  0.00  0.00    +0.000 C 
ATOM      9  C   UNL     1       1.196   3.705  20.669  0.00  0.00    +0.000 C 
ATOM     10  N   UNL     1       1.729   2.711  19.744  0.00  0.00    +0.000 NA
ATOM     11  C   UNL     1       0.773   2.227  18.764  0.00  0.00    +0.000 C 
ATOM     12  C   UNL     1       3.068   2.932  19.195  0.00  0.00    +0.000 C 
ENDBRANCH   3   6
BRANCH   1  14
ATOM     13  C   UNL     1       7.681   7.725  17.550  0.00  0.00    +0.000 C 
ATOM     14  O   UNL     1       7.713   6.523  18.301  0.00  0.00    +0.000 OA
ENDBRANCH   1  14
BRANCH   5  15
ATOM     15  C   UNL     1       7.176   4.308  15.818  0.00  0.00    +0.000 C 
BRANCH  15  16
ATOM     16  C   UNL     1       6.612   4.911  14.518  0.00  0.00    +0.000 C 
ATOM     17  C   UNL     1       7.711   5.239  13.504  0.00  0.00    +0.000 C 
ATOM     18  C   UNL     1       5.625   3.919  13.894  0.00  0.00    +0.000 C 
ENDBRANCH  15  16
ENDBRANCH   5  15
TORSDOF 4
ENDMDL
MODEL 8
REMARK VINA RESULT:      -6.6      1.128      1.508
REMARK  Name = 
REMARK  8 active torsions:
REMARK  status: ('A' for Active; 'I' for Inactive)
REMARK    1  A    between atoms: C_1  and  O_2
REMARK    2  A    between atoms: O_2  and  C_3
REMARK    3  A    between atoms: C_5  and  C_6
REMARK    4  A    between atoms: N_10  and  C_11
REMARK    5  A    between atoms: C_14  and  C_15
REMARK    6  A    between atoms: C_15  and  C_16
REMARK    7  A    between atoms: C_16  and  C_17
REMARK    8  A    between atoms: C_16  and  C_18
REMARK                            x       y       z     vdW  Elec       q    Type
REMARK                         _______ _______ _______ _____ _____    ______ ____
ROOT
ATOM      1  C   UNL     1       6.811   4.894  17.025  0.00  0.00    +0.000 A 
ATOM      2  O   UNL     1       5.651   4.180  17.025  0.00  0.00    +0.000 OA
ATOM      3  C   UNL     1       5.002   4.496  18.205  0.00  0.00    +0.000 A 
ATOM      4  N   UNL     1       5.693   5.385  18.907  0.00  0.00    +0.000 NA
ATOM      5  C   UNL     1       6.852   5.620  18.199  0.00  0.00    +0.000 A 
ENDROOT
BRANCH   3   6
ATOM      6  C   UNL     1       3.757   3.903  18.617  0.00  0.00    +0.000 C 
ATOM      7  C   UNL     1       3.228   2.940  17.841  0.00  0.00    +0.000 C 
ATOM      8  C   UNL     1       1.975   2.214  18.192  0.00  0.00    +0.000 C 
ATOM      9  C   UNL     1       1.235   2.705  19.444  0.00  0.00    +0.000 C 
ATOM     10  N   UNL     1       1.934   3.568  20.390  0.00  0.00    +0.000 NA
ATOM     11  C   UNL     1       2.137   2.983  21.703  0.00  0.00    +0.000 C 
ATOM     12  C   UNL     1       3.086   4.328  19.904  0.00  0.00    +0.000 C 
ENDBRANCH   3   6
BRANCH   1  14
ATOM     13  C   UNL     1       6.832   4.447  14.731  0.00  0.00    +0.000 C 
ATOM     14  O   UNL     1       7.541   4.689  15.934  0.00  0.00    +0.000 OA
ENDBRANCH   1  14
BRANCH   5  15
ATOM     15  C   UNL     1       7.894   6.551  18.721  0.00  0.00    +0.000 C 
BRANCH  15  16
ATOM     16  C   UNL     1       8.120   7.831  17.895  0.00  0.00    +0.000 C 
ATOM     17  C   UNL     1       6.822   8.371  17.292  0.00  0.00    +0.000 C 
ATOM     18  C   UNL     1       8.745   8.902  18.795  0.00  0.00    +0.000 C 
ENDBRANCH  15  16
ENDBRANCH   5  15
TORSDOF 4
ENDMDL
MODEL 9
REMARK VINA RESULT:      -6.5      0.904      1.639
REMARK  Name = 
REMARK  8 active torsions:
REMARK  status: ('A' for Active; 'I' for Inactive)
REMARK    1  A    between atoms: C_1  and  O_2
REMARK    2  A    between atoms: O_2  and  C_3
REMARK    3  A    between atoms: C_5  and  C_6
REMARK    4  A    between atoms: N_10  and  C_11
REMARK    5  A    between atoms: C_14  and  C_15
REMARK    6  A    between atoms: C_15  and  C_16
REMARK    7  A    between atoms: C_16  and  C_17
REMARK    8  A    between atoms: C_16  and  C_18
REMARK                            x       y       z     vdW  Elec       q    Type
REMARK                         _______ _______ _______ _____ _____    ______ ____
ROOT
ATOM      1  C   UNL     1       5.967   4.762  16.684  0.00  0.00    +0.000 A 
ATOM      2  O   UNL     1       5.104   3.895  17.285  0.00  0.00    +0.000 OA
ATOM      3  C   UNL     1       4.383   4.639  18.201  0.00  0.00    +0.000 A 
ATOM      4  N   UNL     1       4.742   5.916  18.168  0.00  0.00    +0.000 NA
ATOM      5  C   UNL     1       5.763   6.006  17.247  0.00  0.00    +0.000 A 
ENDROOT
BRANCH   3   6
ATOM      6  C   UNL     1       3.399   4.079  19.089  0.00  0.00    +0.000 C 
ATOM      7  C   UNL     1       3.004   4.818  20.141  0.00  0.00    +0.000 C 
ATOM      8  C   UNL     1       1.953   4.369  21.098  0.00  0.00    +0.000 C 
ATOM      9  C   UNL     1       1.412   2.947  20.892  0.00  0.00    +0.000 C 
ATOM     10  N   UNL     1       1.668   2.265  19.629  0.00  0.00    +0.000 NA
ATOM     11  C   UNL     1       0.477   1.982  18.846  0.00  0.00    +0.000 C 
ATOM     12  C   UNL     1       2.803   2.715  18.822  0.00  0.00    +0.000 C 
ENDBRANCH   3   6
BRANCH   1  14
ATOM     13  C   UNL     1       6.783   4.799  14.494  0.00  0.00    +0.000 C 
ATOM     14  O   UNL     1       6.728   4.176  15.766  0.00  0.00    +0.000 OA
ENDBRANCH   1  14
BRANCH   5  15
ATOM     15  C   UNL     1       6.442   7.308  16.979  0.00  0.00    +0.000 C 
BRANCH  15  16
ATOM     16  C   UNL     1       7.858   7.457  17.569  0.00  0.00    +0.000 C 
ATOM     17  C   UNL     1       8.152   8.890  18.019  0.00  0.00    +0.000 C 
ATOM     18  C   UNL     1       8.003   6.509  18.763  0.00  0.00    +0.000 C 
ENDBRANCH  15  16
ENDBRANCH   5  15
TORSDOF 4
ENDMDL
