MODEL 1
REMARK VINA RESULT:      -8.2      0.000      0.000
REMARK  Name = 
REMARK  5 active torsions:
REMARK  status: ('A' for Active; 'I' for Inactive)
REMARK    1  A    between atoms: C_4  and  O_5
REMARK    2  A    between atoms: O_5  and  C_6
REMARK    3  A    between atoms: C_6  and  C_7
REMARK    4  A    between atoms: C_7  and  N_8
REMARK    5  A    between atoms: N_8  and  C_9
REMARK                            x       y       z     vdW  Elec       q    Type
REMARK                         _______ _______ _______ _____ _____    ______ ____
ROOT
ATOM      1  C   UNL     1       5.203   4.281  16.112  0.00  0.00    +0.000 C 
ENDROOT
BRANCH   1   2
ATOM      2  O   UNL     1       6.611   4.122  16.322  0.00  0.00    +0.000 OA
BRANCH   2   6
ATOM      3  N   UNL     1       7.737   8.621  17.365  0.00  0.00    +0.000 N 
ATOM      4  C   UNL     1       7.629   7.269  17.692  0.00  0.00    +0.000 A 
ATOM      5  C   UNL     1       7.107   6.372  16.793  0.00  0.00    +0.000 A 
ATOM      6  C   UNL     1       7.107   5.065  17.206  0.00  0.00    +0.000 A 
ATOM      7  N   UNL     1       7.566   4.661  18.400  0.00  0.00    +0.000 NA
ATOM      8  C   UNL     1       8.042   5.611  19.199  0.00  0.00    +0.000 A 
ATOM      9  N   UNL     1       8.547   5.207  20.416  0.00  0.00    +0.000 N 
ATOM     10  N   UNL     1       8.110   6.907  18.888  0.00  0.00    +0.000 NA
ATOM     11  H   UNL     1       6.855   9.016  17.060  0.00  0.00    +0.000 HD
ATOM     12  H   UNL     1       8.104   9.104  18.183  0.00  0.00    +0.000 HD
ATOM     13  H   UNL     1       8.834   4.240  20.355  0.00  0.00    +0.000 HD
ATOM     14  H   UNL     1       9.240   5.872  20.732  0.00  0.00    +0.000 HD
ENDBRANCH   2   6
ENDBRANCH   1   2
BRANCH   1  15
ATOM     15  C   UNL     1       4.434   3.272  16.966  0.00  0.00    +0.000 C 
BRANCH  15  16
ATOM     16  N   UNL     1       3.004   3.615  16.999  0.00  0.00    +0.000 N 
ATOM     17  H   UNL     1       2.467   3.066  16.334  0.00  0.00    +0.000 HD
BRANCH  16  18
ATOM     18  C   UNL     1       2.368   3.675  18.258  0.00  0.00    +0.000 A 
ATOM     19  C   UNL     1       1.996   2.501  18.921  0.00  0.00    +0.000 A 
ATOM     20  C   UNL     1       1.399   2.588  20.161  0.00  0.00    +0.000 A 
ATOM     21  N   UNL     1       1.178   3.746  20.807  0.00  0.00    +0.000 NA
ATOM     22  C   UNL     1       1.583   4.880  20.219  0.00  0.00    +0.000 A 
ATOM     23  C   UNL     1       1.381   6.060  20.919  0.00  0.00    +0.000 A 
ATOM     24  C   UNL     1       1.767   7.290  20.396  0.00  0.00    +0.000 A 
ATOM     25 CL   UNL     1       1.500   8.728  21.300  0.00  0.00    +0.000 Cl
ATOM     26  C   UNL     1       2.368   7.358  19.151  0.00  0.00    +0.000 A 
ATOM     27  C   UNL     1       2.587   6.183  18.430  0.00  0.00    +0.000 A 
ATOM     28  C   UNL     1       2.198   4.916  18.943  0.00  0.00    +0.000 A 
ENDBRANCH  16  18
ENDBRANCH  15  16
ENDBRANCH   1  15
TORSDOF 5
ENDMDL
MODEL 2
REMARK VINA RESULT:      -8.1      2.813      4.175
REMARK  Name = 
REMARK  5 active torsions:
REMARK  status: ('A' for Active; 'I' for Inactive)
REMARK    1  A    between atoms: C_4  and  O_5
REMARK    2  A    between atoms: O_5  and  C_6
REMARK    3  A    between atoms: C_6  and  C_7
REMARK    4  A    between atoms: C_7  and  N_8
REMARK    5  A    between atoms: N_8  and  C_9
REMARK                            x       y       z     vdW  Elec       q    Type
REMARK                         _______ _______ _______ _____ _____    ______ ____
ROOT
ATOM      1  C   UNL     1       3.473   4.471  19.596  0.00  0.00    +0.000 C 
ENDROOT
BRANCH   1   2
ATOM      2  O   UNL     1       4.157   3.769  18.551  0.00  0.00    +0.000 OA
BRANCH   2   6
ATOM      3  N   UNL     1       7.299   5.303  15.332  0.00  0.00    +0.000 N 
ATOM      4  C   UNL     1       6.869   5.122  16.646  0.00  0.00    +0.000 A 
ATOM      5  C   UNL     1       5.650   4.546  16.910  0.00  0.00    +0.000 A 
ATOM      6  C   UNL     1       5.365   4.367  18.239  0.00  0.00    +0.000 A 
ATOM      7  N   UNL     1       6.190   4.728  19.233  0.00  0.00    +0.000 NA
ATOM      8  C   UNL     1       7.341   5.286  18.869  0.00  0.00    +0.000 A 
ATOM      9  N   UNL     1       8.213   5.632  19.879  0.00  0.00    +0.000 N 
ATOM     10  N   UNL     1       7.727   5.484  17.608  0.00  0.00    +0.000 NA
ATOM     11  H   UNL     1       6.625   5.813  14.772  0.00  0.00    +0.000 HD
ATOM     12  H   UNL     1       8.197   5.781  15.368  0.00  0.00    +0.000 HD
ATOM     13  H   UNL     1       8.023   5.066  20.694  0.00  0.00    +0.000 HD
ATOM     14  H   UNL     1       9.160   5.623  19.525  0.00  0.00    +0.000 HD
ENDBRANCH   2   6
ENDBRANCH   1   2
BRANCH   1  15
ATOM     15  C   UNL     1       2.682   5.639  19.006  0.00  0.00    +0.000 C 
BRANCH  15  16
ATOM     16  N   UNL     1       2.472   6.680  20.024  0.00  0.00    +0.000 N 
ATOM     17  H   UNL     1       3.275   6.780  20.637  0.00  0.00    +0.000 HD
BRANCH  16  18
ATOM     18  C   UNL     1       1.986   7.935  19.595  0.00  0.00    +0.000 A 
ATOM     19  C   UNL     1       2.147   8.340  18.266  0.00  0.00    +0.000 A 
ATOM     20  C   UNL     1       1.642   9.560  17.868  0.00  0.00    +0.000 A 
ATOM     21  N   UNL     1       0.959  10.389  18.678  0.00  0.00    +0.000 NA
ATOM     22  C   UNL     1       0.738   9.994  19.938  0.00  0.00    +0.000 A 
ATOM     23  C   UNL     1      -0.002  10.846  20.746  0.00  0.00    +0.000 A 
ATOM     24  C   UNL     1      -0.286  10.527  22.069  0.00  0.00    +0.000 A 
ATOM     25 CL   UNL     1      -1.210  11.611  23.033  0.00  0.00    +0.000 Cl
ATOM     26  C   UNL     1       0.169   9.337  22.612  0.00  0.00    +0.000 A 
ATOM     27  C   UNL     1       0.911   8.461  21.817  0.00  0.00    +0.000 A 
ATOM     28  C   UNL     1       1.217   8.768  20.464  0.00  0.00    +0.000 A 
ENDBRANCH  16  18
ENDBRANCH  15  16
ENDBRANCH   1  15
TORSDOF 5
ENDMDL
MODEL 3
REMARK VINA RESULT:      -8.1      1.299      2.235
REMARK  Name = 
REMARK  5 active torsions:
REMARK  status: ('A' for Active; 'I' for Inactive)
REMARK    1  A    between atoms: C_4  and  O_5
REMARK    2  A    between atoms: O_5  and  C_6
REMARK    3  A    between atoms: C_6  and  C_7
REMARK    4  A    between atoms: C_7  and  N_8
REMARK    5  A    between atoms: N_8  and  C_9
REMARK                            x       y       z     vdW  Elec       q    Type
REMARK                         _______ _______ _______ _____ _____    ______ ____
ROOT
ATOM      1  C   UNL     1       6.842   4.798  15.363  0.00  0.00    +0.000 C 
ENDROOT
BRANCH   1   2
ATOM      2  O   UNL     1       6.326   6.042  15.850  0.00  0.00    +0.000 OA
BRANCH   2   6
ATOM      3  N   UNL     1       8.305   5.353  20.116  0.00  0.00    +0.000 N 
ATOM      4  C   UNL     1       8.024   6.140  19.000  0.00  0.00    +0.000 A 
ATOM      5  C   UNL     1       7.319   5.626  17.941  0.00  0.00    +0.000 A 
ATOM      6  C   UNL     1       7.055   6.512  16.929  0.00  0.00    +0.000 A 
ATOM      7  N   UNL     1       7.454   7.793  16.938  0.00  0.00    +0.000 NA
ATOM      8  C   UNL     1       8.139   8.188  18.007  0.00  0.00    +0.000 A 
ATOM      9  N   UNL     1       8.527   9.511  18.045  0.00  0.00    +0.000 N 
ATOM     10  N   UNL     1       8.429   7.416  19.056  0.00  0.00    +0.000 NA
ATOM     11  H   UNL     1       8.768   4.486  19.871  0.00  0.00    +0.000 HD
ATOM     12  H   UNL     1       8.868   5.915  20.752  0.00  0.00    +0.000 HD
ATOM     13  H   UNL     1       7.909  10.057  17.461  0.00  0.00    +0.000 HD
ATOM     14  H   UNL     1       8.628   9.805  19.008  0.00  0.00    +0.000 HD
ENDBRANCH   2   6
ENDBRANCH   1   2
BRANCH   1  15
ATOM     15  C   UNL     1       5.840   3.677  15.639  0.00  0.00    +0.000 C 
BRANCH  15  16
ATOM     16  N   UNL     1       4.517   4.240  15.956  0.00  0.00    +0.000 N 
ATOM     17  H   UNL     1       3.851   4.090  15.205  0.00  0.00    +0.000 HD
BRANCH  16  18
ATOM     18  C   UNL     1       3.957   3.938  17.217  0.00  0.00    +0.000 A 
ATOM     19  C   UNL     1       4.045   2.644  17.741  0.00  0.00    +0.000 A 
ATOM     20  C   UNL     1       3.510   2.383  18.985  0.00  0.00    +0.000 A 
ATOM     21  N   UNL     1       2.930   3.314  19.762  0.00  0.00    +0.000 NA
ATOM     22  C   UNL     1       2.890   4.574  19.308  0.00  0.00    +0.000 A 
ATOM     23  C   UNL     1       2.323   5.527  20.141  0.00  0.00    +0.000 A 
ATOM     24  C   UNL     1       2.235   6.862  19.763  0.00  0.00    +0.000 A 
ATOM     25 CL   UNL     1       1.526   8.011  20.829  0.00  0.00    +0.000 Cl
ATOM     26  C   UNL     1       2.720   7.271  18.532  0.00  0.00    +0.000 A 
ATOM     27  C   UNL     1       3.300   6.331  17.678  0.00  0.00    +0.000 A 
ATOM     28  C   UNL     1       3.397   4.960  18.042  0.00  0.00    +0.000 A 
ENDBRANCH  16  18
ENDBRANCH  15  16
ENDBRANCH   1  15
TORSDOF 5
ENDMDL
MODEL 4
REMARK VINA RESULT:      -8.1      0.568      1.689
REMARK  Name = 
REMARK  5 active torsions:
REMARK  status: ('A' for Active; 'I' for Inactive)
REMARK    1  A    between atoms: C_4  and  O_5
REMARK    2  A    between atoms: O_5  and  C_6
REMARK    3  A    between atoms: C_6  and  C_7
REMARK    4  A    between atoms: C_7  and  N_8
REMARK    5  A    between atoms: N_8  and  C_9
REMARK                            x       y       z     vdW  Elec       q    Type
REMARK                         _______ _______ _______ _____ _____    ______ ____
ROOT
ATOM      1  C   UNL     1       5.257   4.428  15.984  0.00  0.00    +0.000 C 
ENDROOT
BRANCH   1   2
ATOM      2  O   UNL     1       6.670   4.270  16.157  0.00  0.00    +0.000 OA
BRANCH   2   6
ATOM      3  N   UNL     1       8.411   5.262  20.467  0.00  0.00    +0.000 N 
ATOM      4  C   UNL     1       8.042   5.627  19.172  0.00  0.00    +0.000 A 
ATOM      5  C   UNL     1       7.564   4.688  18.291  0.00  0.00    +0.000 A 
ATOM      6  C   UNL     1       7.180   5.177  17.070  0.00  0.00    +0.000 A 
ATOM      7  N   UNL     1       7.263   6.471  16.725  0.00  0.00    +0.000 NA
ATOM      8  C   UNL     1       7.749   7.295  17.649  0.00  0.00    +0.000 A 
ATOM      9  N   UNL     1       7.809   8.633  17.321  0.00  0.00    +0.000 N 
ATOM     10  N   UNL     1       8.129   6.929  18.874  0.00  0.00    +0.000 NA
ATOM     11  H   UNL     1       9.084   4.504  20.478  0.00  0.00    +0.000 HD
ATOM     12  H   UNL     1       8.774   6.095  20.927  0.00  0.00    +0.000 HD
ATOM     13  H   UNL     1       7.128   8.832  16.601  0.00  0.00    +0.000 HD
ATOM     14  H   UNL     1       7.761   9.190  18.164  0.00  0.00    +0.000 HD
ENDBRANCH   2   6
ENDBRANCH   1   2
BRANCH   1  15
ATOM     15  C   UNL     1       4.513   3.369  16.799  0.00  0.00    +0.000 C 
BRANCH  15  16
ATOM     16  N   UNL     1       3.085   3.709  16.896  0.00  0.00    +0.000 N 
ATOM     17  H   UNL     1       2.527   3.199  16.218  0.00  0.00    +0.000 HD
BRANCH  16  18
ATOM     18  C   UNL     1       2.489   3.694  18.177  0.00  0.00    +0.000 A 
ATOM     19  C   UNL     1       2.212   2.483  18.816  0.00  0.00    +0.000 A 
ATOM     20  C   UNL     1       1.652   2.498  20.076  0.00  0.00    +0.000 A 
ATOM     21  N   UNL     1       1.382   3.622  20.762  0.00  0.00    +0.000 NA
ATOM     22  C   UNL     1       1.697   4.795  20.195  0.00  0.00    +0.000 A 
ATOM     23  C   UNL     1       1.446   5.941  20.936  0.00  0.00    +0.000 A 
ATOM     24  C   UNL     1       1.738   7.206  20.437  0.00  0.00    +0.000 A 
ATOM     25 CL   UNL     1       1.414   8.599  21.390  0.00  0.00    +0.000 Cl
ATOM     26  C   UNL     1       2.293   7.346  19.176  0.00  0.00    +0.000 A 
ATOM     27  C   UNL     1       2.560   6.206  18.414  0.00  0.00    +0.000 A 
ATOM     28  C   UNL     1       2.266   4.904  18.902  0.00  0.00    +0.000 A 
ENDBRANCH  16  18
ENDBRANCH  15  16
ENDBRANCH   1  15
TORSDOF 5
ENDMDL
MODEL 5
REMARK VINA RESULT:      -7.9      2.468      3.694
REMARK  Name = 
REMARK  5 active torsions:
REMARK  status: ('A' for Active; 'I' for Inactive)
REMARK    1  A    between atoms: C_4  and  O_5
REMARK    2  A    between atoms: O_5  and  C_6
REMARK    3  A    between atoms: C_6  and  C_7
REMARK    4  A    between atoms: C_7  and  N_8
REMARK    5  A    between atoms: N_8  and  C_9
REMARK                            x       y       z     vdW  Elec       q    Type
REMARK                         _______ _______ _______ _____ _____    ______ ____
ROOT
ATOM      1  C   UNL     1       3.949   4.392  19.170  0.00  0.00    +0.000 C 
ENDROOT
BRANCH   1   2
ATOM      2  O   UNL     1       4.581   4.856  17.972  0.00  0.00    +0.000 OA
BRANCH   2   6
ATOM      3  N   UNL     1       7.741   8.269  16.995  0.00  0.00    +0.000 N 
ATOM      4  C   UNL     1       7.287   7.189  17.751  0.00  0.00    +0.000 A 
ATOM      5  C   UNL     1       6.084   6.592  17.465  0.00  0.00    +0.000 A 
ATOM      6  C   UNL     1       5.774   5.504  18.240  0.00  0.00    +0.000 A 
ATOM      7  N   UNL     1       6.561   5.040  19.221  0.00  0.00    +0.000 NA
ATOM      8  C   UNL     1       7.700   5.697  19.423  0.00  0.00    +0.000 A 
ATOM      9  N   UNL     1       8.535   5.210  20.406  0.00  0.00    +0.000 N 
ATOM     10  N   UNL     1       8.109   6.749  18.713  0.00  0.00    +0.000 NA
ATOM     11  H   UNL     1       7.063   9.021  16.949  0.00  0.00    +0.000 HD
ATOM     12  H   UNL     1       8.621   8.579  17.404  0.00  0.00    +0.000 HD
ATOM     13  H   UNL     1       8.345   4.228  20.550  0.00  0.00    +0.000 HD
ATOM     14  H   UNL     1       9.490   5.468  20.196  0.00  0.00    +0.000 HD
ENDBRANCH   2   6
ENDBRANCH   1   2
BRANCH   1  15
ATOM     15  C   UNL     1       2.607   5.100  19.358  0.00  0.00    +0.000 C 
BRANCH  15  16
ATOM     16  N   UNL     1       2.790   6.351  20.111  0.00  0.00    +0.000 N 
ATOM     17  H   UNL     1       3.754   6.482  20.400  0.00  0.00    +0.000 HD
BRANCH  16  18
ATOM     18  C   UNL     1       2.244   7.535  19.567  0.00  0.00    +0.000 A 
ATOM     19  C   UNL     1       2.374   7.814  18.203  0.00  0.00    +0.000 A 
ATOM     20  C   UNL     1       1.810   8.965  17.694  0.00  0.00    +0.000 A 
ATOM     21  N   UNL     1       1.098   9.838  18.428  0.00  0.00    +0.000 NA
ATOM     22  C   UNL     1       0.907   9.560  19.724  0.00  0.00    +0.000 A 
ATOM     23  C   UNL     1       0.137  10.454  20.454  0.00  0.00    +0.000 A 
ATOM     24  C   UNL     1      -0.120  10.255  21.806  0.00  0.00    +0.000 A 
ATOM     25 CL   UNL     1      -1.082  11.386  22.672  0.00  0.00    +0.000 Cl
ATOM     26  C   UNL     1       0.394   9.145  22.457  0.00  0.00    +0.000 A 
ATOM     27  C   UNL     1       1.167   8.229  21.742  0.00  0.00    +0.000 A 
ATOM     28  C   UNL     1       1.446   8.414  20.360  0.00  0.00    +0.000 A 
ENDBRANCH  16  18
ENDBRANCH  15  16
ENDBRANCH   1  15
TORSDOF 5
ENDMDL
MODEL 6
REMARK VINA RESULT:      -7.8      2.876      4.390
REMARK  Name = 
REMARK  5 active torsions:
REMARK  status: ('A' for Active; 'I' for Inactive)
REMARK    1  A    between atoms: C_4  and  O_5
REMARK    2  A    between atoms: O_5  and  C_6
REMARK    3  A    between atoms: C_6  and  C_7
REMARK    4  A    between atoms: C_7  and  N_8
REMARK    5  A    between atoms: N_8  and  C_9
REMARK                            x       y       z     vdW  Elec       q    Type
REMARK                         _______ _______ _______ _____ _____    ______ ____
ROOT
ATOM      1  C   UNL     1       3.180   4.644  19.048  0.00  0.00    +0.000 C 
ENDROOT
BRANCH   1   2
ATOM      2  O   UNL     1       3.672   5.359  17.909  0.00  0.00    +0.000 OA
BRANCH   2   6
ATOM      3  N   UNL     1       7.985   5.474  19.903  0.00  0.00    +0.000 N 
ATOM      4  C   UNL     1       7.137   5.314  18.808  0.00  0.00    +0.000 A 
ATOM      5  C   UNL     1       5.775   5.385  18.962  0.00  0.00    +0.000 A 
ATOM      6  C   UNL     1       5.050   5.271  17.805  0.00  0.00    +0.000 A 
ATOM      7  N   UNL     1       5.601   5.089  16.595  0.00  0.00    +0.000 NA
ATOM      8  C   UNL     1       6.928   5.024  16.558  0.00  0.00    +0.000 A 
ATOM      9  N   UNL     1       7.510   4.871  15.317  0.00  0.00    +0.000 N 
ATOM     10  N   UNL     1       7.729   5.147  17.618  0.00  0.00    +0.000 NA
ATOM     11  H   UNL     1       7.760   4.842  20.663  0.00  0.00    +0.000 HD
ATOM     12  H   UNL     1       8.939   5.341  19.573  0.00  0.00    +0.000 HD
ATOM     13  H   UNL     1       6.881   5.219  14.607  0.00  0.00    +0.000 HD
ATOM     14  H   UNL     1       8.444   5.259  15.332  0.00  0.00    +0.000 HD
ENDBRANCH   2   6
ENDBRANCH   1   2
BRANCH   1  15
ATOM     15  C   UNL     1       2.111   5.473  19.760  0.00  0.00    +0.000 C 
BRANCH  15  16
ATOM     16  N   UNL     1       2.656   6.783  20.150  0.00  0.00    +0.000 N 
ATOM     17  H   UNL     1       3.662   6.830  20.018  0.00  0.00    +0.000 HD
BRANCH  16  18
ATOM     18  C   UNL     1       2.012   7.940  19.658  0.00  0.00    +0.000 A 
ATOM     19  C   UNL     1       2.044   8.242  18.293  0.00  0.00    +0.000 A 
ATOM     20  C   UNL     1       1.385   9.365  17.836  0.00  0.00    +0.000 A 
ATOM     21  N   UNL     1       0.668  10.186  18.624  0.00  0.00    +0.000 NA
ATOM     22  C   UNL     1       0.571   9.881  19.925  0.00  0.00    +0.000 A 
ATOM     23  C   UNL     1      -0.204  10.719  20.712  0.00  0.00    +0.000 A 
ATOM     24  C   UNL     1      -0.369  10.488  22.074  0.00  0.00    +0.000 A 
ATOM     25 CL   UNL     1      -1.342  11.551  23.012  0.00  0.00    +0.000 Cl
ATOM     26  C   UNL     1       0.246   9.403  22.676  0.00  0.00    +0.000 A 
ATOM     27  C   UNL     1       1.027   8.543  21.902  0.00  0.00    +0.000 A 
ATOM     28  C   UNL     1       1.213   8.761  20.510  0.00  0.00    +0.000 A 
ENDBRANCH  16  18
ENDBRANCH  15  16
ENDBRANCH   1  15
TORSDOF 5
ENDMDL
MODEL 7
REMARK VINA RESULT:      -7.7      3.019      4.551
REMARK  Name = 
REMARK  5 active torsions:
REMARK  status: ('A' for Active; 'I' for Inactive)
REMARK    1  A    between atoms: C_4  and  O_5
REMARK    2  A    between atoms: O_5  and  C_6
REMARK    3  A    between atoms: C_6  and  C_7
REMARK    4  A    between atoms: C_7  and  N_8
REMARK    5  A    between atoms: N_8  and  C_9
REMARK                            x       y       z     vdW  Elec       q    Type
REMARK                         _______ _______ _______ _____ _____    ______ ____
ROOT
ATOM      1  C   UNL     1       3.776   5.071  18.981  0.00  0.00    +0.000 C 
ENDROOT
BRANCH   1   2
ATOM      2  O   UNL     1       3.696   4.517  17.663  0.00  0.00    +0.000 OA
BRANCH   2   6
ATOM      3  N   UNL     1       7.642   7.060  16.919  0.00  0.00    +0.000 N 
ATOM      4  C   UNL     1       6.764   6.024  16.600  0.00  0.00    +0.000 A 
ATOM      5  C   UNL     1       5.655   5.784  17.373  0.00  0.00    +0.000 A 
ATOM      6  C   UNL     1       4.839   4.779  16.927  0.00  0.00    +0.000 A 
ATOM      7  N   UNL     1       5.083   4.055  15.824  0.00  0.00    +0.000 NA
ATOM      8  C   UNL     1       6.189   4.362  15.152  0.00  0.00    +0.000 A 
ATOM      9  N   UNL     1       6.435   3.648  13.998  0.00  0.00    +0.000 N 
ATOM     10  N   UNL     1       7.038   5.335  15.485  0.00  0.00    +0.000 NA
ATOM     11  H   UNL     1       7.978   7.002  17.873  0.00  0.00    +0.000 HD
ATOM     12  H   UNL     1       8.407   7.029  16.247  0.00  0.00    +0.000 HD
ATOM     13  H   UNL     1       5.564   3.285  13.637  0.00  0.00    +0.000 HD
ATOM     14  H   UNL     1       6.996   4.208  13.369  0.00  0.00    +0.000 HD
ENDBRANCH   2   6
ENDBRANCH   1   2
BRANCH   1  15
ATOM     15  C   UNL     1       2.396   5.557  19.425  0.00  0.00    +0.000 C 
BRANCH  15  16
ATOM     16  N   UNL     1       2.521   6.770  20.247  0.00  0.00    +0.000 N 
ATOM     17  H   UNL     1       3.473   6.914  20.570  0.00  0.00    +0.000 HD
BRANCH  16  18
ATOM     18  C   UNL     1       1.953   7.965  19.752  0.00  0.00    +0.000 A 
ATOM     19  C   UNL     1       2.066   8.295  18.398  0.00  0.00    +0.000 A 
ATOM     20  C   UNL     1       1.481   9.456  17.937  0.00  0.00    +0.000 A 
ATOM     21  N   UNL     1       0.764  10.292  18.708  0.00  0.00    +0.000 NA
ATOM     22  C   UNL     1       0.589   9.964  19.995  0.00  0.00    +0.000 A 
ATOM     23  C   UNL     1      -0.186  10.819  20.764  0.00  0.00    +0.000 A 
ATOM     24  C   UNL     1      -0.428  10.567  22.111  0.00  0.00    +0.000 A 
ATOM     25 CL   UNL     1      -1.398  11.653  23.026  0.00  0.00    +0.000 Cl
ATOM     26  C   UNL     1       0.108   9.442  22.715  0.00  0.00    +0.000 A 
ATOM     27  C   UNL     1       0.887   8.564  21.960  0.00  0.00    +0.000 A 
ATOM     28  C   UNL     1       1.151   8.804  20.584  0.00  0.00    +0.000 A 
ENDBRANCH  16  18
ENDBRANCH  15  16
ENDBRANCH   1  15
TORSDOF 5
ENDMDL
MODEL 8
REMARK VINA RESULT:      -7.6      1.469      1.951
REMARK  Name = 
REMARK  5 active torsions:
REMARK  status: ('A' for Active; 'I' for Inactive)
REMARK    1  A    between atoms: C_4  and  O_5
REMARK    2  A    between atoms: O_5  and  C_6
REMARK    3  A    between atoms: C_6  and  C_7
REMARK    4  A    between atoms: C_7  and  N_8
REMARK    5  A    between atoms: N_8  and  C_9
REMARK                            x       y       z     vdW  Elec       q    Type
REMARK                         _______ _______ _______ _____ _____    ______ ____
ROOT
ATOM      1  C   UNL     1       5.237   4.204  16.030  0.00  0.00    +0.000 C 
ENDROOT
BRANCH   1   2
ATOM      2  O   UNL     1       6.609   3.975  16.371  0.00  0.00    +0.000 OA
BRANCH   2   6
ATOM      3  N   UNL     1       7.737   8.510  17.240  0.00  0.00    +0.000 N 
ATOM      4  C   UNL     1       7.619   7.173  17.621  0.00  0.00    +0.000 A 
ATOM      5  C   UNL     1       7.107   6.240  16.754  0.00  0.00    +0.000 A 
ATOM      6  C   UNL     1       7.096   4.952  17.221  0.00  0.00    +0.000 A 
ATOM      7  N   UNL     1       7.535   4.598  18.438  0.00  0.00    +0.000 NA
ATOM      8  C   UNL     1       8.003   5.579  19.204  0.00  0.00    +0.000 A 
ATOM      9  N   UNL     1       8.488   5.225  20.444  0.00  0.00    +0.000 N 
ATOM     10  N   UNL     1       8.081   6.860  18.839  0.00  0.00    +0.000 NA
ATOM     11  H   UNL     1       6.861   8.895  16.905  0.00  0.00    +0.000 HD
ATOM     12  H   UNL     1       8.094   9.026  18.042  0.00  0.00    +0.000 HD
ATOM     13  H   UNL     1       8.773   4.255  20.428  0.00  0.00    +0.000 HD
ATOM     14  H   UNL     1       9.180   5.901  20.742  0.00  0.00    +0.000 HD
ENDBRANCH   2   6
ENDBRANCH   1   2
BRANCH   1  15
ATOM     15  C   UNL     1       4.399   4.329  17.302  0.00  0.00    +0.000 C 
BRANCH  15  16
ATOM     16  N   UNL     1       3.795   5.668  17.388  0.00  0.00    +0.000 N 
ATOM     17  H   UNL     1       3.307   5.919  16.533  0.00  0.00    +0.000 HD
BRANCH  16  18
ATOM     18  C   UNL     1       3.030   5.976  18.534  0.00  0.00    +0.000 A 
ATOM     19  C   UNL     1       2.922   5.056  19.582  0.00  0.00    +0.000 A 
ATOM     20  C   UNL     1       2.188   5.392  20.700  0.00  0.00    +0.000 A 
ATOM     21  N   UNL     1       1.587   6.582  20.873  0.00  0.00    +0.000 NA
ATOM     22  C   UNL     1       1.728   7.502  19.909  0.00  0.00    +0.000 A 
ATOM     23  C   UNL     1       1.132   8.736  20.124  0.00  0.00    +0.000 A 
ATOM     24  C   UNL     1       1.222   9.759  19.185  0.00  0.00    +0.000 A 
ATOM     25 CL   UNL     1       0.471  11.274  19.493  0.00  0.00    +0.000 Cl
ATOM     26  C   UNL     1       1.918   9.561  18.004  0.00  0.00    +0.000 A 
ATOM     27  C   UNL     1       2.531   8.329  17.769  0.00  0.00    +0.000 A 
ATOM     28  C   UNL     1       2.449   7.268  18.712  0.00  0.00    +0.000 A 
ENDBRANCH  16  18
ENDBRANCH  15  16
ENDBRANCH   1  15
TORSDOF 5
ENDMDL
MODEL 9
REMARK VINA RESULT:      -7.6      1.211      1.449
REMARK  Name = 
REMARK  5 active torsions:
REMARK  status: ('A' for Active; 'I' for Inactive)
REMARK    1  A    between atoms: C_4  and  O_5
REMARK    2  A    between atoms: O_5  and  C_6
REMARK    3  A    between atoms: C_6  and  C_7
REMARK    4  A    between atoms: C_7  and  N_8
REMARK    5  A    between atoms: N_8  and  C_9
REMARK                            x       y       z     vdW  Elec       q    Type
REMARK                         _______ _______ _______ _____ _____    ______ ____
ROOT
ATOM      1  C   UNL     1       6.894   4.510  15.673  0.00  0.00    +0.000 C 
ENDROOT
BRANCH   1   2
ATOM      2  O   UNL     1       6.508   5.864  15.933  0.00  0.00    +0.000 OA
BRANCH   2   6
ATOM      3  N   UNL     1       8.582   9.488  18.205  0.00  0.00    +0.000 N 
ATOM      4  C   UNL     1       8.143   8.166  18.135  0.00  0.00    +0.000 A 
ATOM      5  C   UNL     1       7.483   7.706  17.021  0.00  0.00    +0.000 A 
ATOM      6  C   UNL     1       7.154   6.377  17.045  0.00  0.00    +0.000 A 
ATOM      7  N   UNL     1       7.431   5.559  18.072  0.00  0.00    +0.000 NA
ATOM      8  C   UNL     1       8.063   6.106  19.105  0.00  0.00    +0.000 A 
ATOM      9  N   UNL     1       8.384   5.270  20.154  0.00  0.00    +0.000 N 
ATOM     10  N   UNL     1       8.450   7.381  19.175  0.00  0.00    +0.000 NA
ATOM     11  H   UNL     1       7.836  10.152  18.032  0.00  0.00    +0.000 HD
ATOM     12  H   UNL     1       9.000   9.621  19.125  0.00  0.00    +0.000 HD
ATOM     13  H   UNL     1       8.442   4.319  19.818  0.00  0.00    +0.000 HD
ATOM     14  H   UNL     1       9.192   5.635  20.641  0.00  0.00    +0.000 HD
ENDBRANCH   2   6
ENDBRANCH   1   2
BRANCH   1  15
ATOM     15  C   UNL     1       5.651   3.623  15.591  0.00  0.00    +0.000 C 
BRANCH  15  16
ATOM     16  N   UNL     1       4.459   4.372  16.019  0.00  0.00    +0.000 N 
ATOM     17  H   UNL     1       3.765   4.436  15.280  0.00  0.00    +0.000 HD
BRANCH  16  18
ATOM     18  C   UNL     1       3.871   4.026  17.256  0.00  0.00    +0.000 A 
ATOM     19  C   UNL     1       3.931   2.711  17.726  0.00  0.00    +0.000 A 
ATOM     20  C   UNL     1       3.370   2.407  18.949  0.00  0.00    +0.000 A 
ATOM     21  N   UNL     1       2.790   3.314  19.754  0.00  0.00    +0.000 NA
ATOM     22  C   UNL     1       2.777   4.592  19.353  0.00  0.00    +0.000 A 
ATOM     23  C   UNL     1       2.209   5.518  20.216  0.00  0.00    +0.000 A 
ATOM     24  C   UNL     1       2.147   6.869  19.892  0.00  0.00    +0.000 A 
ATOM     25 CL   UNL     1       1.437   7.983  20.993  0.00  0.00    +0.000 Cl
ATOM     26  C   UNL     1       2.660   7.321  18.687  0.00  0.00    +0.000 A 
ATOM     27  C   UNL     1       3.242   6.408  17.806  0.00  0.00    +0.000 A 
ATOM     28  C   UNL     1       3.312   5.022  18.113  0.00  0.00    +0.000 A 
ENDBRANCH  16  18
ENDBRANCH  15  16
ENDBRANCH   1  15
TORSDOF 5
ENDMDL
