MODEL 1
REMARK VINA RESULT:      -7.5      0.000      0.000
REMARK  Name = 
REMARK  7 active torsions:
REMARK  status: ('A' for Active; 'I' for Inactive)
REMARK    1  A    between atoms: C_1  and  C_2
REMARK    2  A    between atoms: C_2  and  C_3
REMARK    3  A    between atoms: C_2  and  C_4
REMARK    4  A    between atoms: C_6  and  N_7
REMARK    5  A    between atoms: N_7  and  C_8
REMARK    6  A    between atoms: N_7  and  C_9
REMARK    7  A    between atoms: C_9  and  C_10
REMARK                            x       y       z     vdW  Elec       q    Type
REMARK                         _______ _______ _______ _____ _____    ______ ____
ROOT
ATOM      1  C   UNL     1       6.192   3.667  13.063  0.00  0.00    +0.000 A 
ATOM      2  C   UNL     1       5.796   3.817  14.378  0.00  0.00    +0.000 A 
ATOM      3  C   UNL     1       6.477   4.719  15.173  0.00  0.00    +0.000 A 
ATOM      4  N   UNL     1       7.508   5.406  14.653  0.00  0.00    +0.000 NA
ATOM      5  C   UNL     1       7.810   5.234  13.362  0.00  0.00    +0.000 A 
ATOM      6  N   UNL     1       8.817   6.024  12.831  0.00  0.00    +0.000 N 
ATOM      7  N   UNL     1       7.185   4.401  12.533  0.00  0.00    +0.000 NA
ATOM      8  H   UNL     1       8.859   6.895  13.338  0.00  0.00    +0.000 HD
ATOM      9  H   UNL     1       8.678   6.087  11.830  0.00  0.00    +0.000 HD
ENDROOT
BRANCH   1  11
ATOM     10  C   UNL     1       4.358   3.406  11.391  0.00  0.00    +0.000 C 
ATOM     11  C   UNL     1       5.456   2.684  12.174  0.00  0.00    +0.000 C 
ATOM     12  C   UNL     1       6.388   1.924  11.231  0.00  0.00    +0.000 C 
ENDBRANCH   1  11
BRANCH   3  13
ATOM     13  N   UNL     1       6.153   4.891  16.510  0.00  0.00    +0.000 N 
ATOM     14  C   UNL     1       7.095   4.619  17.582  0.00  0.00    +0.000 C 
BRANCH  13  15
ATOM     15  C   UNL     1       4.767   5.201  16.865  0.00  0.00    +0.000 C 
BRANCH  15  16
ATOM     16  C   UNL     1       4.110   4.210  17.789  0.00  0.00    +0.000 A 
ATOM     17  C   UNL     1       3.842   2.891  17.406  0.00  0.00    +0.000 A 
ATOM     18  C   UNL     1       3.280   2.004  18.324  0.00  0.00    +0.000 A 
ATOM     19  C   UNL     1       3.000   2.464  19.599  0.00  0.00    +0.000 A 
ATOM     20  N   UNL     1       3.250   3.723  20.011  0.00  0.00    +0.000 NA
ATOM     21  C   UNL     1       3.797   4.562  19.099  0.00  0.00    +0.000 A 
ENDBRANCH  15  16
ENDBRANCH  13  15
ENDBRANCH   3  13
TORSDOF 4
ENDMDL
MODEL 2
REMARK VINA RESULT:      -7.5      1.664      3.102
REMARK  Name = 
REMARK  7 active torsions:
REMARK  status: ('A' for Active; 'I' for Inactive)
REMARK    1  A    between atoms: C_1  and  C_2
REMARK    2  A    between atoms: C_2  and  C_3
REMARK    3  A    between atoms: C_2  and  C_4
REMARK    4  A    between atoms: C_6  and  N_7
REMARK    5  A    between atoms: N_7  and  C_8
REMARK    6  A    between atoms: N_7  and  C_9
REMARK    7  A    between atoms: C_9  and  C_10
REMARK                            x       y       z     vdW  Elec       q    Type
REMARK                         _______ _______ _______ _____ _____    ______ ____
ROOT
ATOM      1  C   UNL     1       6.353   4.695  14.936  0.00  0.00    +0.000 A 
ATOM      2  C   UNL     1       5.076   4.824  15.448  0.00  0.00    +0.000 A 
ATOM      3  C   UNL     1       4.902   4.729  16.816  0.00  0.00    +0.000 A 
ATOM      4  N   UNL     1       5.968   4.499  17.600  0.00  0.00    +0.000 NA
ATOM      5  C   UNL     1       7.178   4.421  17.035  0.00  0.00    +0.000 A 
ATOM      6  N   UNL     1       8.268   4.276  17.877  0.00  0.00    +0.000 N 
ATOM      7  N   UNL     1       7.422   4.525  15.730  0.00  0.00    +0.000 NA
ATOM      8  H   UNL     1       8.057   4.696  18.770  0.00  0.00    +0.000 HD
ATOM      9  H   UNL     1       9.090   4.620  17.397  0.00  0.00    +0.000 HD
ENDROOT
BRANCH   1  11
ATOM     10  C   UNL     1       7.997   5.242  13.140  0.00  0.00    +0.000 C 
ATOM     11  C   UNL     1       6.564   4.798  13.437  0.00  0.00    +0.000 C 
ATOM     12  C   UNL     1       6.231   3.502  12.701  0.00  0.00    +0.000 C 
ENDBRANCH   1  11
BRANCH   3  13
ATOM     13  N   UNL     1       3.643   4.814  17.390  0.00  0.00    +0.000 N 
ATOM     14  C   UNL     1       3.107   6.059  17.913  0.00  0.00    +0.000 C 
BRANCH  13  15
ATOM     15  C   UNL     1       2.891   3.581  17.626  0.00  0.00    +0.000 C 
BRANCH  15  16
ATOM     16  C   UNL     1       2.577   3.294  19.071  0.00  0.00    +0.000 A 
ATOM     17  C   UNL     1       1.283   3.402  19.593  0.00  0.00    +0.000 A 
ATOM     18  C   UNL     1       1.044   3.072  20.927  0.00  0.00    +0.000 A 
ATOM     19  C   UNL     1       2.110   2.646  21.701  0.00  0.00    +0.000 A 
ATOM     20  N   UNL     1       3.369   2.520  21.236  0.00  0.00    +0.000 NA
ATOM     21  C   UNL     1       3.571   2.846  19.937  0.00  0.00    +0.000 A 
ENDBRANCH  15  16
ENDBRANCH  13  15
ENDBRANCH   3  13
TORSDOF 4
ENDMDL
MODEL 3
REMARK VINA RESULT:      -7.4      1.004      1.157
REMARK  Name = 
REMARK  7 active torsions:
REMARK  status: ('A' for Active; 'I' for Inactive)
REMARK    1  A    between atoms: C_1  and  C_2
REMARK    2  A    between atoms: C_2  and  C_3
REMARK    3  A    between atoms: C_2  and  C_4
REMARK    4  A    between atoms: C_6  and  N_7
REMARK    5  A    between atoms: N_7  and  C_8
REMARK    6  A    between atoms: N_7  and  C_9
REMARK    7  A    between atoms: C_9  and  C_10
REMARK                            x       y       z     vdW  Elec       q    Type
REMARK                         _______ _______ _______ _____ _____    ______ ____
ROOT
ATOM      1  C   UNL     1       6.090   3.702  13.039  0.00  0.00    +0.000 A 
ATOM      2  C   UNL     1       5.493   3.992  14.251  0.00  0.00    +0.000 A 
ATOM      3  C   UNL     1       6.083   4.942  15.065  0.00  0.00    +0.000 A 
ATOM      4  N   UNL     1       7.218   5.538  14.664  0.00  0.00    +0.000 NA
ATOM      5  C   UNL     1       7.716   5.231  13.462  0.00  0.00    +0.000 A 
ATOM      6  N   UNL     1       8.835   5.929  13.037  0.00  0.00    +0.000 N 
ATOM      7  N   UNL     1       7.191   4.345  12.618  0.00  0.00    +0.000 NA
ATOM      8  H   UNL     1       8.839   6.843  13.464  0.00  0.00    +0.000 HD
ATOM      9  H   UNL     1       8.863   5.901  12.025  0.00  0.00    +0.000 HD
ENDROOT
BRANCH   1  11
ATOM     10  C   UNL     1       4.328   3.299  11.318  0.00  0.00    +0.000 C 
ATOM     11  C   UNL     1       5.457   2.664  12.131  0.00  0.00    +0.000 C 
ATOM     12  C   UNL     1       6.472   1.980  11.217  0.00  0.00    +0.000 C 
ENDBRANCH   1  11
BRANCH   3  13
ATOM     13  N   UNL     1       5.555   5.254  16.308  0.00  0.00    +0.000 N 
ATOM     14  C   UNL     1       5.368   6.624  16.755  0.00  0.00    +0.000 C 
BRANCH  13  15
ATOM     15  C   UNL     1       5.327   4.173  17.268  0.00  0.00    +0.000 C 
BRANCH  15  16
ATOM     16  C   UNL     1       3.997   4.220  17.975  0.00  0.00    +0.000 A 
ATOM     17  C   UNL     1       2.788   3.981  17.313  0.00  0.00    +0.000 A 
ATOM     18  C   UNL     1       1.592   3.986  18.031  0.00  0.00    +0.000 A 
ATOM     19  C   UNL     1       1.643   4.234  19.393  0.00  0.00    +0.000 A 
ATOM     20  N   UNL     1       2.786   4.461  20.070  0.00  0.00    +0.000 NA
ATOM     21  C   UNL     1       3.931   4.449  19.347  0.00  0.00    +0.000 A 
ENDBRANCH  15  16
ENDBRANCH  13  15
ENDBRANCH   3  13
TORSDOF 4
ENDMDL
MODEL 4
REMARK VINA RESULT:      -7.3      1.051      1.768
REMARK  Name = 
REMARK  7 active torsions:
REMARK  status: ('A' for Active; 'I' for Inactive)
REMARK    1  A    between atoms: C_1  and  C_2
REMARK    2  A    between atoms: C_2  and  C_3
REMARK    3  A    between atoms: C_2  and  C_4
REMARK    4  A    between atoms: C_6  and  N_7
REMARK    5  A    between atoms: N_7  and  C_8
REMARK    6  A    between atoms: N_7  and  C_9
REMARK    7  A    between atoms: C_9  and  C_10
REMARK                            x       y       z     vdW  Elec       q    Type
REMARK                         _______ _______ _______ _____ _____    ______ ____
ROOT
ATOM      1  C   UNL     1       6.205   3.593  13.045  0.00  0.00    +0.000 A 
ATOM      2  C   UNL     1       5.836   3.635  14.376  0.00  0.00    +0.000 A 
ATOM      3  C   UNL     1       6.512   4.496  15.221  0.00  0.00    +0.000 A 
ATOM      4  N   UNL     1       7.512   5.248  14.731  0.00  0.00    +0.000 NA
ATOM      5  C   UNL     1       7.788   5.180  13.424  0.00  0.00    +0.000 A 
ATOM      6  N   UNL     1       8.760   6.034  12.931  0.00  0.00    +0.000 N 
ATOM      7  N   UNL     1       7.165   4.392  12.550  0.00  0.00    +0.000 NA
ATOM      8  H   UNL     1       8.791   6.867  13.500  0.00  0.00    +0.000 HD
ATOM      9  H   UNL     1       8.596   6.167  11.941  0.00  0.00    +0.000 HD
ENDROOT
BRANCH   1  11
ATOM     10  C   UNL     1       4.371   3.415  11.362  0.00  0.00    +0.000 C 
ATOM     11  C   UNL     1       5.474   2.657  12.102  0.00  0.00    +0.000 C 
ATOM     12  C   UNL     1       6.410   1.958  11.118  0.00  0.00    +0.000 C 
ENDBRANCH   1  11
BRANCH   3  13
ATOM     13  N   UNL     1       6.215   4.560  16.573  0.00  0.00    +0.000 N 
ATOM     14  C   UNL     1       7.191   4.972  17.567  0.00  0.00    +0.000 C 
BRANCH  13  15
ATOM     15  C   UNL     1       4.927   4.044  17.037  0.00  0.00    +0.000 C 
BRANCH  15  16
ATOM     16  C   UNL     1       4.137   4.990  17.903  0.00  0.00    +0.000 A 
ATOM     17  C   UNL     1       3.729   6.251  17.457  0.00  0.00    +0.000 A 
ATOM     18  C   UNL     1       2.954   7.063  18.285  0.00  0.00    +0.000 A 
ATOM     19  C   UNL     1       2.613   6.587  19.540  0.00  0.00    +0.000 A 
ATOM     20  N   UNL     1       2.978   5.377  20.006  0.00  0.00    +0.000 NA
ATOM     21  C   UNL     1       3.729   4.610  19.179  0.00  0.00    +0.000 A 
ENDBRANCH  15  16
ENDBRANCH  13  15
ENDBRANCH   3  13
TORSDOF 4
ENDMDL
MODEL 5
REMARK VINA RESULT:      -7.3      1.789      3.058
REMARK  Name = 
REMARK  7 active torsions:
REMARK  status: ('A' for Active; 'I' for Inactive)
REMARK    1  A    between atoms: C_1  and  C_2
REMARK    2  A    between atoms: C_2  and  C_3
REMARK    3  A    between atoms: C_2  and  C_4
REMARK    4  A    between atoms: C_6  and  N_7
REMARK    5  A    between atoms: N_7  and  C_8
REMARK    6  A    between atoms: N_7  and  C_9
REMARK    7  A    between atoms: C_9  and  C_10
REMARK                            x       y       z     vdW  Elec       q    Type
REMARK                         _______ _______ _______ _____ _____    ______ ____
ROOT
ATOM      1  C   UNL     1       6.429   5.033  15.184  0.00  0.00    +0.000 A 
ATOM      2  C   UNL     1       5.184   4.787  15.730  0.00  0.00    +0.000 A 
ATOM      3  C   UNL     1       4.808   5.491  16.858  0.00  0.00    +0.000 A 
ATOM      4  N   UNL     1       5.664   6.376  17.398  0.00  0.00    +0.000 NA
ATOM      5  C   UNL     1       6.837   6.587  16.792  0.00  0.00    +0.000 A 
ATOM      6  N   UNL     1       7.659   7.570  17.317  0.00  0.00    +0.000 N 
ATOM      7  N   UNL     1       7.256   5.962  15.693  0.00  0.00    +0.000 NA
ATOM      8  H   UNL     1       7.092   8.271  17.770  0.00  0.00    +0.000 HD
ATOM      9  H   UNL     1       8.279   7.892  16.585  0.00  0.00    +0.000 HD
ENDROOT
BRANCH   1  11
ATOM     10  C   UNL     1       5.633   3.719  13.218  0.00  0.00    +0.000 C 
ATOM     11  C   UNL     1       6.859   4.272  13.945  0.00  0.00    +0.000 C 
ATOM     12  C   UNL     1       7.720   5.112  13.003  0.00  0.00    +0.000 C 
ENDBRANCH   1  11
BRANCH   3  13
ATOM     13  N   UNL     1       3.587   5.266  17.475  0.00  0.00    +0.000 N 
ATOM     14  C   UNL     1       2.849   6.319  18.151  0.00  0.00    +0.000 C 
BRANCH  13  15
ATOM     15  C   UNL     1       3.099   3.891  17.592  0.00  0.00    +0.000 C 
BRANCH  15  16
ATOM     16  C   UNL     1       2.607   3.505  18.962  0.00  0.00    +0.000 A 
ATOM     17  C   UNL     1       1.251   3.522  19.305  0.00  0.00    +0.000 A 
ATOM     18  C   UNL     1       0.851   3.103  20.573  0.00  0.00    +0.000 A 
ATOM     19  C   UNL     1       1.823   2.682  21.465  0.00  0.00    +0.000 A 
ATOM     20  N   UNL     1       3.138   2.643  21.174  0.00  0.00    +0.000 NA
ATOM     21  C   UNL     1       3.497   3.054  19.934  0.00  0.00    +0.000 A 
ENDBRANCH  15  16
ENDBRANCH  13  15
ENDBRANCH   3  13
TORSDOF 4
ENDMDL
MODEL 6
REMARK VINA RESULT:      -7.3      0.647      1.110
REMARK  Name = 
REMARK  7 active torsions:
REMARK  status: ('A' for Active; 'I' for Inactive)
REMARK    1  A    between atoms: C_1  and  C_2
REMARK    2  A    between atoms: C_2  and  C_3
REMARK    3  A    between atoms: C_2  and  C_4
REMARK    4  A    between atoms: C_6  and  N_7
REMARK    5  A    between atoms: N_7  and  C_8
REMARK    6  A    between atoms: N_7  and  C_9
REMARK    7  A    between atoms: C_9  and  C_10
REMARK                            x       y       z     vdW  Elec       q    Type
REMARK                         _______ _______ _______ _____ _____    ______ ____
ROOT
ATOM      1  C   UNL     1       6.188   3.628  12.956  0.00  0.00    +0.000 A 
ATOM      2  C   UNL     1       5.828   3.796  14.279  0.00  0.00    +0.000 A 
ATOM      3  C   UNL     1       6.500   4.742  15.030  0.00  0.00    +0.000 A 
ATOM      4  N   UNL     1       7.488   5.454  14.461  0.00  0.00    +0.000 NA
ATOM      5  C   UNL     1       7.755   5.261  13.165  0.00  0.00    +0.000 A 
ATOM      6  N   UNL     1       8.713   6.074  12.582  0.00  0.00    +0.000 N 
ATOM      7  N   UNL     1       7.135   4.385  12.377  0.00  0.00    +0.000 NA
ATOM      8  H   UNL     1       8.739   6.958  13.067  0.00  0.00    +0.000 HD
ATOM      9  H   UNL     1       8.540   6.107  11.586  0.00  0.00    +0.000 HD
ENDROOT
BRANCH   1  11
ATOM     10  C   UNL     1       4.311   3.258  11.354  0.00  0.00    +0.000 C 
ATOM     11  C   UNL     1       5.461   2.597  12.115  0.00  0.00    +0.000 C 
ATOM     12  C   UNL     1       6.390   1.850  11.159  0.00  0.00    +0.000 C 
ENDBRANCH   1  11
BRANCH   3  13
ATOM     13  N   UNL     1       6.212   4.935  16.373  0.00  0.00    +0.000 N 
ATOM     14  C   UNL     1       7.184   4.685  17.422  0.00  0.00    +0.000 C 
BRANCH  13  15
ATOM     15  C   UNL     1       4.836   5.246  16.760  0.00  0.00    +0.000 C 
BRANCH  15  16
ATOM     16  C   UNL     1       4.228   4.299  17.762  0.00  0.00    +0.000 A 
ATOM     17  C   UNL     1       3.845   4.708  19.044  0.00  0.00    +0.000 A 
ATOM     18  C   UNL     1       3.239   3.798  19.909  0.00  0.00    +0.000 A 
ATOM     19  C   UNL     1       3.037   2.502  19.466  0.00  0.00    +0.000 A 
ATOM     20  N   UNL     1       3.383   2.068  18.238  0.00  0.00    +0.000 NA
ATOM     21  C   UNL     1       3.969   2.975  17.419  0.00  0.00    +0.000 A 
ENDBRANCH  15  16
ENDBRANCH  13  15
ENDBRANCH   3  13
TORSDOF 4
ENDMDL
MODEL 7
REMARK VINA RESULT:      -7.3      2.395      4.480
REMARK  Name = 
REMARK  7 active torsions:
REMARK  status: ('A' for Active; 'I' for Inactive)
REMARK    1  A    between atoms: C_1  and  C_2
REMARK    2  A    between atoms: C_2  and  C_3
REMARK    3  A    between atoms: C_2  and  C_4
REMARK    4  A    between atoms: C_6  and  N_7
REMARK    5  A    between atoms: N_7  and  C_8
REMARK    6  A    between atoms: N_7  and  C_9
REMARK    7  A    between atoms: C_9  and  C_10
REMARK                            x       y       z     vdW  Elec       q    Type
REMARK                         _______ _______ _______ _____ _____    ______ ____
ROOT
ATOM      1  C   UNL     1       6.775   5.591  17.149  0.00  0.00    +0.000 A 
ATOM      2  C   UNL     1       5.504   5.560  17.690  0.00  0.00    +0.000 A 
ATOM      3  C   UNL     1       4.514   4.873  17.011  0.00  0.00    +0.000 A 
ATOM      4  N   UNL     1       4.811   4.275  15.845  0.00  0.00    +0.000 NA
ATOM      5  C   UNL     1       6.072   4.318  15.402  0.00  0.00    +0.000 A 
ATOM      6  N   UNL     1       6.368   3.614  14.246  0.00  0.00    +0.000 N 
ATOM      7  N   UNL     1       7.078   4.940  16.014  0.00  0.00    +0.000 NA
ATOM      8  H   UNL     1       5.737   2.831  14.163  0.00  0.00    +0.000 HD
ATOM      9  H   UNL     1       7.357   3.402  14.247  0.00  0.00    +0.000 HD
ENDROOT
BRANCH   1  11
ATOM     10  C   UNL     1       7.694   7.844  17.699  0.00  0.00    +0.000 C 
ATOM     11  C   UNL     1       7.874   6.337  17.880  0.00  0.00    +0.000 C 
ATOM     12  C   UNL     1       7.954   5.970  19.361  0.00  0.00    +0.000 C 
ENDBRANCH   1  11
BRANCH   3  13
ATOM     13  N   UNL     1       3.211   4.834  17.481  0.00  0.00    +0.000 N 
ATOM     14  C   UNL     1       2.485   6.032  17.866  0.00  0.00    +0.000 C 
BRANCH  13  15
ATOM     15  C   UNL     1       2.599   3.533  17.754  0.00  0.00    +0.000 C 
BRANCH  15  16
ATOM     16  C   UNL     1       2.395   3.220  19.213  0.00  0.00    +0.000 A 
ATOM     17  C   UNL     1       1.137   3.268  19.822  0.00  0.00    +0.000 A 
ATOM     18  C   UNL     1       1.002   2.916  21.165  0.00  0.00    +0.000 A 
ATOM     19  C   UNL     1       2.135   2.528  21.860  0.00  0.00    +0.000 A 
ATOM     20  N   UNL     1       3.364   2.460  21.311  0.00  0.00    +0.000 NA
ATOM     21  C   UNL     1       3.463   2.806  20.005  0.00  0.00    +0.000 A 
ENDBRANCH  15  16
ENDBRANCH  13  15
ENDBRANCH   3  13
TORSDOF 4
ENDMDL
MODEL 8
REMARK VINA RESULT:      -7.1      2.311      4.627
REMARK  Name = 
REMARK  7 active torsions:
REMARK  status: ('A' for Active; 'I' for Inactive)
REMARK    1  A    between atoms: C_1  and  C_2
REMARK    2  A    between atoms: C_2  and  C_3
REMARK    3  A    between atoms: C_2  and  C_4
REMARK    4  A    between atoms: C_6  and  N_7
REMARK    5  A    between atoms: N_7  and  C_8
REMARK    6  A    between atoms: N_7  and  C_9
REMARK    7  A    between atoms: C_9  and  C_10
REMARK                            x       y       z     vdW  Elec       q    Type
REMARK                         _______ _______ _______ _____ _____    ______ ____
ROOT
ATOM      1  C   UNL     1       6.824   5.094  17.225  0.00  0.00    +0.000 A 
ATOM      2  C   UNL     1       5.699   4.571  17.834  0.00  0.00    +0.000 A 
ATOM      3  C   UNL     1       4.847   3.785  17.080  0.00  0.00    +0.000 A 
ATOM      4  N   UNL     1       5.126   3.569  15.784  0.00  0.00    +0.000 NA
ATOM      5  C   UNL     1       6.252   4.079  15.274  0.00  0.00    +0.000 A 
ATOM      6  N   UNL     1       6.559   3.763  13.961  0.00  0.00    +0.000 N 
ATOM      7  N   UNL     1       7.127   4.825  15.945  0.00  0.00    +0.000 NA
ATOM      8  H   UNL     1       6.159   2.866  13.732  0.00  0.00    +0.000 HD
ATOM      9  H   UNL     1       7.559   3.860  13.835  0.00  0.00    +0.000 HD
ENDROOT
BRANCH   1  11
ATOM     10  C   UNL     1       7.574   7.430  17.679  0.00  0.00    +0.000 C 
ATOM     11  C   UNL     1       7.772   5.957  18.036  0.00  0.00    +0.000 C 
ATOM     12  C   UNL     1       7.633   5.736  19.541  0.00  0.00    +0.000 C 
ENDBRANCH   1  11
BRANCH   3  13
ATOM     13  N   UNL     1       3.684   3.258  17.621  0.00  0.00    +0.000 N 
ATOM     14  C   UNL     1       3.623   1.922  18.188  0.00  0.00    +0.000 C 
BRANCH  13  15
ATOM     15  C   UNL     1       2.436   4.008  17.474  0.00  0.00    +0.000 C 
BRANCH  15  16
ATOM     16  C   UNL     1       2.233   5.109  18.481  0.00  0.00    +0.000 A 
ATOM     17  C   UNL     1       1.852   4.855  19.803  0.00  0.00    +0.000 A 
ATOM     18  C   UNL     1       1.731   5.913  20.704  0.00  0.00    +0.000 A 
ATOM     19  C   UNL     1       1.992   7.196  20.253  0.00  0.00    +0.000 A 
ATOM     20  N   UNL     1       2.368   7.483  18.992  0.00  0.00    +0.000 NA
ATOM     21  C   UNL     1       2.479   6.436  18.139  0.00  0.00    +0.000 A 
ENDBRANCH  15  16
ENDBRANCH  13  15
ENDBRANCH   3  13
TORSDOF 4
ENDMDL
MODEL 9
REMARK VINA RESULT:      -7.1      1.205      1.802
REMARK  Name = 
REMARK  7 active torsions:
REMARK  status: ('A' for Active; 'I' for Inactive)
REMARK    1  A    between atoms: C_1  and  C_2
REMARK    2  A    between atoms: C_2  and  C_3
REMARK    3  A    between atoms: C_2  and  C_4
REMARK    4  A    between atoms: C_6  and  N_7
REMARK    5  A    between atoms: N_7  and  C_8
REMARK    6  A    between atoms: N_7  and  C_9
REMARK    7  A    between atoms: C_9  and  C_10
REMARK                            x       y       z     vdW  Elec       q    Type
REMARK                         _______ _______ _______ _____ _____    ______ ____
ROOT
ATOM      1  C   UNL     1       6.332   3.842  12.591  0.00  0.00    +0.000 A 
ATOM      2  C   UNL     1       5.879   3.727  13.891  0.00  0.00    +0.000 A 
ATOM      3  C   UNL     1       6.537   4.431  14.883  0.00  0.00    +0.000 A 
ATOM      4  N   UNL     1       7.600   5.186  14.559  0.00  0.00    +0.000 NA
ATOM      5  C   UNL     1       7.957   5.276  13.273  0.00  0.00    +0.000 A 
ATOM      6  N   UNL     1       8.998   6.134  12.958  0.00  0.00    +0.000 N 
ATOM      7  N   UNL     1       7.357   4.645  12.265  0.00  0.00    +0.000 NA
ATOM      8  H   UNL     1       9.030   6.881  13.635  0.00  0.00    +0.000 HD
ATOM      9  H   UNL     1       8.904   6.405  11.987  0.00  0.00    +0.000 HD
ENDROOT
BRANCH   1  11
ATOM     10  C   UNL     1       5.997   1.598  11.550  0.00  0.00    +0.000 C 
ATOM     11  C   UNL     1       5.621   3.080  11.489  0.00  0.00    +0.000 C 
ATOM     12  C   UNL     1       4.105   3.261  11.526  0.00  0.00    +0.000 C 
ENDBRANCH   1  11
BRANCH   3  13
ATOM     13  N   UNL     1       6.155   4.332  16.212  0.00  0.00    +0.000 N 
ATOM     14  C   UNL     1       7.091   4.518  17.308  0.00  0.00    +0.000 C 
BRANCH  13  15
ATOM     15  C   UNL     1       4.803   3.866  16.524  0.00  0.00    +0.000 C 
BRANCH  15  16
ATOM     16  C   UNL     1       4.099   4.638  17.609  0.00  0.00    +0.000 A 
ATOM     17  C   UNL     1       3.768   4.067  18.842  0.00  0.00    +0.000 A 
ATOM     18  C   UNL     1       3.163   4.848  19.827  0.00  0.00    +0.000 A 
ATOM     19  C   UNL     1       2.905   6.178  19.547  0.00  0.00    +0.000 A 
ATOM     20  N   UNL     1       3.215   6.770  18.376  0.00  0.00    +0.000 NA
ATOM     21  C   UNL     1       3.802   5.988  17.439  0.00  0.00    +0.000 A 
ENDBRANCH  15  16
ENDBRANCH  13  15
ENDBRANCH   3  13
TORSDOF 4
ENDMDL
