MODEL 1
REMARK VINA RESULT:      -7.0      0.000      0.000
REMARK  Name = 
REMARK  6 active torsions:
REMARK  status: ('A' for Active; 'I' for Inactive)
REMARK    1  A    between atoms: C_1  and  C_2
REMARK    2  A    between atoms: C_4  and  N_5
REMARK    3  A    between atoms: N_5  and  C_6
REMARK    4  A    between atoms: C_6  and  C_7
REMARK    5  A    between atoms: C_11  and  C_12
REMARK    6  A    between atoms: C_17  and  C_18
REMARK                            x       y       z     vdW  Elec       q    Type
REMARK                         _______ _______ _______ _____ _____    ______ ____
ROOT
ATOM      1  C   UNL     1       0.478   9.371  21.315  0.00  0.00    +0.000 C 
ATOM      2  C   UNL     1       1.183   8.779  20.127  0.00  0.00    +0.000 A 
ATOM      3  C   UNL     1       1.910   7.579  20.285  0.00  0.00    +0.000 A 
ATOM      4  C   UNL     1       2.652   7.003  19.240  0.00  0.00    +0.000 A 
ATOM      5  C   UNL     1       2.740   7.720  18.045  0.00  0.00    +0.000 A 
ATOM      6  C   UNL     1       1.964   8.867  17.840  0.00  0.00    +0.000 A 
ATOM      7  C   UNL     1       1.119   9.355  18.847  0.00  0.00    +0.000 A 
ENDROOT
BRANCH   7   8
ATOM      8  C   UNL     1       0.116  10.414  18.509  0.00  0.00    +0.000 C 
ATOM      9  N   UNL     1       0.600  11.693  18.397  0.00  0.00    +0.000 N 
ATOM     10  O   UNL     1      -1.059  10.183  18.261  0.00  0.00    +0.000 OA
ATOM     11  H   UNL     1       1.590  11.885  18.315  0.00  0.00    +0.000 HD
ATOM     12  H   UNL     1      -0.036  12.377  18.005  0.00  0.00    +0.000 HD
ENDBRANCH   7   8
BRANCH   4  13
ATOM     13  N   UNL     1       3.156   5.709  19.381  0.00  0.00    +0.000 N 
ATOM     14  H   UNL     1       4.014   5.668  19.923  0.00  0.00    +0.000 HD
BRANCH  13  15
ATOM     15  C   UNL     1       3.166   4.772  18.263  0.00  0.00    +0.000 C 
BRANCH  15  16
ATOM     16  C   UNL     1       4.555   4.547  17.695  0.00  0.00    +0.000 A 
ATOM     17  C   UNL     1       5.686   4.836  18.481  0.00  0.00    +0.000 A 
ATOM     18  C   UNL     1       6.972   4.822  17.930  0.00  0.00    +0.000 A 
ATOM     19  C   UNL     1       7.146   4.535  16.578  0.00  0.00    +0.000 A 
ATOM     20  C   UNL     1       6.041   4.222  15.784  0.00  0.00    +0.000 A 
ATOM     21  C   UNL     1       4.755   4.208  16.348  0.00  0.00    +0.000 A 
BRANCH  20  22
ATOM     22  C   UNL     1       6.207   3.972  14.378  0.00  0.00    +0.000 C 
ATOM     23  N   UNL     1       6.313   3.752  13.247  0.00  0.00    +0.000 NA
ENDBRANCH  20  22
ENDBRANCH  15  16
ENDBRANCH  13  15
ENDBRANCH   4  13
TORSDOF 5
ENDMDL
MODEL 2
REMARK VINA RESULT:      -7.0      3.719      5.394
REMARK  Name = 
REMARK  6 active torsions:
REMARK  status: ('A' for Active; 'I' for Inactive)
REMARK    1  A    between atoms: C_1  and  C_2
REMARK    2  A    between atoms: C_4  and  N_5
REMARK    3  A    between atoms: N_5  and  C_6
REMARK    4  A    between atoms: C_6  and  C_7
REMARK    5  A    between atoms: C_11  and  C_12
REMARK    6  A    between atoms: C_17  and  C_18
REMARK                            x       y       z     vdW  Elec       q    Type
REMARK                         _______ _______ _______ _____ _____    ______ ____
ROOT
ATOM      1  C   UNL     1       2.270   5.914  20.205  0.00  0.00    +0.000 C 
ATOM      2  C   UNL     1       2.784   4.897  19.224  0.00  0.00    +0.000 A 
ATOM      3  C   UNL     1       3.446   5.338  18.058  0.00  0.00    +0.000 A 
ATOM      4  C   UNL     1       3.891   4.452  17.062  0.00  0.00    +0.000 A 
ATOM      5  C   UNL     1       3.561   3.104  17.209  0.00  0.00    +0.000 A 
ATOM      6  C   UNL     1       2.978   2.635  18.392  0.00  0.00    +0.000 A 
ATOM      7  C   UNL     1       2.664   3.514  19.438  0.00  0.00    +0.000 A 
ENDROOT
BRANCH   7   8
ATOM      8  C   UNL     1       2.293   2.953  20.777  0.00  0.00    +0.000 C 
ATOM      9  N   UNL     1       0.950   2.835  21.033  0.00  0.00    +0.000 N 
ATOM     10  O   UNL     1       3.108   2.539  21.589  0.00  0.00    +0.000 OA
ATOM     11  H   UNL     1       0.258   2.898  20.299  0.00  0.00    +0.000 HD
ATOM     12  H   UNL     1       0.699   2.305  21.858  0.00  0.00    +0.000 HD
ENDBRANCH   7   8
BRANCH   4  13
ATOM     13  N   UNL     1       4.737   4.916  16.053  0.00  0.00    +0.000 N 
ATOM     14  H   UNL     1       4.308   4.906  15.132  0.00  0.00    +0.000 HD
BRANCH  13  15
ATOM     15  C   UNL     1       6.144   4.535  16.008  0.00  0.00    +0.000 C 
BRANCH  15  16
ATOM     16  C   UNL     1       6.991   5.281  17.021  0.00  0.00    +0.000 A 
ATOM     17  C   UNL     1       7.410   4.628  18.196  0.00  0.00    +0.000 A 
ATOM     18  C   UNL     1       8.025   5.334  19.236  0.00  0.00    +0.000 A 
ATOM     19  C   UNL     1       8.217   6.710  19.124  0.00  0.00    +0.000 A 
ATOM     20  C   UNL     1       7.830   7.375  17.959  0.00  0.00    +0.000 A 
ATOM     21  C   UNL     1       7.239   6.657  16.905  0.00  0.00    +0.000 A 
BRANCH  20  22
ATOM     22  C   UNL     1       7.980   8.801  17.855  0.00  0.00    +0.000 C 
ATOM     23  N   UNL     1       8.091   9.948  17.740  0.00  0.00    +0.000 NA
ENDBRANCH  20  22
ENDBRANCH  15  16
ENDBRANCH  13  15
ENDBRANCH   4  13
TORSDOF 5
ENDMDL
MODEL 3
REMARK VINA RESULT:      -7.0      3.391      7.790
REMARK  Name = 
REMARK  6 active torsions:
REMARK  status: ('A' for Active; 'I' for Inactive)
REMARK    1  A    between atoms: C_1  and  C_2
REMARK    2  A    between atoms: C_4  and  N_5
REMARK    3  A    between atoms: N_5  and  C_6
REMARK    4  A    between atoms: C_6  and  C_7
REMARK    5  A    between atoms: C_11  and  C_12
REMARK    6  A    between atoms: C_17  and  C_18
REMARK                            x       y       z     vdW  Elec       q    Type
REMARK                         _______ _______ _______ _____ _____    ______ ____
ROOT
ATOM      1  C   UNL     1       1.506   3.537  20.361  0.00  0.00    +0.000 C 
ATOM      2  C   UNL     1       2.377   4.313  19.412  0.00  0.00    +0.000 A 
ATOM      3  C   UNL     1       2.211   5.711  19.311  0.00  0.00    +0.000 A 
ATOM      4  C   UNL     1       2.938   6.493  18.397  0.00  0.00    +0.000 A 
ATOM      5  C   UNL     1       3.770   5.823  17.499  0.00  0.00    +0.000 A 
ATOM      6  C   UNL     1       4.011   4.450  17.634  0.00  0.00    +0.000 A 
ATOM      7  C   UNL     1       3.383   3.704  18.642  0.00  0.00    +0.000 A 
ENDROOT
BRANCH   7   8
ATOM      8  C   UNL     1       3.858   2.313  18.924  0.00  0.00    +0.000 C 
ATOM      9  N   UNL     1       4.864   2.192  19.850  0.00  0.00    +0.000 N 
ATOM     10  O   UNL     1       3.352   1.310  18.440  0.00  0.00    +0.000 OA
ATOM     11  H   UNL     1       5.113   2.951  20.471  0.00  0.00    +0.000 HD
ATOM     12  H   UNL     1       5.069   1.252  20.166  0.00  0.00    +0.000 HD
ENDBRANCH   7   8
BRANCH   4  13
ATOM     13  N   UNL     1       2.904   7.885  18.499  0.00  0.00    +0.000 N 
ATOM     14  H   UNL     1       3.030   8.222  19.449  0.00  0.00    +0.000 HD
BRANCH  13  15
ATOM     15  C   UNL     1       1.927   8.676  17.759  0.00  0.00    +0.000 C 
BRANCH  15  16
ATOM     16  C   UNL     1       0.884   9.315  18.656  0.00  0.00    +0.000 A 
ATOM     17  C   UNL     1      -0.058  10.203  18.107  0.00  0.00    +0.000 A 
ATOM     18  C   UNL     1      -0.909  10.954  18.927  0.00  0.00    +0.000 A 
ATOM     19  C   UNL     1      -0.819  10.838  20.313  0.00  0.00    +0.000 A 
ATOM     20  C   UNL     1       0.093   9.945  20.880  0.00  0.00    +0.000 A 
ATOM     21  C   UNL     1       0.924   9.173  20.052  0.00  0.00    +0.000 A 
BRANCH  20  22
ATOM     22  C   UNL     1       0.225   9.855  22.308  0.00  0.00    +0.000 C 
ATOM     23  N   UNL     1       0.365   9.781  23.455  0.00  0.00    +0.000 NA
ENDBRANCH  20  22
ENDBRANCH  15  16
ENDBRANCH  13  15
ENDBRANCH   4  13
TORSDOF 5
ENDMDL
MODEL 4
REMARK VINA RESULT:      -7.0      4.239      6.420
REMARK  Name = 
REMARK  6 active torsions:
REMARK  status: ('A' for Active; 'I' for Inactive)
REMARK    1  A    between atoms: C_1  and  C_2
REMARK    2  A    between atoms: C_4  and  N_5
REMARK    3  A    between atoms: N_5  and  C_6
REMARK    4  A    between atoms: C_6  and  C_7
REMARK    5  A    between atoms: C_11  and  C_12
REMARK    6  A    between atoms: C_17  and  C_18
REMARK                            x       y       z     vdW  Elec       q    Type
REMARK                         _______ _______ _______ _____ _____    ______ ____
ROOT
ATOM      1  C   UNL     1       7.462   4.764  15.623  0.00  0.00    +0.000 C 
ATOM      2  C   UNL     1       6.199   5.134  16.350  0.00  0.00    +0.000 A 
ATOM      3  C   UNL     1       5.062   4.307  16.221  0.00  0.00    +0.000 A 
ATOM      4  C   UNL     1       3.827   4.624  16.812  0.00  0.00    +0.000 A 
ATOM      5  C   UNL     1       3.722   5.858  17.456  0.00  0.00    +0.000 A 
ATOM      6  C   UNL     1       4.855   6.654  17.666  0.00  0.00    +0.000 A 
ATOM      7  C   UNL     1       6.112   6.258  17.189  0.00  0.00    +0.000 A 
ENDROOT
BRANCH   7   8
ATOM      8  C   UNL     1       7.333   6.990  17.654  0.00  0.00    +0.000 C 
ATOM      9  N   UNL     1       7.964   6.476  18.758  0.00  0.00    +0.000 N 
ATOM     10  O   UNL     1       7.817   7.946  17.064  0.00  0.00    +0.000 OA
ATOM     11  H   UNL     1       7.768   5.545  19.101  0.00  0.00    +0.000 HD
ATOM     12  H   UNL     1       8.875   6.863  18.972  0.00  0.00    +0.000 HD
ENDBRANCH   7   8
BRANCH   4  13
ATOM     13  N   UNL     1       2.812   3.666  16.847  0.00  0.00    +0.000 N 
ATOM     14  H   UNL     1       2.564   3.309  15.929  0.00  0.00    +0.000 HD
BRANCH  13  15
ATOM     15  C   UNL     1       1.646   3.828  17.708  0.00  0.00    +0.000 C 
BRANCH  15  16
ATOM     16  C   UNL     1       1.860   3.273  19.103  0.00  0.00    +0.000 A 
ATOM     17  C   UNL     1       0.948   3.589  20.127  0.00  0.00    +0.000 A 
ATOM     18  C   UNL     1       1.213   3.256  21.461  0.00  0.00    +0.000 A 
ATOM     19  C   UNL     1       2.404   2.612  21.792  0.00  0.00    +0.000 A 
ATOM     20  C   UNL     1       3.313   2.268  20.790  0.00  0.00    +0.000 A 
ATOM     21  C   UNL     1       3.029   2.579  19.450  0.00  0.00    +0.000 A 
BRANCH  20  22
ATOM     22  C   UNL     1       4.565   1.648  21.129  0.00  0.00    +0.000 C 
ATOM     23  N   UNL     1       5.580   1.175  21.421  0.00  0.00    +0.000 NA
ENDBRANCH  20  22
ENDBRANCH  15  16
ENDBRANCH  13  15
ENDBRANCH   4  13
TORSDOF 5
ENDMDL
MODEL 5
REMARK VINA RESULT:      -7.0      3.671      8.455
REMARK  Name = 
REMARK  6 active torsions:
REMARK  status: ('A' for Active; 'I' for Inactive)
REMARK    1  A    between atoms: C_1  and  C_2
REMARK    2  A    between atoms: C_4  and  N_5
REMARK    3  A    between atoms: N_5  and  C_6
REMARK    4  A    between atoms: C_6  and  C_7
REMARK    5  A    between atoms: C_11  and  C_12
REMARK    6  A    between atoms: C_17  and  C_18
REMARK                            x       y       z     vdW  Elec       q    Type
REMARK                         _______ _______ _______ _____ _____    ______ ____
ROOT
ATOM      1  C   UNL     1       1.756   2.590  21.228  0.00  0.00    +0.000 C 
ATOM      2  C   UNL     1       2.218   3.794  20.454  0.00  0.00    +0.000 A 
ATOM      3  C   UNL     1       1.841   5.081  20.893  0.00  0.00    +0.000 A 
ATOM      4  C   UNL     1       2.174   6.248  20.184  0.00  0.00    +0.000 A 
ATOM      5  C   UNL     1       2.810   6.090  18.952  0.00  0.00    +0.000 A 
ATOM      6  C   UNL     1       3.264   4.832  18.536  0.00  0.00    +0.000 A 
ATOM      7  C   UNL     1       3.045   3.692  19.323  0.00  0.00    +0.000 A 
ENDROOT
BRANCH   7   8
ATOM      8  C   UNL     1       3.765   2.423  18.985  0.00  0.00    +0.000 C 
ATOM      9  N   UNL     1       4.958   2.214  19.629  0.00  0.00    +0.000 N 
ATOM     10  O   UNL     1       3.312   1.562  18.245  0.00  0.00    +0.000 OA
ATOM     11  H   UNL     1       5.228   2.751  20.442  0.00  0.00    +0.000 HD
ATOM     12  H   UNL     1       5.360   1.289  19.533  0.00  0.00    +0.000 HD
ENDBRANCH   7   8
BRANCH   4  13
ATOM     13  N   UNL     1       1.981   7.496  20.778  0.00  0.00    +0.000 N 
ATOM     14  H   UNL     1       1.719   7.440  21.758  0.00  0.00    +0.000 HD
BRANCH  13  15
ATOM     15  C   UNL     1       1.276   8.567  20.082  0.00  0.00    +0.000 C 
BRANCH  15  16
ATOM     16  C   UNL     1       0.561   9.515  21.026  0.00  0.00    +0.000 A 
ATOM     17  C   UNL     1       0.416   9.171  22.383  0.00  0.00    +0.000 A 
ATOM     18  C   UNL     1      -0.397   9.923  23.237  0.00  0.00    +0.000 A 
ATOM     19  C   UNL     1      -1.093  11.025  22.743  0.00  0.00    +0.000 A 
ATOM     20  C   UNL     1      -0.947  11.399  21.406  0.00  0.00    +0.000 A 
ATOM     21  C   UNL     1      -0.107  10.657  20.559  0.00  0.00    +0.000 A 
BRANCH  20  22
ATOM     22  C   UNL     1      -1.698  12.504  20.877  0.00  0.00    +0.000 C 
ATOM     23  N   UNL     1      -2.287  13.391  20.422  0.00  0.00    +0.000 NA
ENDBRANCH  20  22
ENDBRANCH  15  16
ENDBRANCH  13  15
ENDBRANCH   4  13
TORSDOF 5
ENDMDL
MODEL 6
REMARK VINA RESULT:      -7.0      3.777      5.231
REMARK  Name = 
REMARK  6 active torsions:
REMARK  status: ('A' for Active; 'I' for Inactive)
REMARK    1  A    between atoms: C_1  and  C_2
REMARK    2  A    between atoms: C_4  and  N_5
REMARK    3  A    between atoms: N_5  and  C_6
REMARK    4  A    between atoms: C_6  and  C_7
REMARK    5  A    between atoms: C_11  and  C_12
REMARK    6  A    between atoms: C_17  and  C_18
REMARK                            x       y       z     vdW  Elec       q    Type
REMARK                         _______ _______ _______ _____ _____    ______ ____
ROOT
ATOM      1  C   UNL     1       3.892   1.872  19.155  0.00  0.00    +0.000 C 
ATOM      2  C   UNL     1       3.574   3.224  18.579  0.00  0.00    +0.000 A 
ATOM      3  C   UNL     1       4.563   3.908  17.839  0.00  0.00    +0.000 A 
ATOM      4  C   UNL     1       4.364   5.203  17.330  0.00  0.00    +0.000 A 
ATOM      5  C   UNL     1       3.176   5.851  17.673  0.00  0.00    +0.000 A 
ATOM      6  C   UNL     1       2.151   5.165  18.335  0.00  0.00    +0.000 A 
ATOM      7  C   UNL     1       2.311   3.825  18.716  0.00  0.00    +0.000 A 
ENDROOT
BRANCH   7   8
ATOM      8  C   UNL     1       1.116   3.049  19.177  0.00  0.00    +0.000 C 
ATOM      9  N   UNL     1       0.638   3.357  20.426  0.00  0.00    +0.000 N 
ATOM     10  O   UNL     1       0.523   2.238  18.481  0.00  0.00    +0.000 OA
ATOM     11  H   UNL     1       0.917   4.199  20.912  0.00  0.00    +0.000 HD
ATOM     12  H   UNL     1      -0.261   2.961  20.670  0.00  0.00    +0.000 HD
ENDBRANCH   7   8
BRANCH   4  13
ATOM     13  N   UNL     1       5.277   5.734  16.418  0.00  0.00    +0.000 N 
ATOM     14  H   UNL     1       4.844   6.058  15.557  0.00  0.00    +0.000 HD
BRANCH  13  15
ATOM     15  C   UNL     1       6.568   5.100  16.179  0.00  0.00    +0.000 C 
BRANCH  15  16
ATOM     16  C   UNL     1       6.797   4.757  14.720  0.00  0.00    +0.000 A 
ATOM     17  C   UNL     1       7.888   5.321  14.033  0.00  0.00    +0.000 A 
ATOM     18  C   UNL     1       8.022   5.181  12.647  0.00  0.00    +0.000 A 
ATOM     19  C   UNL     1       7.055   4.486  11.922  0.00  0.00    +0.000 A 
ATOM     20  C   UNL     1       5.976   3.898  12.585  0.00  0.00    +0.000 A 
ATOM     21  C   UNL     1       5.862   4.017  13.980  0.00  0.00    +0.000 A 
BRANCH  20  22
ATOM     22  C   UNL     1       4.950   3.222  11.839  0.00  0.00    +0.000 C 
ATOM     23  N   UNL     1       4.147   2.660  11.222  0.00  0.00    +0.000 NA
ENDBRANCH  20  22
ENDBRANCH  15  16
ENDBRANCH  13  15
ENDBRANCH   4  13
TORSDOF 5
ENDMDL
MODEL 7
REMARK VINA RESULT:      -6.9      3.606      8.119
REMARK  Name = 
REMARK  6 active torsions:
REMARK  status: ('A' for Active; 'I' for Inactive)
REMARK    1  A    between atoms: C_1  and  C_2
REMARK    2  A    between atoms: C_4  and  N_5
REMARK    3  A    between atoms: N_5  and  C_6
REMARK    4  A    between atoms: C_6  and  C_7
REMARK    5  A    between atoms: C_11  and  C_12
REMARK    6  A    between atoms: C_17  and  C_18
REMARK                            x       y       z     vdW  Elec       q    Type
REMARK                         _______ _______ _______ _____ _____    ______ ____
ROOT
ATOM      1  C   UNL     1       1.718   2.826  21.373  0.00  0.00    +0.000 C 
ATOM      2  C   UNL     1       2.294   3.915  20.511  0.00  0.00    +0.000 A 
ATOM      3  C   UNL     1       1.838   5.240  20.680  0.00  0.00    +0.000 A 
ATOM      4  C   UNL     1       2.277   6.298  19.865  0.00  0.00    +0.000 A 
ATOM      5  C   UNL     1       3.112   5.979  18.794  0.00  0.00    +0.000 A 
ATOM      6  C   UNL     1       3.639   4.689  18.656  0.00  0.00    +0.000 A 
ATOM      7  C   UNL     1       3.300   3.673  19.561  0.00  0.00    +0.000 A 
ENDROOT
BRANCH   7   8
ATOM      8  C   UNL     1       4.077   2.392  19.545  0.00  0.00    +0.000 C 
ATOM      9  N   UNL     1       3.824   1.543  18.497  0.00  0.00    +0.000 N 
ATOM     10  O   UNL     1       4.951   2.118  20.355  0.00  0.00    +0.000 OA
ATOM     11  H   UNL     1       3.328   1.848  17.670  0.00  0.00    +0.000 HD
ATOM     12  H   UNL     1       4.462   0.764  18.391  0.00  0.00    +0.000 HD
ENDBRANCH   7   8
BRANCH   4  13
ATOM     13  N   UNL     1       1.976   7.614  20.221  0.00  0.00    +0.000 N 
ATOM     14  H   UNL     1       2.643   8.291  19.861  0.00  0.00    +0.000 HD
BRANCH  13  15
ATOM     15  C   UNL     1       1.522   7.952  21.565  0.00  0.00    +0.000 C 
BRANCH  15  16
ATOM     16  C   UNL     1       0.716   9.236  21.611  0.00  0.00    +0.000 A 
ATOM     17  C   UNL     1       0.071   9.613  22.803  0.00  0.00    +0.000 A 
ATOM     18  C   UNL     1      -0.832  10.683  22.830  0.00  0.00    +0.000 A 
ATOM     19  C   UNL     1      -1.114  11.384  21.660  0.00  0.00    +0.000 A 
ATOM     20  C   UNL     1      -0.468  11.043  20.470  0.00  0.00    +0.000 A 
ATOM     21  C   UNL     1       0.458   9.987  20.454  0.00  0.00    +0.000 A 
BRANCH  20  22
ATOM     22  C   UNL     1      -0.790  11.729  19.249  0.00  0.00    +0.000 C 
ATOM     23  N   UNL     1      -1.079  12.289  18.277  0.00  0.00    +0.000 NA
ENDBRANCH  20  22
ENDBRANCH  15  16
ENDBRANCH  13  15
ENDBRANCH   4  13
TORSDOF 5
ENDMDL
MODEL 8
REMARK VINA RESULT:      -6.9      3.819      5.545
REMARK  Name = 
REMARK  6 active torsions:
REMARK  status: ('A' for Active; 'I' for Inactive)
REMARK    1  A    between atoms: C_1  and  C_2
REMARK    2  A    between atoms: C_4  and  N_5
REMARK    3  A    between atoms: N_5  and  C_6
REMARK    4  A    between atoms: C_6  and  C_7
REMARK    5  A    between atoms: C_11  and  C_12
REMARK    6  A    between atoms: C_17  and  C_18
REMARK                            x       y       z     vdW  Elec       q    Type
REMARK                         _______ _______ _______ _____ _____    ______ ____
ROOT
ATOM      1  C   UNL     1       3.578   1.657  19.319  0.00  0.00    +0.000 C 
ATOM      2  C   UNL     1       3.524   3.135  19.043  0.00  0.00    +0.000 A 
ATOM      3  C   UNL     1       4.163   3.643  17.891  0.00  0.00    +0.000 A 
ATOM      4  C   UNL     1       4.216   5.018  17.603  0.00  0.00    +0.000 A 
ATOM      5  C   UNL     1       3.703   5.894  18.561  0.00  0.00    +0.000 A 
ATOM      6  C   UNL     1       2.995   5.410  19.668  0.00  0.00    +0.000 A 
ATOM      7  C   UNL     1       2.830   4.032  19.871  0.00  0.00    +0.000 A 
ENDROOT
BRANCH   7   8
ATOM      8  C   UNL     1       1.855   3.558  20.904  0.00  0.00    +0.000 C 
ATOM      9  N   UNL     1       0.577   3.316  20.466  0.00  0.00    +0.000 N 
ATOM     10  O   UNL     1       2.159   3.313  22.063  0.00  0.00    +0.000 OA
ATOM     11  H   UNL     1       0.356   3.235  19.482  0.00  0.00    +0.000 HD
ATOM     12  H   UNL     1      -0.034   2.839  21.116  0.00  0.00    +0.000 HD
ENDBRANCH   7   8
BRANCH   4  13
ATOM     13  N   UNL     1       4.651   5.445  16.348  0.00  0.00    +0.000 N 
ATOM     14  H   UNL     1       4.027   5.176  15.592  0.00  0.00    +0.000 HD
BRANCH  13  15
ATOM     15  C   UNL     1       6.054   5.353  15.959  0.00  0.00    +0.000 C 
BRANCH  15  16
ATOM     16  C   UNL     1       6.993   5.938  16.997  0.00  0.00    +0.000 A 
ATOM     17  C   UNL     1       7.363   5.167  18.115  0.00  0.00    +0.000 A 
ATOM     18  C   UNL     1       8.069   5.734  19.183  0.00  0.00    +0.000 A 
ATOM     19  C   UNL     1       8.403   7.087  19.155  0.00  0.00    +0.000 A 
ATOM     20  C   UNL     1       8.066   7.866  18.046  0.00  0.00    +0.000 A 
ATOM     21  C   UNL     1       7.383   7.285  16.964  0.00  0.00    +0.000 A 
BRANCH  20  22
ATOM     22  C   UNL     1       8.364   9.271  18.031  0.00  0.00    +0.000 C 
ATOM     23  N   UNL     1       8.607  10.403  17.986  0.00  0.00    +0.000 NA
ENDBRANCH  20  22
ENDBRANCH  15  16
ENDBRANCH  13  15
ENDBRANCH   4  13
TORSDOF 5
ENDMDL
MODEL 9
REMARK VINA RESULT:      -6.9      1.022      1.090
REMARK  Name = 
REMARK  6 active torsions:
REMARK  status: ('A' for Active; 'I' for Inactive)
REMARK    1  A    between atoms: C_1  and  C_2
REMARK    2  A    between atoms: C_4  and  N_5
REMARK    3  A    between atoms: N_5  and  C_6
REMARK    4  A    between atoms: C_6  and  C_7
REMARK    5  A    between atoms: C_11  and  C_12
REMARK    6  A    between atoms: C_17  and  C_18
REMARK                            x       y       z     vdW  Elec       q    Type
REMARK                         _______ _______ _______ _____ _____    ______ ____
ROOT
ATOM      1  C   UNL     1       0.739   9.086  21.272  0.00  0.00    +0.000 C 
ATOM      2  C   UNL     1       1.393   8.516  20.044  0.00  0.00    +0.000 A 
ATOM      3  C   UNL     1       1.881   7.192  20.076  0.00  0.00    +0.000 A 
ATOM      4  C   UNL     1       2.565   6.614  18.993  0.00  0.00    +0.000 A 
ATOM      5  C   UNL     1       2.851   7.437  17.902  0.00  0.00    +0.000 A 
ATOM      6  C   UNL     1       2.309   8.725  17.816  0.00  0.00    +0.000 A 
ATOM      7  C   UNL     1       1.509   9.240  18.846  0.00  0.00    +0.000 A 
ENDROOT
BRANCH   7   8
ATOM      8  C   UNL     1       0.736  10.500  18.609  0.00  0.00    +0.000 C 
ATOM      9  N   UNL     1      -0.463  10.362  17.955  0.00  0.00    +0.000 N 
ATOM     10  O   UNL     1       1.079  11.597  19.028  0.00  0.00    +0.000 OA
ATOM     11  H   UNL     1      -0.910   9.462  17.844  0.00  0.00    +0.000 HD
ATOM     12  H   UNL     1      -1.061  11.178  17.944  0.00  0.00    +0.000 HD
ENDBRANCH   7   8
BRANCH   4  13
ATOM     13  N   UNL     1       2.818   5.241  18.988  0.00  0.00    +0.000 N 
ATOM     14  H   UNL     1       1.985   4.678  19.135  0.00  0.00    +0.000 HD
BRANCH  13  15
ATOM     15  C   UNL     1       3.985   4.681  19.660  0.00  0.00    +0.000 C 
BRANCH  15  16
ATOM     16  C   UNL     1       5.233   4.713  18.800  0.00  0.00    +0.000 A 
ATOM     17  C   UNL     1       6.391   5.357  19.274  0.00  0.00    +0.000 A 
ATOM     18  C   UNL     1       7.493   5.571  18.438  0.00  0.00    +0.000 A 
ATOM     19  C   UNL     1       7.448   5.157  17.108  0.00  0.00    +0.000 A 
ATOM     20  C   UNL     1       6.319   4.496  16.622  0.00  0.00    +0.000 A 
ATOM     21  C   UNL     1       5.227   4.257  17.473  0.00  0.00    +0.000 A 
BRANCH  20  22
ATOM     22  C   UNL     1       6.245   4.109  15.240  0.00  0.00    +0.000 C 
ATOM     23  N   UNL     1       6.153   3.792  14.130  0.00  0.00    +0.000 NA
ENDBRANCH  20  22
ENDBRANCH  15  16
ENDBRANCH  13  15
ENDBRANCH   4  13
TORSDOF 5
ENDMDL
