MODEL 1
REMARK VINA RESULT:      -9.1      0.000      0.000
REMARK  Name = 
REMARK  8 active torsions:
REMARK  status: ('A' for Active; 'I' for Inactive)
REMARK    1  A    between atoms: C_1  and  C_2
REMARK    2  A    between atoms: C_5  and  C_6
REMARK    3  A    between atoms: C_6  and  C_8
REMARK    4  A    between atoms: C_8  and  C_9
REMARK    5  A    between atoms: C_9  and  N_10
REMARK    6  A    between atoms: C_9  and  C_20
REMARK    7  A    between atoms: N_10  and  C_11
REMARK    8  A    between atoms: C_14  and  N_15
REMARK                            x       y       z     vdW  Elec       q    Type
REMARK                         _______ _______ _______ _____ _____    ______ ____
ROOT
ATOM      1  C   UNL     1       2.329   6.239  19.473  0.00  0.00    +0.000 C 
ENDROOT
BRANCH   1   2
ATOM      2  C   UNL     1       1.883   4.774  19.522  0.00  0.00    +0.000 A 
ATOM      3  C   UNL     1       1.605   3.998  18.385  0.00  0.00    +0.000 A 
ATOM      4  C   UNL     1       1.176   2.670  18.503  0.00  0.00    +0.000 A 
ATOM      5  C   UNL     1       1.013   2.096  19.759  0.00  0.00    +0.000 A 
ATOM      6  C   UNL     1       1.299   2.847  20.890  0.00  0.00    +0.000 A 
ATOM      7  F   UNL     1       1.144   2.299  22.103  0.00  0.00    +0.000 F 
ATOM      8  C   UNL     1       1.735   4.164  20.784  0.00  0.00    +0.000 A 
ENDBRANCH   1   2
BRANCH   1   9
ATOM      9  N   UNL     1       3.798   6.259  19.574  0.00  0.00    +0.000 N 
ATOM     10  H   UNL     1       4.192   6.184  20.506  0.00  0.00    +0.000 HD
BRANCH   9  11
ATOM     11  C   UNL     1       4.655   6.054  18.506  0.00  0.00    +0.000 A 
ATOM     12  C   UNL     1       5.626   5.044  18.485  0.00  0.00    +0.000 A 
ATOM     13  C   UNL     1       6.286   4.686  17.306  0.00  0.00    +0.000 A 
ATOM     14  C   UNL     1       5.980   5.357  16.121  0.00  0.00    +0.000 A 
ATOM     15  C   UNL     1       5.084   6.429  16.128  0.00  0.00    +0.000 A 
ATOM     16  C   UNL     1       4.431   6.770  17.319  0.00  0.00    +0.000 A 
BRANCH  14  17
ATOM     17  N   UNL     1       6.554   4.885  14.856  0.00  0.00    +0.000 N 
ATOM     18  O   UNL     1       5.876   4.104  14.170  0.00  0.00    +0.000 OA
ATOM     19  O   UNL     1       7.669   5.317  14.533  0.00  0.00    +0.000 OA
ENDBRANCH  14  17
ENDBRANCH   9  11
ENDBRANCH   1   9
BRANCH   1  20
ATOM     20  C   UNL     1       1.741   7.163  20.577  0.00  0.00    +0.000 C 
BRANCH  20  21
ATOM     21  C   UNL     1       1.425   8.537  20.034  0.00  0.00    +0.000 C 
ATOM     22  O   UNL     1       1.913   8.927  18.974  0.00  0.00    +0.000 OA
BRANCH  21  27
ATOM     23  C   UNL     1      -1.896  12.069  23.248  0.00  0.00    +0.000 C 
ATOM     24  C   UNL     1      -1.038  11.170  22.405  0.00  0.00    +0.000 A 
ATOM     25  C   UNL     1      -0.440  10.036  22.959  0.00  0.00    +0.000 A 
ATOM     26  C   UNL     1       0.353   9.201  22.169  0.00  0.00    +0.000 A 
ATOM     27  C   UNL     1       0.561   9.479  20.810  0.00  0.00    +0.000 A 
ATOM     28  C   UNL     1      -0.047  10.607  20.249  0.00  0.00    +0.000 A 
ATOM     29  C   UNL     1      -0.839  11.446  21.046  0.00  0.00    +0.000 A 
ENDBRANCH  21  27
ENDBRANCH  20  21
ENDBRANCH   1  20
TORSDOF 7
ENDMDL
MODEL 2
REMARK VINA RESULT:      -9.0      1.493      2.343
REMARK  Name = 
REMARK  8 active torsions:
REMARK  status: ('A' for Active; 'I' for Inactive)
REMARK    1  A    between atoms: C_1  and  C_2
REMARK    2  A    between atoms: C_5  and  C_6
REMARK    3  A    between atoms: C_6  and  C_8
REMARK    4  A    between atoms: C_8  and  C_9
REMARK    5  A    between atoms: C_9  and  N_10
REMARK    6  A    between atoms: C_9  and  C_20
REMARK    7  A    between atoms: N_10  and  C_11
REMARK    8  A    between atoms: C_14  and  N_15
REMARK                            x       y       z     vdW  Elec       q    Type
REMARK                         _______ _______ _______ _____ _____    ______ ____
ROOT
ATOM      1  C   UNL     1       2.455   6.266  18.785  0.00  0.00    +0.000 C 
ENDROOT
BRANCH   1   2
ATOM      2  C   UNL     1       2.040   4.988  19.522  0.00  0.00    +0.000 A 
ATOM      3  C   UNL     1       2.285   4.752  20.885  0.00  0.00    +0.000 A 
ATOM      4  C   UNL     1       1.900   3.550  21.491  0.00  0.00    +0.000 A 
ATOM      5  C   UNL     1       1.269   2.560  20.745  0.00  0.00    +0.000 A 
ATOM      6  C   UNL     1       1.007   2.787  19.402  0.00  0.00    +0.000 A 
ATOM      7  F   UNL     1       0.399   1.838  18.677  0.00  0.00    +0.000 F 
ATOM      8  C   UNL     1       1.376   3.982  18.792  0.00  0.00    +0.000 A 
ENDBRANCH   1   2
BRANCH   1   9
ATOM      9  N   UNL     1       3.895   6.163  18.494  0.00  0.00    +0.000 N 
ATOM     10  H   UNL     1       4.520   6.122  19.292  0.00  0.00    +0.000 HD
BRANCH   9  11
ATOM     11  C   UNL     1       4.416   5.803  17.263  0.00  0.00    +0.000 A 
ATOM     12  C   UNL     1       4.745   6.734  16.268  0.00  0.00    +0.000 A 
ATOM     13  C   UNL     1       5.511   6.378  15.156  0.00  0.00    +0.000 A 
ATOM     14  C   UNL     1       5.953   5.061  15.024  0.00  0.00    +0.000 A 
ATOM     15  C   UNL     1       5.566   4.091  15.950  0.00  0.00    +0.000 A 
ATOM     16  C   UNL     1       4.800   4.468  17.060  0.00  0.00    +0.000 A 
BRANCH  14  17
ATOM     17  N   UNL     1       6.883   4.716  13.942  0.00  0.00    +0.000 N 
ATOM     18  O   UNL     1       7.938   5.365  13.860  0.00  0.00    +0.000 OA
ATOM     19  O   UNL     1       6.574   3.780  13.193  0.00  0.00    +0.000 OA
ENDBRANCH  14  17
ENDBRANCH   9  11
ENDBRANCH   1   9
BRANCH   1  20
ATOM     20  C   UNL     1       2.195   7.599  19.544  0.00  0.00    +0.000 C 
BRANCH  20  21
ATOM     21  C   UNL     1       1.761   8.694  18.598  0.00  0.00    +0.000 C 
ATOM     22  O   UNL     1       2.315   8.848  17.510  0.00  0.00    +0.000 OA
BRANCH  21  27
ATOM     23  C   UNL     1      -2.506  12.419  19.920  0.00  0.00    +0.000 C 
ATOM     24  C   UNL     1      -1.400  11.457  19.596  0.00  0.00    +0.000 A 
ATOM     25  C   UNL     1      -1.310  10.879  18.328  0.00  0.00    +0.000 A 
ATOM     26  C   UNL     1      -0.277   9.988  18.031  0.00  0.00    +0.000 A 
ATOM     27  C   UNL     1       0.689   9.658  18.994  0.00  0.00    +0.000 A 
ATOM     28  C   UNL     1       0.610  10.245  20.261  0.00  0.00    +0.000 A 
ATOM     29  C   UNL     1      -0.432  11.137  20.557  0.00  0.00    +0.000 A 
ENDBRANCH  21  27
ENDBRANCH  20  21
ENDBRANCH   1  20
TORSDOF 7
ENDMDL
MODEL 3
REMARK VINA RESULT:      -9.0      0.630      1.511
REMARK  Name = 
REMARK  8 active torsions:
REMARK  status: ('A' for Active; 'I' for Inactive)
REMARK    1  A    between atoms: C_1  and  C_2
REMARK    2  A    between atoms: C_5  and  C_6
REMARK    3  A    between atoms: C_6  and  C_8
REMARK    4  A    between atoms: C_8  and  C_9
REMARK    5  A    between atoms: C_9  and  N_10
REMARK    6  A    between atoms: C_9  and  C_20
REMARK    7  A    between atoms: N_10  and  C_11
REMARK    8  A    between atoms: C_14  and  N_15
REMARK                            x       y       z     vdW  Elec       q    Type
REMARK                         _______ _______ _______ _____ _____    ______ ____
ROOT
ATOM      1  C   UNL     1       2.372   6.125  19.110  0.00  0.00    +0.000 C 
ENDROOT
BRANCH   1   2
ATOM      2  C   UNL     1       1.865   4.696  19.328  0.00  0.00    +0.000 A 
ATOM      3  C   UNL     1       1.454   3.841  18.292  0.00  0.00    +0.000 A 
ATOM      4  C   UNL     1       0.977   2.553  18.564  0.00  0.00    +0.000 A 
ATOM      5  C   UNL     1       0.898   2.098  19.876  0.00  0.00    +0.000 A 
ATOM      6  C   UNL     1       1.316   2.926  20.907  0.00  0.00    +0.000 A 
ATOM      7  F   UNL     1       1.243   2.493  22.174  0.00  0.00    +0.000 F 
ATOM      8  C   UNL     1       1.801   4.205  20.648  0.00  0.00    +0.000 A 
ENDBRANCH   1   2
BRANCH   1   9
ATOM      9  N   UNL     1       3.812   6.046  18.814  0.00  0.00    +0.000 N 
ATOM     10  H   UNL     1       4.440   5.995  19.610  0.00  0.00    +0.000 HD
BRANCH   9  11
ATOM     11  C   UNL     1       4.335   5.720  17.574  0.00  0.00    +0.000 A 
ATOM     12  C   UNL     1       4.586   6.669  16.574  0.00  0.00    +0.000 A 
ATOM     13  C   UNL     1       5.355   6.362  15.449  0.00  0.00    +0.000 A 
ATOM     14  C   UNL     1       5.878   5.076  15.309  0.00  0.00    +0.000 A 
ATOM     15  C   UNL     1       5.569   4.083  16.242  0.00  0.00    +0.000 A 
ATOM     16  C   UNL     1       4.800   4.411  17.364  0.00  0.00    +0.000 A 
BRANCH  14  17
ATOM     17  N   UNL     1       6.811   4.791  14.212  0.00  0.00    +0.000 N 
ATOM     18  O   UNL     1       7.822   5.503  14.114  0.00  0.00    +0.000 OA
ATOM     19  O   UNL     1       6.548   3.837  13.466  0.00  0.00    +0.000 OA
ENDBRANCH  14  17
ENDBRANCH   9  11
ENDBRANCH   1   9
BRANCH   1  20
ATOM     20  C   UNL     1       2.162   7.106  20.299  0.00  0.00    +0.000 C 
BRANCH  20  21
ATOM     21  C   UNL     1       1.601   8.428  19.830  0.00  0.00    +0.000 C 
ATOM     22  O   UNL     1       1.870   8.870  18.714  0.00  0.00    +0.000 OA
BRANCH  21  27
ATOM     23  C   UNL     1      -1.741  11.806  23.185  0.00  0.00    +0.000 C 
ATOM     24  C   UNL     1      -0.878  10.921  22.331  0.00  0.00    +0.000 A 
ATOM     25  C   UNL     1      -0.678  11.214  20.981  0.00  0.00    +0.000 A 
ATOM     26  C   UNL     1       0.129  10.390  20.193  0.00  0.00    +0.000 A 
ATOM     27  C   UNL     1       0.755   9.260  20.740  0.00  0.00    +0.000 A 
ATOM     28  C   UNL     1       0.568   8.971  22.095  0.00  0.00    +0.000 A 
ATOM     29  C   UNL     1      -0.247   9.798  22.883  0.00  0.00    +0.000 A 
ENDBRANCH  21  27
ENDBRANCH  20  21
ENDBRANCH   1  20
TORSDOF 7
ENDMDL
MODEL 4
REMARK VINA RESULT:      -8.9      1.009      1.615
REMARK  Name = 
REMARK  8 active torsions:
REMARK  status: ('A' for Active; 'I' for Inactive)
REMARK    1  A    between atoms: C_1  and  C_2
REMARK    2  A    between atoms: C_5  and  C_6
REMARK    3  A    between atoms: C_6  and  C_8
REMARK    4  A    between atoms: C_8  and  C_9
REMARK    5  A    between atoms: C_9  and  N_10
REMARK    6  A    between atoms: C_9  and  C_20
REMARK    7  A    between atoms: N_10  and  C_11
REMARK    8  A    between atoms: C_14  and  N_15
REMARK                            x       y       z     vdW  Elec       q    Type
REMARK                         _______ _______ _______ _____ _____    ______ ____
ROOT
ATOM      1  C   UNL     1       2.385   6.154  19.509  0.00  0.00    +0.000 C 
ENDROOT
BRANCH   1   2
ATOM      2  C   UNL     1       2.015   4.668  19.512  0.00  0.00    +0.000 A 
ATOM      3  C   UNL     1       1.454   3.999  20.613  0.00  0.00    +0.000 A 
ATOM      4  C   UNL     1       1.163   2.631  20.556  0.00  0.00    +0.000 A 
ATOM      5  C   UNL     1       1.431   1.905  19.400  0.00  0.00    +0.000 A 
ATOM      6  C   UNL     1       1.970   2.556  18.301  0.00  0.00    +0.000 A 
ATOM      7  F   UNL     1       2.231   1.863  17.184  0.00  0.00    +0.000 F 
ATOM      8  C   UNL     1       2.254   3.918  18.343  0.00  0.00    +0.000 A 
ENDBRANCH   1   2
BRANCH   1   9
ATOM      9  N   UNL     1       3.849   6.248  19.638  0.00  0.00    +0.000 N 
ATOM     10  H   UNL     1       4.226   6.231  20.580  0.00  0.00    +0.000 HD
BRANCH   9  11
ATOM     11  C   UNL     1       4.737   6.039  18.596  0.00  0.00    +0.000 A 
ATOM     12  C   UNL     1       5.784   5.108  18.657  0.00  0.00    +0.000 A 
ATOM     13  C   UNL     1       6.489   4.724  17.514  0.00  0.00    +0.000 A 
ATOM     14  C   UNL     1       6.153   5.287  16.282  0.00  0.00    +0.000 A 
ATOM     15  C   UNL     1       5.177   6.283  16.204  0.00  0.00    +0.000 A 
ATOM     16  C   UNL     1       4.480   6.653  17.360  0.00  0.00    +0.000 A 
BRANCH  14  17
ATOM     17  N   UNL     1       6.783   4.777  15.059  0.00  0.00    +0.000 N 
ATOM     18  O   UNL     1       6.317   3.741  14.558  0.00  0.00    +0.000 OA
ATOM     19  O   UNL     1       7.724   5.426  14.582  0.00  0.00    +0.000 OA
ENDBRANCH  14  17
ENDBRANCH   9  11
ENDBRANCH   1   9
BRANCH   1  20
ATOM     20  C   UNL     1       1.731   7.017  20.626  0.00  0.00    +0.000 C 
BRANCH  20  21
ATOM     21  C   UNL     1       1.401   8.404  20.128  0.00  0.00    +0.000 C 
ATOM     22  O   UNL     1       1.851   8.818  19.060  0.00  0.00    +0.000 OA
BRANCH  21  27
ATOM     23  C   UNL     1      -1.863  12.144  23.159  0.00  0.00    +0.000 C 
ATOM     24  C   UNL     1      -1.022  11.167  22.390  0.00  0.00    +0.000 A 
ATOM     25  C   UNL     1      -0.745  11.378  21.038  0.00  0.00    +0.000 A 
ATOM     26  C   UNL     1       0.042  10.468  20.329  0.00  0.00    +0.000 A 
ATOM     27  C   UNL     1       0.571   9.331  20.958  0.00  0.00    +0.000 A 
ATOM     28  C   UNL     1       0.307   9.123  22.315  0.00  0.00    +0.000 A 
ATOM     29  C   UNL     1      -0.487  10.037  23.023  0.00  0.00    +0.000 A 
ENDBRANCH  21  27
ENDBRANCH  20  21
ENDBRANCH   1  20
TORSDOF 7
ENDMDL
MODEL 5
REMARK VINA RESULT:      -8.9      0.873      1.776
REMARK  Name = 
REMARK  8 active torsions:
REMARK  status: ('A' for Active; 'I' for Inactive)
REMARK    1  A    between atoms: C_1  and  C_2
REMARK    2  A    between atoms: C_5  and  C_6
REMARK    3  A    between atoms: C_6  and  C_8
REMARK    4  A    between atoms: C_8  and  C_9
REMARK    5  A    between atoms: C_9  and  N_10
REMARK    6  A    between atoms: C_9  and  C_20
REMARK    7  A    between atoms: N_10  and  C_11
REMARK    8  A    between atoms: C_14  and  N_15
REMARK                            x       y       z     vdW  Elec       q    Type
REMARK                         _______ _______ _______ _____ _____    ______ ____
ROOT
ATOM      1  C   UNL     1       2.201   6.386  19.754  0.00  0.00    +0.000 C 
ENDROOT
BRANCH   1   2
ATOM      2  C   UNL     1       1.895   4.936  20.140  0.00  0.00    +0.000 A 
ATOM      3  C   UNL     1       2.254   4.355  21.368  0.00  0.00    +0.000 A 
ATOM      4  C   UNL     1       1.965   3.014  21.647  0.00  0.00    +0.000 A 
ATOM      5  C   UNL     1       1.315   2.227  20.701  0.00  0.00    +0.000 A 
ATOM      6  C   UNL     1       0.941   2.792  19.491  0.00  0.00    +0.000 A 
ATOM      7  F   UNL     1       0.315   2.038  18.576  0.00  0.00    +0.000 F 
ATOM      8  C   UNL     1       1.215   4.126  19.208  0.00  0.00    +0.000 A 
ENDBRANCH   1   2
BRANCH   1   9
ATOM      9  N   UNL     1       3.631   6.462  19.411  0.00  0.00    +0.000 N 
ATOM     10  H   UNL     1       4.276   6.632  20.176  0.00  0.00    +0.000 HD
BRANCH   9  11
ATOM     11  C   UNL     1       4.170   6.012  18.218  0.00  0.00    +0.000 A 
ATOM     12  C   UNL     1       4.317   6.828  17.087  0.00  0.00    +0.000 A 
ATOM     13  C   UNL     1       5.100   6.436  15.999  0.00  0.00    +0.000 A 
ATOM     14  C   UNL     1       5.745   5.199  16.031  0.00  0.00    +0.000 A 
ATOM     15  C   UNL     1       5.545   4.326  17.102  0.00  0.00    +0.000 A 
ATOM     16  C   UNL     1       4.758   4.738  18.185  0.00  0.00    +0.000 A 
BRANCH  14  17
ATOM     17  N   UNL     1       6.690   4.850  14.963  0.00  0.00    +0.000 N 
ATOM     18  O   UNL     1       6.330   4.005  14.128  0.00  0.00    +0.000 OA
ATOM     19  O   UNL     1       7.778   5.439  14.941  0.00  0.00    +0.000 OA
ENDBRANCH  14  17
ENDBRANCH   9  11
ENDBRANCH   1   9
BRANCH   1  20
ATOM     20  C   UNL     1       1.893   7.455  20.842  0.00  0.00    +0.000 C 
BRANCH  20  21
ATOM     21  C   UNL     1       1.267   8.690  20.238  0.00  0.00    +0.000 C 
ATOM     22  O   UNL     1       1.484   9.003  19.068  0.00  0.00    +0.000 OA
BRANCH  21  27
ATOM     23  C   UNL     1      -2.033  12.373  23.301  0.00  0.00    +0.000 C 
ATOM     24  C   UNL     1      -1.185  11.409  22.522  0.00  0.00    +0.000 A 
ATOM     25  C   UNL     1      -0.729  11.737  21.244  0.00  0.00    +0.000 A 
ATOM     26  C   UNL     1       0.063  10.838  20.526  0.00  0.00    +0.000 A 
ATOM     27  C   UNL     1       0.418   9.596  21.072  0.00  0.00    +0.000 A 
ATOM     28  C   UNL     1      -0.025   9.269  22.357  0.00  0.00    +0.000 A 
ATOM     29  C   UNL     1      -0.824  10.173  23.074  0.00  0.00    +0.000 A 
ENDBRANCH  21  27
ENDBRANCH  20  21
ENDBRANCH   1  20
TORSDOF 7
ENDMDL
MODEL 6
REMARK VINA RESULT:      -8.8      2.075      2.547
REMARK  Name = 
REMARK  8 active torsions:
REMARK  status: ('A' for Active; 'I' for Inactive)
REMARK    1  A    between atoms: C_1  and  C_2
REMARK    2  A    between atoms: C_5  and  C_6
REMARK    3  A    between atoms: C_6  and  C_8
REMARK    4  A    between atoms: C_8  and  C_9
REMARK    5  A    between atoms: C_9  and  N_10
REMARK    6  A    between atoms: C_9  and  C_20
REMARK    7  A    between atoms: N_10  and  C_11
REMARK    8  A    between atoms: C_14  and  N_15
REMARK                            x       y       z     vdW  Elec       q    Type
REMARK                         _______ _______ _______ _____ _____    ______ ____
ROOT
ATOM      1  C   UNL     1       2.669   6.195  18.686  0.00  0.00    +0.000 C 
ENDROOT
BRANCH   1   2
ATOM      2  C   UNL     1       2.145   4.971  19.444  0.00  0.00    +0.000 A 
ATOM      3  C   UNL     1       2.332   4.758  20.820  0.00  0.00    +0.000 A 
ATOM      4  C   UNL     1       1.848   3.603  21.446  0.00  0.00    +0.000 A 
ATOM      5  C   UNL     1       1.171   2.638  20.707  0.00  0.00    +0.000 A 
ATOM      6  C   UNL     1       0.966   2.843  19.351  0.00  0.00    +0.000 A 
ATOM      7  F   UNL     1       0.314   1.917  18.634  0.00  0.00    +0.000 F 
ATOM      8  C   UNL     1       1.434   3.992  18.721  0.00  0.00    +0.000 A 
ENDBRANCH   1   2
BRANCH   1   9
ATOM      9  N   UNL     1       4.141   6.146  18.727  0.00  0.00    +0.000 N 
ATOM     10  H   UNL     1       4.577   6.272  19.634  0.00  0.00    +0.000 HD
BRANCH   9  11
ATOM     11  C   UNL     1       4.931   5.635  17.710  0.00  0.00    +0.000 A 
ATOM     12  C   UNL     1       4.455   4.733  16.748  0.00  0.00    +0.000 A 
ATOM     13  C   UNL     1       5.181   4.447  15.591  0.00  0.00    +0.000 A 
ATOM     14  C   UNL     1       6.417   5.064  15.389  0.00  0.00    +0.000 A 
ATOM     15  C   UNL     1       6.959   5.895  16.371  0.00  0.00    +0.000 A 
ATOM     16  C   UNL     1       6.214   6.173  17.523  0.00  0.00    +0.000 A 
BRANCH  14  17
ATOM     17  N   UNL     1       7.112   4.887  14.108  0.00  0.00    +0.000 N 
ATOM     18  O   UNL     1       6.676   4.024  13.330  0.00  0.00    +0.000 OA
ATOM     19  O   UNL     1       8.074   5.628  13.867  0.00  0.00    +0.000 OA
ENDBRANCH  14  17
ENDBRANCH   9  11
ENDBRANCH   1   9
BRANCH   1  20
ATOM     20  C   UNL     1       2.202   7.577  19.227  0.00  0.00    +0.000 C 
BRANCH  20  21
ATOM     21  C   UNL     1       2.188   8.619  18.134  0.00  0.00    +0.000 C 
ATOM     22  O   UNL     1       2.801   8.443  17.082  0.00  0.00    +0.000 OA
BRANCH  21  27
ATOM     23  C   UNL     1      -0.369  13.791  18.872  0.00  0.00    +0.000 C 
ATOM     24  C   UNL     1       0.275  12.448  18.680  0.00  0.00    +0.000 A 
ATOM     25  C   UNL     1       1.640  12.348  18.405  0.00  0.00    +0.000 A 
ATOM     26  C   UNL     1       2.234  11.096  18.232  0.00  0.00    +0.000 A 
ATOM     27  C   UNL     1       1.477   9.919  18.334  0.00  0.00    +0.000 A 
ATOM     28  C   UNL     1       0.112  10.015  18.623  0.00  0.00    +0.000 A 
ATOM     29  C   UNL     1      -0.482  11.275  18.792  0.00  0.00    +0.000 A 
ENDBRANCH  21  27
ENDBRANCH  20  21
ENDBRANCH   1  20
TORSDOF 7
ENDMDL
MODEL 7
REMARK VINA RESULT:      -8.8      1.270      1.826
REMARK  Name = 
REMARK  8 active torsions:
REMARK  status: ('A' for Active; 'I' for Inactive)
REMARK    1  A    between atoms: C_1  and  C_2
REMARK    2  A    between atoms: C_5  and  C_6
REMARK    3  A    between atoms: C_6  and  C_8
REMARK    4  A    between atoms: C_8  and  C_9
REMARK    5  A    between atoms: C_9  and  N_10
REMARK    6  A    between atoms: C_9  and  C_20
REMARK    7  A    between atoms: N_10  and  C_11
REMARK    8  A    between atoms: C_14  and  N_15
REMARK                            x       y       z     vdW  Elec       q    Type
REMARK                         _______ _______ _______ _____ _____    ______ ____
ROOT
ATOM      1  C   UNL     1       2.707   6.275  18.735  0.00  0.00    +0.000 C 
ENDROOT
BRANCH   1   2
ATOM      2  C   UNL     1       2.139   4.931  19.202  0.00  0.00    +0.000 A 
ATOM      3  C   UNL     1       1.494   4.013  18.357  0.00  0.00    +0.000 A 
ATOM      4  C   UNL     1       0.976   2.811  18.856  0.00  0.00    +0.000 A 
ATOM      5  C   UNL     1       1.088   2.508  20.209  0.00  0.00    +0.000 A 
ATOM      6  C   UNL     1       1.737   3.399  21.051  0.00  0.00    +0.000 A 
ATOM      7  F   UNL     1       1.849   3.112  22.356  0.00  0.00    +0.000 F 
ATOM      8  C   UNL     1       2.265   4.591  20.564  0.00  0.00    +0.000 A 
ENDBRANCH   1   2
BRANCH   1   9
ATOM      9  N   UNL     1       4.173   6.205  18.856  0.00  0.00    +0.000 N 
ATOM     10  H   UNL     1       4.547   6.051  19.787  0.00  0.00    +0.000 HD
BRANCH   9  11
ATOM     11  C   UNL     1       5.034   6.015  17.788  0.00  0.00    +0.000 A 
ATOM     12  C   UNL     1       6.093   5.097  17.811  0.00  0.00    +0.000 A 
ATOM     13  C   UNL     1       6.771   4.732  16.646  0.00  0.00    +0.000 A 
ATOM     14  C   UNL     1       6.392   5.299  15.428  0.00  0.00    +0.000 A 
ATOM     15  C   UNL     1       5.402   6.284  15.386  0.00  0.00    +0.000 A 
ATOM     16  C   UNL     1       4.733   6.635  16.565  0.00  0.00    +0.000 A 
BRANCH  14  17
ATOM     17  N   UNL     1       6.994   4.807  14.184  0.00  0.00    +0.000 N 
ATOM     18  O   UNL     1       7.956   5.437  13.719  0.00  0.00    +0.000 OA
ATOM     19  O   UNL     1       6.524   3.774  13.686  0.00  0.00    +0.000 OA
ENDBRANCH  14  17
ENDBRANCH   9  11
ENDBRANCH   1   9
BRANCH   1  20
ATOM     20  C   UNL     1       2.203   7.528  19.508  0.00  0.00    +0.000 C 
BRANCH  20  21
ATOM     21  C   UNL     1       1.803   8.634  18.560  0.00  0.00    +0.000 C 
ATOM     22  O   UNL     1       2.379   8.786  17.484  0.00  0.00    +0.000 OA
BRANCH  21  27
ATOM     23  C   UNL     1      -2.438  12.408  19.826  0.00  0.00    +0.000 C 
ATOM     24  C   UNL     1      -1.339  11.433  19.517  0.00  0.00    +0.000 A 
ATOM     25  C   UNL     1      -1.252  10.838  18.257  0.00  0.00    +0.000 A 
ATOM     26  C   UNL     1      -0.225   9.935  17.973  0.00  0.00    +0.000 A 
ATOM     27  C   UNL     1       0.737   9.612  18.942  0.00  0.00    +0.000 A 
ATOM     28  C   UNL     1       0.661  10.215  20.201  0.00  0.00    +0.000 A 
ATOM     29  C   UNL     1      -0.375  11.119  20.483  0.00  0.00    +0.000 A 
ENDBRANCH  21  27
ENDBRANCH  20  21
ENDBRANCH   1  20
TORSDOF 7
ENDMDL
MODEL 8
REMARK VINA RESULT:      -8.8      1.023      1.700
REMARK  Name = 
REMARK  8 active torsions:
REMARK  status: ('A' for Active; 'I' for Inactive)
REMARK    1  A    between atoms: C_1  and  C_2
REMARK    2  A    between atoms: C_5  and  C_6
REMARK    3  A    between atoms: C_6  and  C_8
REMARK    4  A    between atoms: C_8  and  C_9
REMARK    5  A    between atoms: C_9  and  N_10
REMARK    6  A    between atoms: C_9  and  C_20
REMARK    7  A    between atoms: N_10  and  C_11
REMARK    8  A    between atoms: C_14  and  N_15
REMARK                            x       y       z     vdW  Elec       q    Type
REMARK                         _______ _______ _______ _____ _____    ______ ____
ROOT
ATOM      1  C   UNL     1       2.517   6.255  19.203  0.00  0.00    +0.000 C 
ENDROOT
BRANCH   1   2
ATOM      2  C   UNL     1       2.012   4.910  19.735  0.00  0.00    +0.000 A 
ATOM      3  C   UNL     1       2.183   4.474  21.060  0.00  0.00    +0.000 A 
ATOM      4  C   UNL     1       1.717   3.221  21.475  0.00  0.00    +0.000 A 
ATOM      5  C   UNL     1       1.077   2.378  20.572  0.00  0.00    +0.000 A 
ATOM      6  C   UNL     1       0.888   2.802  19.266  0.00  0.00    +0.000 A 
ATOM      7  F   UNL     1       0.271   1.995  18.391  0.00  0.00    +0.000 F 
ATOM      8  C   UNL     1       1.337   4.050  18.845  0.00  0.00    +0.000 A 
ENDBRANCH   1   2
BRANCH   1   9
ATOM      9  N   UNL     1       3.939   6.090  18.859  0.00  0.00    +0.000 N 
ATOM     10  H   UNL     1       4.587   5.989  19.633  0.00  0.00    +0.000 HD
BRANCH   9  11
ATOM     11  C   UNL     1       4.401   5.751  17.598  0.00  0.00    +0.000 A 
ATOM     12  C   UNL     1       4.651   6.695  16.593  0.00  0.00    +0.000 A 
ATOM     13  C   UNL     1       5.364   6.364  15.438  0.00  0.00    +0.000 A 
ATOM     14  C   UNL     1       5.830   5.059  15.273  0.00  0.00    +0.000 A 
ATOM     15  C   UNL     1       5.517   4.074  16.213  0.00  0.00    +0.000 A 
ATOM     16  C   UNL     1       4.804   4.426  17.365  0.00  0.00    +0.000 A 
BRANCH  14  17
ATOM     17  N   UNL     1       6.707   4.743  14.140  0.00  0.00    +0.000 N 
ATOM     18  O   UNL     1       7.719   5.443  13.981  0.00  0.00    +0.000 OA
ATOM     19  O   UNL     1       6.402   3.778  13.426  0.00  0.00    +0.000 OA
ENDBRANCH  14  17
ENDBRANCH   9  11
ENDBRANCH   1   9
BRANCH   1  20
ATOM     20  C   UNL     1       2.376   7.463  20.173  0.00  0.00    +0.000 C 
BRANCH  20  21
ATOM     21  C   UNL     1       1.523   8.555  19.572  0.00  0.00    +0.000 C 
ATOM     22  O   UNL     1       1.536   8.776  18.362  0.00  0.00    +0.000 OA
BRANCH  21  27
ATOM     23  C   UNL     1      -1.686  11.824  23.157  0.00  0.00    +0.000 C 
ATOM     24  C   UNL     1      -0.856  10.994  22.220  0.00  0.00    +0.000 A 
ATOM     25  C   UNL     1      -0.321   9.774  22.637  0.00  0.00    +0.000 A 
ATOM     26  C   UNL     1       0.446   9.004  21.760  0.00  0.00    +0.000 A 
ATOM     27  C   UNL     1       0.690   9.436  20.448  0.00  0.00    +0.000 A 
ATOM     28  C   UNL     1       0.145  10.651  20.022  0.00  0.00    +0.000 A 
ATOM     29  C   UNL     1      -0.622  11.424  20.907  0.00  0.00    +0.000 A 
ENDBRANCH  21  27
ENDBRANCH  20  21
ENDBRANCH   1  20
TORSDOF 7
ENDMDL
MODEL 9
REMARK VINA RESULT:      -8.8      1.080      1.732
REMARK  Name = 
REMARK  8 active torsions:
REMARK  status: ('A' for Active; 'I' for Inactive)
REMARK    1  A    between atoms: C_1  and  C_2
REMARK    2  A    between atoms: C_5  and  C_6
REMARK    3  A    between atoms: C_6  and  C_8
REMARK    4  A    between atoms: C_8  and  C_9
REMARK    5  A    between atoms: C_9  and  N_10
REMARK    6  A    between atoms: C_9  and  C_20
REMARK    7  A    between atoms: N_10  and  C_11
REMARK    8  A    between atoms: C_14  and  N_15
REMARK                            x       y       z     vdW  Elec       q    Type
REMARK                         _______ _______ _______ _____ _____    ______ ____
ROOT
ATOM      1  C   UNL     1       1.912   6.469  19.927  0.00  0.00    +0.000 C 
ENDROOT
BRANCH   1   2
ATOM      2  C   UNL     1       1.765   4.979  20.251  0.00  0.00    +0.000 A 
ATOM      3  C   UNL     1       2.216   4.385  21.442  0.00  0.00    +0.000 A 
ATOM      4  C   UNL     1       2.072   3.010  21.664  0.00  0.00    +0.000 A 
ATOM      5  C   UNL     1       1.479   2.203  20.698  0.00  0.00    +0.000 A 
ATOM      6  C   UNL     1       1.016   2.780  19.524  0.00  0.00    +0.000 A 
ATOM      7  F   UNL     1       0.444   2.008  18.590  0.00  0.00    +0.000 F 
ATOM      8  C   UNL     1       1.145   4.147  19.298  0.00  0.00    +0.000 A 
ENDBRANCH   1   2
BRANCH   1   9
ATOM      9  N   UNL     1       3.348   6.747  19.755  0.00  0.00    +0.000 N 
ATOM     10  H   UNL     1       3.823   7.196  20.532  0.00  0.00    +0.000 HD
BRANCH   9  11
ATOM     11  C   UNL     1       4.141   6.168  18.778  0.00  0.00    +0.000 A 
ATOM     12  C   UNL     1       4.230   6.663  17.470  0.00  0.00    +0.000 A 
ATOM     13  C   UNL     1       5.228   6.235  16.591  0.00  0.00    +0.000 A 
ATOM     14  C   UNL     1       6.155   5.284  17.020  0.00  0.00    +0.000 A 
ATOM     15  C   UNL     1       6.037   4.705  18.286  0.00  0.00    +0.000 A 
ATOM     16  C   UNL     1       5.032   5.149  19.153  0.00  0.00    +0.000 A 
BRANCH  14  17
ATOM     17  N   UNL     1       7.293   4.945  16.158  0.00  0.00    +0.000 N 
ATOM     18  O   UNL     1       8.169   4.200  16.625  0.00  0.00    +0.000 OA
ATOM     19  O   UNL     1       7.298   5.399  15.006  0.00  0.00    +0.000 OA
ENDBRANCH  14  17
ENDBRANCH   9  11
ENDBRANCH   1   9
BRANCH   1  20
ATOM     20  C   UNL     1       1.339   7.452  20.988  0.00  0.00    +0.000 C 
BRANCH  20  21
ATOM     21  C   UNL     1       1.019   8.795  20.376  0.00  0.00    +0.000 C 
ATOM     22  O   UNL     1       1.504   9.133  19.297  0.00  0.00    +0.000 OA
BRANCH  21  27
ATOM     23  C   UNL     1      -2.328  12.463  23.407  0.00  0.00    +0.000 C 
ATOM     24  C   UNL     1      -1.462  11.529  22.612  0.00  0.00    +0.000 A 
ATOM     25  C   UNL     1      -0.955  10.364  23.191  0.00  0.00    +0.000 A 
ATOM     26  C   UNL     1      -0.154   9.497  22.445  0.00  0.00    +0.000 A 
ATOM     27  C   UNL     1       0.153   9.774  21.105  0.00  0.00    +0.000 A 
ATOM     28  C   UNL     1      -0.363  10.932  20.517  0.00  0.00    +0.000 A 
ATOM     29  C   UNL     1      -1.164  11.804  21.270  0.00  0.00    +0.000 A 
ENDBRANCH  21  27
ENDBRANCH  20  21
ENDBRANCH   1  20
TORSDOF 7
ENDMDL
