MODEL 1
REMARK VINA RESULT:      -8.4      0.000      0.000
REMARK  Name = 
REMARK  4 active torsions:
REMARK  status: ('A' for Active; 'I' for Inactive)
REMARK    1  A    between atoms: C_1  and  C_2
REMARK    2  A    between atoms: C_12  and  N_13
REMARK    3  A    between atoms: N_13  and  C_14
REMARK    4  A    between atoms: C_14  and  C_15
REMARK                            x       y       z     vdW  Elec       q    Type
REMARK                         _______ _______ _______ _____ _____    ______ ____
ROOT
ATOM      1  C   UNL     1       3.338  15.624  17.352  0.00  0.00    +0.000 C 
ATOM      2  C   UNL     1       2.954  15.772  18.802  0.00  0.00    +0.000 C 
ATOM      3  O   UNL     1       2.955  16.885  19.330  0.00  0.00    +0.000 OA
ATOM      4  N   UNL     1       2.552  14.630  19.466  0.00  0.00    +0.000 N 
ATOM      5  C   UNL     1       2.062  14.732  20.849  0.00  0.00    +0.000 C 
ATOM      6  C   UNL     1       0.796  13.875  21.064  0.00  0.00    +0.000 C 
ATOM      7  N   UNL     1       1.074  12.511  20.616  0.00  0.00    +0.000 N 
ATOM      8  C   UNL     1       0.577  11.422  21.281  0.00  0.00    +0.000 A 
ATOM      9  N   UNL     1      -0.257  11.607  22.312  0.00  0.00    +0.000 NA
ATOM     10  C   UNL     1      -0.670  10.510  22.965  0.00  0.00    +0.000 A 
ATOM     11  C   UNL     1      -0.274   9.234  22.642  0.00  0.00    +0.000 A 
ATOM     12  C   UNL     1       0.605   9.121  21.593  0.00  0.00    +0.000 A 
ATOM     13  N   UNL     1       1.008  10.202  20.908  0.00  0.00    +0.000 NA
ATOM     14  C   UNL     1       1.513  12.371  19.230  0.00  0.00    +0.000 C 
ATOM     15  C   UNL     1       2.753  13.250  18.991  0.00  0.00    +0.000 C 
ENDROOT
BRANCH  12  16
ATOM     16  N   UNL     1       1.204   7.940  21.209  0.00  0.00    +0.000 N 
ATOM     17  H   UNL     1       1.498   7.422  22.031  0.00  0.00    +0.000 HD
BRANCH  16  18
ATOM     18  C   UNL     1       2.053   7.787  20.041  0.00  0.00    +0.000 C 
BRANCH  18  19
ATOM     19  C   UNL     1       2.261   6.324  19.680  0.00  0.00    +0.000 A 
ATOM     20  C   UNL     1       1.622   5.372  20.503  0.00  0.00    +0.000 A 
ATOM     21  C   UNL     1       1.825   4.009  20.318  0.00  0.00    +0.000 A 
ATOM     22  C   UNL     1       2.674   3.565  19.312  0.00  0.00    +0.000 A 
ATOM     23  C   UNL     1       3.321   4.473  18.464  0.00  0.00    +0.000 A 
ATOM     24  C   UNL     1       4.176   3.980  17.465  0.00  0.00    +0.000 A 
ATOM     25  C   UNL     1       4.840   4.842  16.598  0.00  0.00    +0.000 A 
ATOM     26  C   UNL     1       4.643   6.210  16.715  0.00  0.00    +0.000 A 
ATOM     27  C   UNL     1       3.795   6.716  17.710  0.00  0.00    +0.000 A 
ATOM     28  C   UNL     1       3.116   5.873  18.625  0.00  0.00    +0.000 A 
ENDBRANCH  18  19
ENDBRANCH  16  18
ENDBRANCH  12  16
TORSDOF 3
ENDMDL
MODEL 2
REMARK VINA RESULT:      -8.0      1.757      2.132
REMARK  Name = 
REMARK  4 active torsions:
REMARK  status: ('A' for Active; 'I' for Inactive)
REMARK    1  A    between atoms: C_1  and  C_2
REMARK    2  A    between atoms: C_12  and  N_13
REMARK    3  A    between atoms: N_13  and  C_14
REMARK    4  A    between atoms: C_14  and  C_15
REMARK                            x       y       z     vdW  Elec       q    Type
REMARK                         _______ _______ _______ _____ _____    ______ ____
ROOT
ATOM      1  C   UNL     1      -0.399  16.774  18.205  0.00  0.00    +0.000 C 
ATOM      2  C   UNL     1       0.248  16.360  19.501  0.00  0.00    +0.000 C 
ATOM      3  O   UNL     1       0.420  17.187  20.397  0.00  0.00    +0.000 OA
ATOM      4  N   UNL     1       0.569  15.024  19.645  0.00  0.00    +0.000 N 
ATOM      5  C   UNL     1       1.102  14.543  20.929  0.00  0.00    +0.000 C 
ATOM      6  C   UNL     1       0.446  13.208  21.346  0.00  0.00    +0.000 C 
ATOM      7  N   UNL     1       0.572  12.260  20.241  0.00  0.00    +0.000 N 
ATOM      8  C   UNL     1       0.816  10.931  20.461  0.00  0.00    +0.000 A 
ATOM      9  N   UNL     1       0.849  10.468  21.717  0.00  0.00    +0.000 NA
ATOM     10  C   UNL     1       1.149   9.170  21.880  0.00  0.00    +0.000 A 
ATOM     11  C   UNL     1       1.430   8.314  20.842  0.00  0.00    +0.000 A 
ATOM     12  C   UNL     1       1.405   8.862  19.583  0.00  0.00    +0.000 A 
ATOM     13  N   UNL     1       1.082  10.151  19.395  0.00  0.00    +0.000 NA
ATOM     14  C   UNL     1       0.006  12.688  18.964  0.00  0.00    +0.000 C 
ATOM     15  C   UNL     1       0.624  14.037  18.554  0.00  0.00    +0.000 C 
ENDROOT
BRANCH  12  16
ATOM     16  N   UNL     1       1.782   8.191  18.439  0.00  0.00    +0.000 N 
ATOM     17  H   UNL     1       1.043   7.555  18.155  0.00  0.00    +0.000 HD
BRANCH  16  18
ATOM     18  C   UNL     1       3.132   7.742  18.153  0.00  0.00    +0.000 C 
BRANCH  18  19
ATOM     19  C   UNL     1       3.172   6.264  17.791  0.00  0.00    +0.000 A 
ATOM     20  C   UNL     1       2.105   5.468  18.263  0.00  0.00    +0.000 A 
ATOM     21  C   UNL     1       2.096   4.091  18.070  0.00  0.00    +0.000 A 
ATOM     22  C   UNL     1       3.151   3.476  17.408  0.00  0.00    +0.000 A 
ATOM     23  C   UNL     1       4.224   4.228  16.913  0.00  0.00    +0.000 A 
ATOM     24  C   UNL     1       5.273   3.563  16.256  0.00  0.00    +0.000 A 
ATOM     25  C   UNL     1       6.361   4.266  15.747  0.00  0.00    +0.000 A 
ATOM     26  C   UNL     1       6.402   5.646  15.879  0.00  0.00    +0.000 A 
ATOM     27  C   UNL     1       5.364   6.322  16.535  0.00  0.00    +0.000 A 
ATOM     28  C   UNL     1       4.249   5.641  17.085  0.00  0.00    +0.000 A 
ENDBRANCH  18  19
ENDBRANCH  16  18
ENDBRANCH  12  16
TORSDOF 3
ENDMDL
MODEL 3
REMARK VINA RESULT:      -7.9      4.385      8.847
REMARK  Name = 
REMARK  4 active torsions:
REMARK  status: ('A' for Active; 'I' for Inactive)
REMARK    1  A    between atoms: C_1  and  C_2
REMARK    2  A    between atoms: C_12  and  N_13
REMARK    3  A    between atoms: N_13  and  C_14
REMARK    4  A    between atoms: C_14  and  C_15
REMARK                            x       y       z     vdW  Elec       q    Type
REMARK                         _______ _______ _______ _____ _____    ______ ____
ROOT
ATOM      1  C   UNL     1       3.400   2.722  17.496  0.00  0.00    +0.000 C 
ATOM      2  C   UNL     1       2.599   2.926  18.757  0.00  0.00    +0.000 C 
ATOM      3  O   UNL     1       2.409   1.985  19.527  0.00  0.00    +0.000 OA
ATOM      4  N   UNL     1       2.160   4.209  19.022  0.00  0.00    +0.000 N 
ATOM      5  C   UNL     1       1.469   4.489  20.290  0.00  0.00    +0.000 C 
ATOM      6  C   UNL     1       1.972   5.802  20.927  0.00  0.00    +0.000 C 
ATOM      7  N   UNL     1       1.877   6.870  19.933  0.00  0.00    +0.000 N 
ATOM      8  C   UNL     1       1.507   8.142  20.281  0.00  0.00    +0.000 A 
ATOM      9  N   UNL     1       1.316   8.441  21.572  0.00  0.00    +0.000 NA
ATOM     10  C   UNL     1       0.899   9.686  21.853  0.00  0.00    +0.000 A 
ATOM     11  C   UNL     1       0.650  10.643  20.898  0.00  0.00    +0.000 A 
ATOM     12  C   UNL     1       0.840  10.259  19.593  0.00  0.00    +0.000 A 
ATOM     13  N   UNL     1       1.283   9.028  19.291  0.00  0.00    +0.000 NA
ATOM     14  C   UNL     1       2.595   6.644  18.682  0.00  0.00    +0.000 C 
ATOM     15  C   UNL     1       2.131   5.318  18.054  0.00  0.00    +0.000 C 
ENDROOT
BRANCH  12  16
ATOM     16  N   UNL     1       0.523  11.040  18.503  0.00  0.00    +0.000 N 
ATOM     17  H   UNL     1       1.333  11.130  17.898  0.00  0.00    +0.000 HD
BRANCH  16  18
ATOM     18  C   UNL     1      -0.354  12.196  18.543  0.00  0.00    +0.000 C 
BRANCH  18  19
ATOM     19  C   UNL     1      -1.802  11.818  18.266  0.00  0.00    +0.000 A 
ATOM     20  C   UNL     1      -2.076  11.245  17.006  0.00  0.00    +0.000 A 
ATOM     21  C   UNL     1      -3.378  10.953  16.616  0.00  0.00    +0.000 A 
ATOM     22  C   UNL     1      -4.436  11.231  17.472  0.00  0.00    +0.000 A 
ATOM     23  C   UNL     1      -4.210  11.790  18.737  0.00  0.00    +0.000 A 
ATOM     24  C   UNL     1      -5.311  12.061  19.566  0.00  0.00    +0.000 A 
ATOM     25  C   UNL     1      -5.138  12.615  20.831  0.00  0.00    +0.000 A 
ATOM     26  C   UNL     1      -3.856  12.891  21.284  0.00  0.00    +0.000 A 
ATOM     27  C   UNL     1      -2.749  12.629  20.465  0.00  0.00    +0.000 A 
ATOM     28  C   UNL     1      -2.884  12.083  19.163  0.00  0.00    +0.000 A 
ENDBRANCH  18  19
ENDBRANCH  16  18
ENDBRANCH  12  16
TORSDOF 3
ENDMDL
MODEL 4
REMARK VINA RESULT:      -7.8      1.690      2.536
REMARK  Name = 
REMARK  4 active torsions:
REMARK  status: ('A' for Active; 'I' for Inactive)
REMARK    1  A    between atoms: C_1  and  C_2
REMARK    2  A    between atoms: C_12  and  N_13
REMARK    3  A    between atoms: N_13  and  C_14
REMARK    4  A    between atoms: C_14  and  C_15
REMARK                            x       y       z     vdW  Elec       q    Type
REMARK                         _______ _______ _______ _____ _____    ______ ____
ROOT
ATOM      1  C   UNL     1      -0.319  16.808  18.266  0.00  0.00    +0.000 C 
ATOM      2  C   UNL     1      -0.108  16.601  19.744  0.00  0.00    +0.000 C 
ATOM      3  O   UNL     1      -0.186  17.556  20.518  0.00  0.00    +0.000 OA
ATOM      4  N   UNL     1       0.108  15.306  20.174  0.00  0.00    +0.000 N 
ATOM      5  C   UNL     1       0.212  15.031  21.615  0.00  0.00    +0.000 C 
ATOM      6  C   UNL     1      -0.586  13.767  22.006  0.00  0.00    +0.000 C 
ATOM      7  N   UNL     1      -0.165  12.664  21.143  0.00  0.00    +0.000 N 
ATOM      8  C   UNL     1      -0.045  11.386  21.620  0.00  0.00    +0.000 A 
ATOM      9  N   UNL     1      -0.408  11.119  22.881  0.00  0.00    +0.000 NA
ATOM     10  C   UNL     1      -0.218   9.864  23.317  0.00  0.00    +0.000 A 
ATOM     11  C   UNL     1       0.334   8.865  22.550  0.00  0.00    +0.000 A 
ATOM     12  C   UNL     1       0.709   9.216  21.277  0.00  0.00    +0.000 A 
ATOM     13  N   UNL     1       0.502  10.458  20.812  0.00  0.00    +0.000 NA
ATOM     14  C   UNL     1      -0.304  12.888  19.706  0.00  0.00    +0.000 C 
ATOM     15  C   UNL     1       0.455  14.166  19.308  0.00  0.00    +0.000 C 
ENDROOT
BRANCH  12  16
ATOM     16  N   UNL     1       1.389   8.384  20.413  0.00  0.00    +0.000 N 
ATOM     17  H   UNL     1       1.282   8.717  19.460  0.00  0.00    +0.000 HD
BRANCH  16  18
ATOM     18  C   UNL     1       1.486   6.943  20.560  0.00  0.00    +0.000 C 
BRANCH  18  19
ATOM     19  C   UNL     1       2.327   6.317  19.457  0.00  0.00    +0.000 A 
ATOM     20  C   UNL     1       3.193   7.181  18.754  0.00  0.00    +0.000 A 
ATOM     21  C   UNL     1       3.933   6.730  17.666  0.00  0.00    +0.000 A 
ATOM     22  C   UNL     1       3.821   5.408  17.253  0.00  0.00    +0.000 A 
ATOM     23  C   UNL     1       2.983   4.512  17.929  0.00  0.00    +0.000 A 
ATOM     24  C   UNL     1       2.896   3.187  17.472  0.00  0.00    +0.000 A 
ATOM     25  C   UNL     1       2.077   2.259  18.110  0.00  0.00    +0.000 A 
ATOM     26  C   UNL     1       1.347   2.648  19.223  0.00  0.00    +0.000 A 
ATOM     27  C   UNL     1       1.422   3.968  19.687  0.00  0.00    +0.000 A 
ATOM     28  C   UNL     1       2.228   4.948  19.054  0.00  0.00    +0.000 A 
ENDBRANCH  18  19
ENDBRANCH  16  18
ENDBRANCH  12  16
TORSDOF 3
ENDMDL
MODEL 5
REMARK VINA RESULT:      -7.7      4.328      8.524
REMARK  Name = 
REMARK  4 active torsions:
REMARK  status: ('A' for Active; 'I' for Inactive)
REMARK    1  A    between atoms: C_1  and  C_2
REMARK    2  A    between atoms: C_12  and  N_13
REMARK    3  A    between atoms: N_13  and  C_14
REMARK    4  A    between atoms: C_14  and  C_15
REMARK                            x       y       z     vdW  Elec       q    Type
REMARK                         _______ _______ _______ _____ _____    ______ ____
ROOT
ATOM      1  C   UNL     1       7.619   5.612  14.516  0.00  0.00    +0.000 C 
ATOM      2  C   UNL     1       6.499   4.603  14.494  0.00  0.00    +0.000 C 
ATOM      3  O   UNL     1       6.472   3.730  13.626  0.00  0.00    +0.000 OA
ATOM      4  N   UNL     1       5.569   4.673  15.513  0.00  0.00    +0.000 N 
ATOM      5  C   UNL     1       4.518   3.648  15.604  0.00  0.00    +0.000 C 
ATOM      6  C   UNL     1       4.322   3.171  17.060  0.00  0.00    +0.000 C 
ATOM      7  N   UNL     1       4.107   4.341  17.909  0.00  0.00    +0.000 N 
ATOM      8  C   UNL     1       3.221   4.316  18.954  0.00  0.00    +0.000 A 
ATOM      9  N   UNL     1       2.604   3.169  19.264  0.00  0.00    +0.000 NA
ATOM     10  C   UNL     1       1.703   3.212  20.258  0.00  0.00    +0.000 A 
ATOM     11  C   UNL     1       1.382   4.356  20.949  0.00  0.00    +0.000 A 
ATOM     12  C   UNL     1       2.033   5.501  20.560  0.00  0.00    +0.000 A 
ATOM     13  N   UNL     1       2.956   5.475  19.587  0.00  0.00    +0.000 NA
ATOM     14  C   UNL     1       5.159   5.354  17.880  0.00  0.00    +0.000 C 
ATOM     15  C   UNL     1       5.392   5.812  16.429  0.00  0.00    +0.000 C 
ENDROOT
BRANCH  12  16
ATOM     16  N   UNL     1       1.749   6.757  21.051  0.00  0.00    +0.000 N 
ATOM     17  H   UNL     1       1.084   6.685  21.814  0.00  0.00    +0.000 HD
BRANCH  16  18
ATOM     18  C   UNL     1       1.634   7.955  20.237  0.00  0.00    +0.000 C 
BRANCH  18  19
ATOM     19  C   UNL     1       0.826   9.038  20.936  0.00  0.00    +0.000 A 
ATOM     20  C   UNL     1       0.798   8.997  22.347  0.00  0.00    +0.000 A 
ATOM     21  C   UNL     1       0.012   9.881  23.077  0.00  0.00    +0.000 A 
ATOM     22  C   UNL     1      -0.767  10.823  22.417  0.00  0.00    +0.000 A 
ATOM     23  C   UNL     1      -0.763  10.907  21.019  0.00  0.00    +0.000 A 
ATOM     24  C   UNL     1      -1.572  11.870  20.394  0.00  0.00    +0.000 A 
ATOM     25  C   UNL     1      -1.601  11.994  19.008  0.00  0.00    +0.000 A 
ATOM     26  C   UNL     1      -0.807  11.160  18.233  0.00  0.00    +0.000 A 
ATOM     27  C   UNL     1       0.003  10.193  18.844  0.00  0.00    +0.000 A 
ATOM     28  C   UNL     1       0.046  10.023  20.251  0.00  0.00    +0.000 A 
ENDBRANCH  18  19
ENDBRANCH  16  18
ENDBRANCH  12  16
TORSDOF 3
ENDMDL
MODEL 6
REMARK VINA RESULT:      -7.7      4.632      8.692
REMARK  Name = 
REMARK  4 active torsions:
REMARK  status: ('A' for Active; 'I' for Inactive)
REMARK    1  A    between atoms: C_1  and  C_2
REMARK    2  A    between atoms: C_12  and  N_13
REMARK    3  A    between atoms: N_13  and  C_14
REMARK    4  A    between atoms: C_14  and  C_15
REMARK                            x       y       z     vdW  Elec       q    Type
REMARK                         _______ _______ _______ _____ _____    ______ ____
ROOT
ATOM      1  C   UNL     1       6.897   5.100  14.753  0.00  0.00    +0.000 C 
ATOM      2  C   UNL     1       5.923   4.381  15.651  0.00  0.00    +0.000 C 
ATOM      3  O   UNL     1       6.021   3.165  15.819  0.00  0.00    +0.000 OA
ATOM      4  N   UNL     1       4.983   5.154  16.304  0.00  0.00    +0.000 N 
ATOM      5  C   UNL     1       4.078   4.521  17.276  0.00  0.00    +0.000 C 
ATOM      6  C   UNL     1       3.934   5.379  18.552  0.00  0.00    +0.000 C 
ATOM      7  N   UNL     1       3.556   6.737  18.162  0.00  0.00    +0.000 N 
ATOM      8  C   UNL     1       2.672   7.476  18.902  0.00  0.00    +0.000 A 
ATOM      9  N   UNL     1       2.211   6.983  20.059  0.00  0.00    +0.000 NA
ATOM     10  C   UNL     1       1.304   7.722  20.717  0.00  0.00    +0.000 A 
ATOM     11  C   UNL     1       0.825   8.928  20.262  0.00  0.00    +0.000 A 
ATOM     12  C   UNL     1       1.321   9.359  19.056  0.00  0.00    +0.000 A 
ATOM     13  N   UNL     1       2.249   8.649  18.395  0.00  0.00    +0.000 NA
ATOM     14  C   UNL     1       4.463   7.411  17.237  0.00  0.00    +0.000 C 
ATOM     15  C   UNL     1       4.646   6.549  15.975  0.00  0.00    +0.000 C 
ENDROOT
BRANCH  12  16
ATOM     16  N   UNL     1       0.867  10.476  18.387  0.00  0.00    +0.000 N 
ATOM     17  H   UNL     1       1.634  10.910  17.884  0.00  0.00    +0.000 HD
BRANCH  16  18
ATOM     18  C   UNL     1      -0.137  11.392  18.899  0.00  0.00    +0.000 C 
BRANCH  18  19
ATOM     19  C   UNL     1      -1.523  11.071  18.358  0.00  0.00    +0.000 A 
ATOM     20  C   UNL     1      -1.584  10.193  17.254  0.00  0.00    +0.000 A 
ATOM     21  C   UNL     1      -2.792   9.911  16.625  0.00  0.00    +0.000 A 
ATOM     22  C   UNL     1      -3.964  10.503  17.079  0.00  0.00    +0.000 A 
ATOM     23  C   UNL     1      -3.952  11.372  18.178  0.00  0.00    +0.000 A 
ATOM     24  C   UNL     1      -5.160  11.953  18.597  0.00  0.00    +0.000 A 
ATOM     25  C   UNL     1      -5.200  12.822  19.684  0.00  0.00    +0.000 A 
ATOM     26  C   UNL     1      -4.029  13.107  20.370  0.00  0.00    +0.000 A 
ATOM     27  C   UNL     1      -2.816  12.537  19.960  0.00  0.00    +0.000 A 
ATOM     28  C   UNL     1      -2.730  11.663  18.847  0.00  0.00    +0.000 A 
ENDBRANCH  18  19
ENDBRANCH  16  18
ENDBRANCH  12  16
TORSDOF 3
ENDMDL
MODEL 7
REMARK VINA RESULT:      -7.7      1.543      2.009
REMARK  Name = 
REMARK  4 active torsions:
REMARK  status: ('A' for Active; 'I' for Inactive)
REMARK    1  A    between atoms: C_1  and  C_2
REMARK    2  A    between atoms: C_12  and  N_13
REMARK    3  A    between atoms: N_13  and  C_14
REMARK    4  A    between atoms: C_14  and  C_15
REMARK                            x       y       z     vdW  Elec       q    Type
REMARK                         _______ _______ _______ _____ _____    ______ ____
ROOT
ATOM      1  C   UNL     1       0.987  17.253  18.251  0.00  0.00    +0.000 C 
ATOM      2  C   UNL     1       1.484  16.698  19.562  0.00  0.00    +0.000 C 
ATOM      3  O   UNL     1       1.750  17.459  20.493  0.00  0.00    +0.000 OA
ATOM      4  N   UNL     1       1.559  15.324  19.675  0.00  0.00    +0.000 N 
ATOM      5  C   UNL     1       1.933  14.724  20.965  0.00  0.00    +0.000 C 
ATOM      6  C   UNL     1       1.034  13.516  21.306  0.00  0.00    +0.000 C 
ATOM      7  N   UNL     1       1.051  12.588  20.176  0.00  0.00    +0.000 N 
ATOM      8  C   UNL     1       1.048  11.231  20.362  0.00  0.00    +0.000 A 
ATOM      9  N   UNL     1       0.935  10.739  21.602  0.00  0.00    +0.000 NA
ATOM     10  C   UNL     1       0.995   9.404  21.735  0.00  0.00    +0.000 A 
ATOM     11  C   UNL     1       1.177   8.539  20.682  0.00  0.00    +0.000 A 
ATOM     12  C   UNL     1       1.313   9.115  19.442  0.00  0.00    +0.000 A 
ATOM     13  N   UNL     1       1.229  10.445  19.284  0.00  0.00    +0.000 NA
ATOM     14  C   UNL     1       0.635  13.141  18.889  0.00  0.00    +0.000 C 
ATOM     15  C   UNL     1       1.499  14.370  18.554  0.00  0.00    +0.000 C 
ENDROOT
BRANCH  12  16
ATOM     16  N   UNL     1       1.626   8.417  18.295  0.00  0.00    +0.000 N 
ATOM     17  H   UNL     1       0.995   7.629  18.190  0.00  0.00    +0.000 HD
BRANCH  16  18
ATOM     18  C   UNL     1       2.975   8.204  17.801  0.00  0.00    +0.000 C 
BRANCH  18  19
ATOM     19  C   UNL     1       3.362   6.732  17.833  0.00  0.00    +0.000 A 
ATOM     20  C   UNL     1       2.334   5.813  18.130  0.00  0.00    +0.000 A 
ATOM     21  C   UNL     1       2.602   4.457  18.278  0.00  0.00    +0.000 A 
ATOM     22  C   UNL     1       3.902   3.988  18.137  0.00  0.00    +0.000 A 
ATOM     23  C   UNL     1       4.952   4.863  17.831  0.00  0.00    +0.000 A 
ATOM     24  C   UNL     1       6.252   4.345  17.705  0.00  0.00    +0.000 A 
ATOM     25  C   UNL     1       7.328   5.174  17.401  0.00  0.00    +0.000 A 
ATOM     26  C   UNL     1       7.110   6.530  17.206  0.00  0.00    +0.000 A 
ATOM     27  C   UNL     1       5.819   7.059  17.332  0.00  0.00    +0.000 A 
ATOM     28  C   UNL     1       4.700   6.253  17.660  0.00  0.00    +0.000 A 
ENDBRANCH  18  19
ENDBRANCH  16  18
ENDBRANCH  12  16
TORSDOF 3
ENDMDL
MODEL 8
REMARK VINA RESULT:      -7.6      4.422      8.626
REMARK  Name = 
REMARK  4 active torsions:
REMARK  status: ('A' for Active; 'I' for Inactive)
REMARK    1  A    between atoms: C_1  and  C_2
REMARK    2  A    between atoms: C_12  and  N_13
REMARK    3  A    between atoms: N_13  and  C_14
REMARK    4  A    between atoms: C_14  and  C_15
REMARK                            x       y       z     vdW  Elec       q    Type
REMARK                         _______ _______ _______ _____ _____    ______ ____
ROOT
ATOM      1  C   UNL     1       7.419   5.539  13.571  0.00  0.00    +0.000 C 
ATOM      2  C   UNL     1       6.448   4.477  14.022  0.00  0.00    +0.000 C 
ATOM      3  O   UNL     1       6.496   3.349  13.532  0.00  0.00    +0.000 OA
ATOM      4  N   UNL     1       5.570   4.817  15.033  0.00  0.00    +0.000 N 
ATOM      5  C   UNL     1       4.675   3.790  15.588  0.00  0.00    +0.000 C 
ATOM      6  C   UNL     1       4.620   3.864  17.130  0.00  0.00    +0.000 C 
ATOM      7  N   UNL     1       4.290   5.234  17.519  0.00  0.00    +0.000 N 
ATOM      8  C   UNL     1       3.470   5.500  18.584  0.00  0.00    +0.000 A 
ATOM      9  N   UNL     1       3.032   4.488  19.343  0.00  0.00    +0.000 NA
ATOM     10  C   UNL     1       2.186   4.796  20.339  0.00  0.00    +0.000 A 
ATOM     11  C   UNL     1       1.747   6.072  20.601  0.00  0.00    +0.000 A 
ATOM     12  C   UNL     1       2.214   7.056  19.765  0.00  0.00    +0.000 A 
ATOM     13  N   UNL     1       3.082   6.774  18.781  0.00  0.00    +0.000 NA
ATOM     14  C   UNL     1       5.191   6.273  17.026  0.00  0.00    +0.000 C 
ATOM     15  C   UNL     1       5.285   6.187  15.492  0.00  0.00    +0.000 C 
ENDROOT
BRANCH  12  16
ATOM     16  N   UNL     1       1.787   8.366  19.797  0.00  0.00    +0.000 N 
ATOM     17  H   UNL     1       1.261   8.535  20.649  0.00  0.00    +0.000 HD
BRANCH  16  18
ATOM     18  C   UNL     1       1.347   9.120  18.636  0.00  0.00    +0.000 C 
BRANCH  18  19
ATOM     19  C   UNL     1       0.436  10.275  19.024  0.00  0.00    +0.000 A 
ATOM     20  C   UNL     1       0.894  11.125  20.054  0.00  0.00    +0.000 A 
ATOM     21  C   UNL     1       0.097  12.151  20.548  0.00  0.00    +0.000 A 
ATOM     22  C   UNL     1      -1.177  12.350  20.030  0.00  0.00    +0.000 A 
ATOM     23  C   UNL     1      -1.669  11.538  19.000  0.00  0.00    +0.000 A 
ATOM     24  C   UNL     1      -2.965  11.770  18.512  0.00  0.00    +0.000 A 
ATOM     25  C   UNL     1      -3.498  10.991  17.489  0.00  0.00    +0.000 A 
ATOM     26  C   UNL     1      -2.730   9.978  16.935  0.00  0.00    +0.000 A 
ATOM     27  C   UNL     1      -1.436   9.733  17.415  0.00  0.00    +0.000 A 
ATOM     28  C   UNL     1      -0.864  10.491  18.468  0.00  0.00    +0.000 A 
ENDBRANCH  18  19
ENDBRANCH  16  18
ENDBRANCH  12  16
TORSDOF 3
ENDMDL
MODEL 9
REMARK VINA RESULT:      -7.6      4.846      8.864
REMARK  Name = 
REMARK  4 active torsions:
REMARK  status: ('A' for Active; 'I' for Inactive)
REMARK    1  A    between atoms: C_1  and  C_2
REMARK    2  A    between atoms: C_12  and  N_13
REMARK    3  A    between atoms: N_13  and  C_14
REMARK    4  A    between atoms: C_14  and  C_15
REMARK                            x       y       z     vdW  Elec       q    Type
REMARK                         _______ _______ _______ _____ _____    ______ ____
ROOT
ATOM      1  C   UNL     1       4.016   3.218  17.011  0.00  0.00    +0.000 C 
ATOM      2  C   UNL     1       3.318   3.162  18.346  0.00  0.00    +0.000 C 
ATOM      3  O   UNL     1       3.360   2.134  19.021  0.00  0.00    +0.000 OA
ATOM      4  N   UNL     1       2.701   4.318  18.781  0.00  0.00    +0.000 N 
ATOM      5  C   UNL     1       2.098   4.354  20.123  0.00  0.00    +0.000 C 
ATOM      6  C   UNL     1       2.437   5.670  20.857  0.00  0.00    +0.000 C 
ATOM      7  N   UNL     1       2.071   6.793  19.995  0.00  0.00    +0.000 N 
ATOM      8  C   UNL     1       1.532   7.943  20.506  0.00  0.00    +0.000 A 
ATOM      9  N   UNL     1       1.419   8.083  21.833  0.00  0.00    +0.000 NA
ATOM     10  C   UNL     1       0.831   9.204  22.280  0.00  0.00    +0.000 A 
ATOM     11  C   UNL     1       0.338  10.188  21.457  0.00  0.00    +0.000 A 
ATOM     12  C   UNL     1       0.463   9.966  20.107  0.00  0.00    +0.000 A 
ATOM     13  N   UNL     1       1.071   8.865  19.640  0.00  0.00    +0.000 NA
ATOM     14  C   UNL     1       2.694   6.813  18.674  0.00  0.00    +0.000 C 
ATOM     15  C   UNL     1       2.396   5.492  17.944  0.00  0.00    +0.000 C 
ENDROOT
BRANCH  12  16
ATOM     16  N   UNL     1      -0.082  10.779  19.136  0.00  0.00    +0.000 N 
ATOM     17  H   UNL     1       0.659  11.196  18.582  0.00  0.00    +0.000 HD
BRANCH  16  18
ATOM     18  C   UNL     1      -1.262  11.606  19.318  0.00  0.00    +0.000 C 
BRANCH  18  19
ATOM     19  C   UNL     1      -2.327  11.310  18.272  0.00  0.00    +0.000 A 
ATOM     20  C   UNL     1      -1.901  10.634  17.109  0.00  0.00    +0.000 A 
ATOM     21  C   UNL     1      -2.774  10.402  16.052  0.00  0.00    +0.000 A 
ATOM     22  C   UNL     1      -4.089  10.843  16.129  0.00  0.00    +0.000 A 
ATOM     23  C   UNL     1      -4.558  11.508  17.269  0.00  0.00    +0.000 A 
ATOM     24  C   UNL     1      -5.893  11.943  17.300  0.00  0.00    +0.000 A 
ATOM     25  C   UNL     1      -6.406  12.607  18.410  0.00  0.00    +0.000 A 
ATOM     26  C   UNL     1      -5.588  12.832  19.508  0.00  0.00    +0.000 A 
ATOM     27  C   UNL     1      -4.253  12.406  19.488  0.00  0.00    +0.000 A 
ATOM     28  C   UNL     1      -3.687  11.744  18.370  0.00  0.00    +0.000 A 
ENDBRANCH  18  19
ENDBRANCH  16  18
ENDBRANCH  12  16
TORSDOF 3
ENDMDL
