MODEL 1
REMARK VINA RESULT:      -6.1      0.000      0.000
REMARK  Name = 
REMARK  12 active torsions:
REMARK  status: ('A' for Active; 'I' for Inactive)
REMARK    1  A    between atoms: C_1  and  C_2
REMARK    2  A    between atoms: C_2  and  C_3
REMARK    3  A    between atoms: C_3  and  N_4
REMARK    4  A    between atoms: C_8  and  C_9
REMARK    5  A    between atoms: C_9  and  N_10
REMARK    6  A    between atoms: C_11  and  C_13
REMARK    7  A    between atoms: C_13  and  N_14
REMARK    8  A    between atoms: C_13  and  C_15
REMARK    9  A    between atoms: C_15  and  C_16
REMARK   10  A    between atoms: C_16  and  C_17
REMARK   11  A    between atoms: C_16  and  C_18
REMARK   12  A    between atoms: C_16  and  C_19
REMARK                            x       y       z     vdW  Elec       q    Type
REMARK                         _______ _______ _______ _____ _____    ______ ____
ROOT
ATOM      1  N   UNL     1       6.183   3.766  18.566  0.00  0.00    +0.000 N 
ATOM      2  C   UNL     1       5.264   4.168  19.510  0.00  0.00    +0.000 C 
ATOM      3  O   UNL     1       5.114   5.347  19.819  0.00  0.00    +0.000 OA
ATOM      4  H   UNL     1       6.509   2.805  18.592  0.00  0.00    +0.000 HD
ENDROOT
BRANCH   1   5
ATOM      5  C   UNL     1       7.013   4.739  17.886  0.00  0.00    +0.000 C 
BRANCH   5  10
ATOM      6  N   UNL     1       5.687   5.825  16.004  0.00  0.00    +0.000 N 
ATOM      7  C   UNL     1       5.606   5.695  14.642  0.00  0.00    +0.000 A 
ATOM      8  C   UNL     1       6.427   4.641  14.329  0.00  0.00    +0.000 A 
ATOM      9  N   UNL     1       7.007   4.128  15.458  0.00  0.00    +0.000 NA
ATOM     10  C   UNL     1       6.572   4.872  16.465  0.00  0.00    +0.000 A 
BRANCH   6  11
ATOM     11  C   UNL     1       4.998   6.857  16.760  0.00  0.00    +0.000 C 
BRANCH  11  13
ATOM     12  C   UNL     1       2.904   7.522  17.998  0.00  0.00    +0.000 C 
ATOM     13  C   UNL     1       3.633   6.398  17.276  0.00  0.00    +0.000 C 
ENDBRANCH  11  13
ENDBRANCH   6  11
ENDBRANCH   5  10
ENDBRANCH   1   5
BRANCH   2  14
ATOM     14  C   UNL     1       4.367   3.049  20.092  0.00  0.00    +0.000 C 
BRANCH  14  15
ATOM     15  N   UNL     1       5.095   1.774  20.255  0.00  0.00    +0.000 NA
ATOM     16  H   UNL     1       5.946   1.794  19.700  0.00  0.00    +0.000 HD
ATOM     17  H   UNL     1       4.526   1.019  19.870  0.00  0.00    +0.000 HD
ENDBRANCH  14  15
BRANCH  14  18
ATOM     18  C   UNL     1       3.016   2.921  19.340  0.00  0.00    +0.000 C 
BRANCH  18  19
ATOM     19  C   UNL     1       1.659   3.266  20.036  0.00  0.00    +0.000 C 
ATOM     20  C   UNL     1       0.442   2.750  19.254  0.00  0.00    +0.000 C 
ATOM     21  C   UNL     1       1.633   2.572  21.419  0.00  0.00    +0.000 C 
ATOM     22  C   UNL     1       1.503   4.774  20.287  0.00  0.00    +0.000 C 
ENDBRANCH  18  19
ENDBRANCH  14  18
ENDBRANCH   2  14
TORSDOF 8
ENDMDL
MODEL 2
REMARK VINA RESULT:      -6.1      1.120      2.709
REMARK  Name = 
REMARK  12 active torsions:
REMARK  status: ('A' for Active; 'I' for Inactive)
REMARK    1  A    between atoms: C_1  and  C_2
REMARK    2  A    between atoms: C_2  and  C_3
REMARK    3  A    between atoms: C_3  and  N_4
REMARK    4  A    between atoms: C_8  and  C_9
REMARK    5  A    between atoms: C_9  and  N_10
REMARK    6  A    between atoms: C_11  and  C_13
REMARK    7  A    between atoms: C_13  and  N_14
REMARK    8  A    between atoms: C_13  and  C_15
REMARK    9  A    between atoms: C_15  and  C_16
REMARK   10  A    between atoms: C_16  and  C_17
REMARK   11  A    between atoms: C_16  and  C_18
REMARK   12  A    between atoms: C_16  and  C_19
REMARK                            x       y       z     vdW  Elec       q    Type
REMARK                         _______ _______ _______ _____ _____    ______ ____
ROOT
ATOM      1  N   UNL     1       6.144   3.776  18.478  0.00  0.00    +0.000 N 
ATOM      2  C   UNL     1       5.162   4.042  19.405  0.00  0.00    +0.000 C 
ATOM      3  O   UNL     1       4.956   5.174  19.836  0.00  0.00    +0.000 OA
ATOM      4  H   UNL     1       6.500   2.827  18.414  0.00  0.00    +0.000 HD
ENDROOT
BRANCH   1   5
ATOM      5  C   UNL     1       6.977   4.843  17.960  0.00  0.00    +0.000 C 
BRANCH   5  10
ATOM      6  N   UNL     1       5.948   5.247  15.668  0.00  0.00    +0.000 N 
ATOM      7  C   UNL     1       5.139   6.192  15.094  0.00  0.00    +0.000 A 
ATOM      8  C   UNL     1       4.963   7.151  16.060  0.00  0.00    +0.000 A 
ATOM      9  N   UNL     1       5.637   6.817  17.203  0.00  0.00    +0.000 NA
ATOM     10  C   UNL     1       6.208   5.645  16.963  0.00  0.00    +0.000 A 
BRANCH   6  11
ATOM     11  C   UNL     1       6.358   4.023  15.001  0.00  0.00    +0.000 C 
BRANCH  11  13
ATOM     12  C   UNL     1       5.927   3.386  12.598  0.00  0.00    +0.000 C 
ATOM     13  C   UNL     1       6.753   4.250  13.541  0.00  0.00    +0.000 C 
ENDBRANCH  11  13
ENDBRANCH   6  11
ENDBRANCH   5  10
ENDBRANCH   1   5
BRANCH   2  14
ATOM     14  C   UNL     1       4.272   2.841  19.804  0.00  0.00    +0.000 C 
BRANCH  14  15
ATOM     15  N   UNL     1       5.067   1.642  20.141  0.00  0.00    +0.000 NA
ATOM     16  H   UNL     1       5.906   1.919  20.642  0.00  0.00    +0.000 HD
ATOM     17  H   UNL     1       5.387   1.207  19.275  0.00  0.00    +0.000 HD
ENDBRANCH  14  15
BRANCH  14  18
ATOM     18  C   UNL     1       3.131   2.585  18.786  0.00  0.00    +0.000 C 
BRANCH  18  19
ATOM     19  C   UNL     1       1.763   3.335  18.887  0.00  0.00    +0.000 C 
ATOM     20  C   UNL     1       1.568   4.370  17.768  0.00  0.00    +0.000 C 
ATOM     21  C   UNL     1       0.626   2.295  18.741  0.00  0.00    +0.000 C 
ATOM     22  C   UNL     1       1.575   4.016  20.251  0.00  0.00    +0.000 C 
ENDBRANCH  18  19
ENDBRANCH  14  18
ENDBRANCH   2  14
TORSDOF 8
ENDMDL
MODEL 3
REMARK VINA RESULT:      -6.0      2.395      3.363
REMARK  Name = 
REMARK  12 active torsions:
REMARK  status: ('A' for Active; 'I' for Inactive)
REMARK    1  A    between atoms: C_1  and  C_2
REMARK    2  A    between atoms: C_2  and  C_3
REMARK    3  A    between atoms: C_3  and  N_4
REMARK    4  A    between atoms: C_8  and  C_9
REMARK    5  A    between atoms: C_9  and  N_10
REMARK    6  A    between atoms: C_11  and  C_13
REMARK    7  A    between atoms: C_13  and  N_14
REMARK    8  A    between atoms: C_13  and  C_15
REMARK    9  A    between atoms: C_15  and  C_16
REMARK   10  A    between atoms: C_16  and  C_17
REMARK   11  A    between atoms: C_16  and  C_18
REMARK   12  A    between atoms: C_16  and  C_19
REMARK                            x       y       z     vdW  Elec       q    Type
REMARK                         _______ _______ _______ _____ _____    ______ ____
ROOT
ATOM      1  N   UNL     1       3.844   6.310  18.263  0.00  0.00    +0.000 N 
ATOM      2  C   UNL     1       2.653   6.834  18.712  0.00  0.00    +0.000 C 
ATOM      3  O   UNL     1       2.060   7.726  18.111  0.00  0.00    +0.000 OA
ATOM      4  H   UNL     1       4.450   5.849  18.935  0.00  0.00    +0.000 HD
ENDROOT
BRANCH   1   5
ATOM      5  C   UNL     1       4.447   6.795  17.038  0.00  0.00    +0.000 C 
BRANCH   5  10
ATOM      6  N   UNL     1       6.772   5.763  16.984  0.00  0.00    +0.000 N 
ATOM      7  C   UNL     1       7.365   4.678  16.393  0.00  0.00    +0.000 A 
ATOM      8  C   UNL     1       6.394   4.125  15.596  0.00  0.00    +0.000 A 
ATOM      9  N   UNL     1       5.230   4.839  15.686  0.00  0.00    +0.000 NA
ATOM     10  C   UNL     1       5.463   5.814  16.553  0.00  0.00    +0.000 A 
BRANCH   6  11
ATOM     11  C   UNL     1       7.439   6.622  17.947  0.00  0.00    +0.000 C 
BRANCH  11  13
ATOM     12  C   UNL     1       8.493   8.870  18.392  0.00  0.00    +0.000 C 
ATOM     13  C   UNL     1       7.687   8.032  17.410  0.00  0.00    +0.000 C 
ENDBRANCH  11  13
ENDBRANCH   6  11
ENDBRANCH   5  10
ENDBRANCH   1   5
BRANCH   2  14
ATOM     14  C   UNL     1       2.060   6.165  19.975  0.00  0.00    +0.000 C 
BRANCH  14  15
ATOM     15  N   UNL     1       1.837   7.132  21.069  0.00  0.00    +0.000 NA
ATOM     16  H   UNL     1       2.648   7.145  21.682  0.00  0.00    +0.000 HD
ATOM     17  H   UNL     1       1.058   6.806  21.642  0.00  0.00    +0.000 HD
ENDBRANCH  14  15
BRANCH  14  18
ATOM     18  C   UNL     1       2.843   4.894  20.396  0.00  0.00    +0.000 C 
BRANCH  18  19
ATOM     19  C   UNL     1       2.203   3.470  20.296  0.00  0.00    +0.000 C 
ATOM     20  C   UNL     1       1.779   2.911  21.662  0.00  0.00    +0.000 C 
ATOM     21  C   UNL     1       0.921   3.573  19.434  0.00  0.00    +0.000 C 
ATOM     22  C   UNL     1       3.133   2.465  19.598  0.00  0.00    +0.000 C 
ENDBRANCH  18  19
ENDBRANCH  14  18
ENDBRANCH   2  14
TORSDOF 8
ENDMDL
MODEL 4
REMARK VINA RESULT:      -6.0      2.401      3.282
REMARK  Name = 
REMARK  12 active torsions:
REMARK  status: ('A' for Active; 'I' for Inactive)
REMARK    1  A    between atoms: C_1  and  C_2
REMARK    2  A    between atoms: C_2  and  C_3
REMARK    3  A    between atoms: C_3  and  N_4
REMARK    4  A    between atoms: C_8  and  C_9
REMARK    5  A    between atoms: C_9  and  N_10
REMARK    6  A    between atoms: C_11  and  C_13
REMARK    7  A    between atoms: C_13  and  N_14
REMARK    8  A    between atoms: C_13  and  C_15
REMARK    9  A    between atoms: C_15  and  C_16
REMARK   10  A    between atoms: C_16  and  C_17
REMARK   11  A    between atoms: C_16  and  C_18
REMARK   12  A    between atoms: C_16  and  C_19
REMARK                            x       y       z     vdW  Elec       q    Type
REMARK                         _______ _______ _______ _____ _____    ______ ____
ROOT
ATOM      1  N   UNL     1       3.709   6.181  18.298  0.00  0.00    +0.000 N 
ATOM      2  C   UNL     1       2.671   6.872  18.879  0.00  0.00    +0.000 C 
ATOM      3  O   UNL     1       2.280   7.955  18.449  0.00  0.00    +0.000 OA
ATOM      4  H   UNL     1       4.209   5.500  18.862  0.00  0.00    +0.000 HD
ENDROOT
BRANCH   1   5
ATOM      5  C   UNL     1       4.384   6.709  17.129  0.00  0.00    +0.000 C 
BRANCH   5  10
ATOM      6  N   UNL     1       6.722   5.707  17.054  0.00  0.00    +0.000 N 
ATOM      7  C   UNL     1       7.317   4.614  16.480  0.00  0.00    +0.000 A 
ATOM      8  C   UNL     1       6.337   4.027  15.718  0.00  0.00    +0.000 A 
ATOM      9  N   UNL     1       5.166   4.728  15.814  0.00  0.00    +0.000 NA
ATOM     10  C   UNL     1       5.403   5.729  16.650  0.00  0.00    +0.000 A 
BRANCH   6  11
ATOM     11  C   UNL     1       7.397   6.600  17.980  0.00  0.00    +0.000 C 
BRANCH  11  13
ATOM     12  C   UNL     1       8.418   8.876  18.354  0.00  0.00    +0.000 C 
ATOM     13  C   UNL     1       7.687   7.973  17.371  0.00  0.00    +0.000 C 
ENDBRANCH  11  13
ENDBRANCH   6  11
ENDBRANCH   5  10
ENDBRANCH   1   5
BRANCH   2  14
ATOM     14  C   UNL     1       1.965   6.159  20.058  0.00  0.00    +0.000 C 
BRANCH  14  15
ATOM     15  N   UNL     1       1.630   7.088  21.156  0.00  0.00    +0.000 NA
ATOM     16  H   UNL     1       1.401   8.001  20.773  0.00  0.00    +0.000 HD
ATOM     17  H   UNL     1       2.460   7.226  21.734  0.00  0.00    +0.000 HD
ENDBRANCH  14  15
BRANCH  14  18
ATOM     18  C   UNL     1       2.716   4.879  20.510  0.00  0.00    +0.000 C 
BRANCH  18  19
ATOM     19  C   UNL     1       2.110   3.455  20.286  0.00  0.00    +0.000 C 
ATOM     20  C   UNL     1       1.016   3.437  19.208  0.00  0.00    +0.000 C 
ATOM     21  C   UNL     1       3.241   2.518  19.796  0.00  0.00    +0.000 C 
ATOM     22  C   UNL     1       1.558   2.849  21.586  0.00  0.00    +0.000 C 
ENDBRANCH  18  19
ENDBRANCH  14  18
ENDBRANCH   2  14
TORSDOF 8
ENDMDL
MODEL 5
REMARK VINA RESULT:      -6.0      1.962      3.545
REMARK  Name = 
REMARK  12 active torsions:
REMARK  status: ('A' for Active; 'I' for Inactive)
REMARK    1  A    between atoms: C_1  and  C_2
REMARK    2  A    between atoms: C_2  and  C_3
REMARK    3  A    between atoms: C_3  and  N_4
REMARK    4  A    between atoms: C_8  and  C_9
REMARK    5  A    between atoms: C_9  and  N_10
REMARK    6  A    between atoms: C_11  and  C_13
REMARK    7  A    between atoms: C_13  and  N_14
REMARK    8  A    between atoms: C_13  and  C_15
REMARK    9  A    between atoms: C_15  and  C_16
REMARK   10  A    between atoms: C_16  and  C_17
REMARK   11  A    between atoms: C_16  and  C_18
REMARK   12  A    between atoms: C_16  and  C_19
REMARK                            x       y       z     vdW  Elec       q    Type
REMARK                         _______ _______ _______ _____ _____    ______ ____
ROOT
ATOM      1  N   UNL     1       3.734   6.792  18.163  0.00  0.00    +0.000 N 
ATOM      2  C   UNL     1       2.849   5.757  18.367  0.00  0.00    +0.000 C 
ATOM      3  O   UNL     1       2.719   4.837  17.563  0.00  0.00    +0.000 OA
ATOM      4  H   UNL     1       3.569   7.669  18.648  0.00  0.00    +0.000 HD
ENDROOT
BRANCH   1   5
ATOM      5  C   UNL     1       4.566   6.827  16.977  0.00  0.00    +0.000 C 
BRANCH   5  10
ATOM      6  N   UNL     1       6.153   4.966  16.276  0.00  0.00    +0.000 N 
ATOM      7  C   UNL     1       7.327   4.433  16.740  0.00  0.00    +0.000 A 
ATOM      8  C   UNL     1       7.580   5.088  17.919  0.00  0.00    +0.000 A 
ATOM      9  N   UNL     1       6.598   6.003  18.185  0.00  0.00    +0.000 NA
ATOM     10  C   UNL     1       5.752   5.940  17.166  0.00  0.00    +0.000 A 
BRANCH   6  11
ATOM     11  C   UNL     1       5.534   4.583  15.018  0.00  0.00    +0.000 C 
BRANCH  11  13
ATOM     12  C   UNL     1       6.007   3.494  12.793  0.00  0.00    +0.000 C 
ATOM     13  C   UNL     1       6.551   4.395  13.892  0.00  0.00    +0.000 C 
ENDBRANCH  11  13
ENDBRANCH   6  11
ENDBRANCH   5  10
ENDBRANCH   1   5
BRANCH   2  14
ATOM     14  C   UNL     1       2.092   5.777  19.716  0.00  0.00    +0.000 C 
BRANCH  14  15
ATOM     15  N   UNL     1       2.089   7.117  20.338  0.00  0.00    +0.000 NA
ATOM     16  H   UNL     1       2.066   7.024  21.349  0.00  0.00    +0.000 HD
ATOM     17  H   UNL     1       1.225   7.597  20.081  0.00  0.00    +0.000 HD
ENDBRANCH  14  15
BRANCH  14  18
ATOM     18  C   UNL     1       2.542   4.635  20.665  0.00  0.00    +0.000 C 
BRANCH  18  19
ATOM     19  C   UNL     1       1.963   3.188  20.532  0.00  0.00    +0.000 C 
ATOM     20  C   UNL     1       0.666   3.139  19.712  0.00  0.00    +0.000 C 
ATOM     21  C   UNL     1       3.002   2.317  19.786  0.00  0.00    +0.000 C 
ATOM     22  C   UNL     1       1.728   2.531  21.901  0.00  0.00    +0.000 C 
ENDBRANCH  18  19
ENDBRANCH  14  18
ENDBRANCH   2  14
TORSDOF 8
ENDMDL
MODEL 6
REMARK VINA RESULT:      -6.0      1.779      2.210
REMARK  Name = 
REMARK  12 active torsions:
REMARK  status: ('A' for Active; 'I' for Inactive)
REMARK    1  A    between atoms: C_1  and  C_2
REMARK    2  A    between atoms: C_2  and  C_3
REMARK    3  A    between atoms: C_3  and  N_4
REMARK    4  A    between atoms: C_8  and  C_9
REMARK    5  A    between atoms: C_9  and  N_10
REMARK    6  A    between atoms: C_11  and  C_13
REMARK    7  A    between atoms: C_13  and  N_14
REMARK    8  A    between atoms: C_13  and  C_15
REMARK    9  A    between atoms: C_15  and  C_16
REMARK   10  A    between atoms: C_16  and  C_17
REMARK   11  A    between atoms: C_16  and  C_18
REMARK   12  A    between atoms: C_16  and  C_19
REMARK                            x       y       z     vdW  Elec       q    Type
REMARK                         _______ _______ _______ _____ _____    ______ ____
ROOT
ATOM      1  N   UNL     1       5.082   3.352  17.220  0.00  0.00    +0.000 N 
ATOM      2  C   UNL     1       3.776   3.062  17.545  0.00  0.00    +0.000 C 
ATOM      3  O   UNL     1       2.826   3.514  16.910  0.00  0.00    +0.000 OA
ATOM      4  H   UNL     1       5.790   3.253  17.942  0.00  0.00    +0.000 HD
ENDROOT
BRANCH   1   5
ATOM      5  C   UNL     1       5.388   4.208  16.092  0.00  0.00    +0.000 C 
BRANCH   5  10
ATOM      6  N   UNL     1       5.571   6.623  16.873  0.00  0.00    +0.000 N 
ATOM      7  C   UNL     1       6.561   7.440  17.355  0.00  0.00    +0.000 A 
ATOM      8  C   UNL     1       7.711   6.694  17.286  0.00  0.00    +0.000 A 
ATOM      9  N   UNL     1       7.450   5.449  16.781  0.00  0.00    +0.000 NA
ATOM     10  C   UNL     1       6.144   5.408  16.560  0.00  0.00    +0.000 A 
BRANCH   6  11
ATOM     11  C   UNL     1       4.171   7.005  16.804  0.00  0.00    +0.000 C 
BRANCH  11  13
ATOM     12  C   UNL     1       2.023   7.364  18.077  0.00  0.00    +0.000 C 
ATOM     13  C   UNL     1       3.441   6.815  18.135  0.00  0.00    +0.000 C 
ENDBRANCH  11  13
ENDBRANCH   6  11
ENDBRANCH   5  10
ENDBRANCH   1   5
BRANCH   2  14
ATOM     14  C   UNL     1       3.580   2.057  18.705  0.00  0.00    +0.000 C 
BRANCH  14  15
ATOM     15  N   UNL     1       3.973   0.684  18.330  0.00  0.00    +0.000 NA
ATOM     16  H   UNL     1       3.330   0.323  17.631  0.00  0.00    +0.000 HD
ATOM     17  H   UNL     1       3.870   0.078  19.145  0.00  0.00    +0.000 HD
ENDBRANCH  14  15
BRANCH  14  18
ATOM     18  C   UNL     1       2.173   2.164  19.350  0.00  0.00    +0.000 C 
BRANCH  18  19
ATOM     19  C   UNL     1       1.873   3.195  20.487  0.00  0.00    +0.000 C 
ATOM     20  C   UNL     1       1.559   2.522  21.832  0.00  0.00    +0.000 C 
ATOM     21  C   UNL     1       3.137   4.062  20.702  0.00  0.00    +0.000 C 
ATOM     22  C   UNL     1       0.730   4.152  20.114  0.00  0.00    +0.000 C 
ENDBRANCH  18  19
ENDBRANCH  14  18
ENDBRANCH   2  14
TORSDOF 8
ENDMDL
MODEL 7
REMARK VINA RESULT:      -6.0      0.739      1.313
REMARK  Name = 
REMARK  12 active torsions:
REMARK  status: ('A' for Active; 'I' for Inactive)
REMARK    1  A    between atoms: C_1  and  C_2
REMARK    2  A    between atoms: C_2  and  C_3
REMARK    3  A    between atoms: C_3  and  N_4
REMARK    4  A    between atoms: C_8  and  C_9
REMARK    5  A    between atoms: C_9  and  N_10
REMARK    6  A    between atoms: C_11  and  C_13
REMARK    7  A    between atoms: C_13  and  N_14
REMARK    8  A    between atoms: C_13  and  C_15
REMARK    9  A    between atoms: C_15  and  C_16
REMARK   10  A    between atoms: C_16  and  C_17
REMARK   11  A    between atoms: C_16  and  C_18
REMARK   12  A    between atoms: C_16  and  C_19
REMARK                            x       y       z     vdW  Elec       q    Type
REMARK                         _______ _______ _______ _____ _____    ______ ____
ROOT
ATOM      1  N   UNL     1       6.130   3.713  18.660  0.00  0.00    +0.000 N 
ATOM      2  C   UNL     1       5.013   4.011  19.406  0.00  0.00    +0.000 C 
ATOM      3  O   UNL     1       4.643   5.166  19.602  0.00  0.00    +0.000 OA
ATOM      4  H   UNL     1       6.582   2.816  18.808  0.00  0.00    +0.000 HD
ENDROOT
BRANCH   1   5
ATOM      5  C   UNL     1       6.919   4.770  18.060  0.00  0.00    +0.000 C 
BRANCH   5  10
ATOM      6  N   UNL     1       5.608   6.075  16.312  0.00  0.00    +0.000 N 
ATOM      7  C   UNL     1       5.467   6.046  14.949  0.00  0.00    +0.000 A 
ATOM      8  C   UNL     1       6.196   4.960  14.533  0.00  0.00    +0.000 A 
ATOM      9  N   UNL     1       6.777   4.330  15.600  0.00  0.00    +0.000 NA
ATOM     10  C   UNL     1       6.436   5.032  16.671  0.00  0.00    +0.000 A 
BRANCH   6  11
ATOM     11  C   UNL     1       5.024   7.098  17.162  0.00  0.00    +0.000 C 
BRANCH  11  13
ATOM     12  C   UNL     1       2.823   7.658  18.259  0.00  0.00    +0.000 C 
ATOM     13  C   UNL     1       3.514   7.236  16.970  0.00  0.00    +0.000 C 
ENDBRANCH  11  13
ENDBRANCH   6  11
ENDBRANCH   5  10
ENDBRANCH   1   5
BRANCH   2  14
ATOM     14  C   UNL     1       4.198   2.795  19.909  0.00  0.00    +0.000 C 
BRANCH  14  15
ATOM     15  N   UNL     1       5.062   1.660  20.292  0.00  0.00    +0.000 NA
ATOM     16  H   UNL     1       5.069   1.563  21.303  0.00  0.00    +0.000 HD
ATOM     17  H   UNL     1       6.023   1.874  20.023  0.00  0.00    +0.000 HD
ENDBRANCH  14  15
BRANCH  14  18
ATOM     18  C   UNL     1       3.039   2.420  18.948  0.00  0.00    +0.000 C 
BRANCH  18  19
ATOM     19  C   UNL     1       1.656   3.146  19.014  0.00  0.00    +0.000 C 
ATOM     20  C   UNL     1       1.456   3.927  20.321  0.00  0.00    +0.000 C 
ATOM     21  C   UNL     1       1.593   4.176  17.859  0.00  0.00    +0.000 C 
ATOM     22  C   UNL     1       0.482   2.175  18.813  0.00  0.00    +0.000 C 
ENDBRANCH  18  19
ENDBRANCH  14  18
ENDBRANCH   2  14
TORSDOF 8
ENDMDL
MODEL 8
REMARK VINA RESULT:      -5.9      1.608      2.029
REMARK  Name = 
REMARK  12 active torsions:
REMARK  status: ('A' for Active; 'I' for Inactive)
REMARK    1  A    between atoms: C_1  and  C_2
REMARK    2  A    between atoms: C_2  and  C_3
REMARK    3  A    between atoms: C_3  and  N_4
REMARK    4  A    between atoms: C_8  and  C_9
REMARK    5  A    between atoms: C_9  and  N_10
REMARK    6  A    between atoms: C_11  and  C_13
REMARK    7  A    between atoms: C_13  and  N_14
REMARK    8  A    between atoms: C_13  and  C_15
REMARK    9  A    between atoms: C_15  and  C_16
REMARK   10  A    between atoms: C_16  and  C_17
REMARK   11  A    between atoms: C_16  and  C_18
REMARK   12  A    between atoms: C_16  and  C_19
REMARK                            x       y       z     vdW  Elec       q    Type
REMARK                         _______ _______ _______ _____ _____    ______ ____
ROOT
ATOM      1  N   UNL     1       6.217   4.034  18.548  0.00  0.00    +0.000 N 
ATOM      2  C   UNL     1       4.974   3.455  18.432  0.00  0.00    +0.000 C 
ATOM      3  O   UNL     1       4.411   3.320  17.349  0.00  0.00    +0.000 OA
ATOM      4  H   UNL     1       6.482   4.429  19.446  0.00  0.00    +0.000 HD
ENDROOT
BRANCH   1   5
ATOM      5  C   UNL     1       6.923   4.505  17.374  0.00  0.00    +0.000 C 
BRANCH   5  10
ATOM      6  N   UNL     1       6.197   6.927  17.090  0.00  0.00    +0.000 N 
ATOM      7  C   UNL     1       6.701   8.160  17.412  0.00  0.00    +0.000 A 
ATOM      8  C   UNL     1       7.941   7.916  17.947  0.00  0.00    +0.000 A 
ATOM      9  N   UNL     1       8.205   6.573  17.962  0.00  0.00    +0.000 NA
ATOM     10  C   UNL     1       7.128   5.981  17.466  0.00  0.00    +0.000 A 
BRANCH   6  11
ATOM     11  C   UNL     1       4.874   6.718  16.527  0.00  0.00    +0.000 C 
BRANCH  11  13
ATOM     12  C   UNL     1       2.839   6.351  17.972  0.00  0.00    +0.000 C 
ATOM     13  C   UNL     1       3.770   7.382  17.350  0.00  0.00    +0.000 C 
ENDBRANCH  11  13
ENDBRANCH   6  11
ENDBRANCH   5  10
ENDBRANCH   1   5
BRANCH   2  14
ATOM     14  C   UNL     1       4.366   2.901  19.743  0.00  0.00    +0.000 C 
BRANCH  14  15
ATOM     15  N   UNL     1       5.150   1.777  20.294  0.00  0.00    +0.000 NA
ATOM     16  H   UNL     1       4.627   0.913  20.189  0.00  0.00    +0.000 HD
ATOM     17  H   UNL     1       5.263   1.917  21.299  0.00  0.00    +0.000 HD
ENDBRANCH  14  15
BRANCH  14  18
ATOM     18  C   UNL     1       2.846   2.618  19.618  0.00  0.00    +0.000 C 
BRANCH  18  19
ATOM     19  C   UNL     1       1.805   3.318  20.552  0.00  0.00    +0.000 C 
ATOM     20  C   UNL     1       0.428   3.481  19.891  0.00  0.00    +0.000 C 
ATOM     21  C   UNL     1       1.602   2.430  21.804  0.00  0.00    +0.000 C 
ATOM     22  C   UNL     1       2.300   4.686  21.047  0.00  0.00    +0.000 C 
ENDBRANCH  18  19
ENDBRANCH  14  18
ENDBRANCH   2  14
TORSDOF 8
ENDMDL
MODEL 9
REMARK VINA RESULT:      -5.9      2.038      3.631
REMARK  Name = 
REMARK  12 active torsions:
REMARK  status: ('A' for Active; 'I' for Inactive)
REMARK    1  A    between atoms: C_1  and  C_2
REMARK    2  A    between atoms: C_2  and  C_3
REMARK    3  A    between atoms: C_3  and  N_4
REMARK    4  A    between atoms: C_8  and  C_9
REMARK    5  A    between atoms: C_9  and  N_10
REMARK    6  A    between atoms: C_11  and  C_13
REMARK    7  A    between atoms: C_13  and  N_14
REMARK    8  A    between atoms: C_13  and  C_15
REMARK    9  A    between atoms: C_15  and  C_16
REMARK   10  A    between atoms: C_16  and  C_17
REMARK   11  A    between atoms: C_16  and  C_18
REMARK   12  A    between atoms: C_16  and  C_19
REMARK                            x       y       z     vdW  Elec       q    Type
REMARK                         _______ _______ _______ _____ _____    ______ ____
ROOT
ATOM      1  N   UNL     1       3.774   6.696  18.383  0.00  0.00    +0.000 N 
ATOM      2  C   UNL     1       2.754   5.778  18.493  0.00  0.00    +0.000 C 
ATOM      3  O   UNL     1       2.525   4.944  17.621  0.00  0.00    +0.000 OA
ATOM      4  H   UNL     1       3.714   7.550  18.929  0.00  0.00    +0.000 HD
ENDROOT
BRANCH   1   5
ATOM      5  C   UNL     1       4.636   6.703  17.218  0.00  0.00    +0.000 C 
BRANCH   5  10
ATOM      6  N   UNL     1       6.312   4.847  16.751  0.00  0.00    +0.000 N 
ATOM      7  C   UNL     1       7.524   4.452  17.255  0.00  0.00    +0.000 A 
ATOM      8  C   UNL     1       7.763   5.286  18.318  0.00  0.00    +0.000 A 
ATOM      9  N   UNL     1       6.735   6.176  18.475  0.00  0.00    +0.000 NA
ATOM     10  C   UNL     1       5.874   5.919  17.501  0.00  0.00    +0.000 A 
BRANCH   6  11
ATOM     11  C   UNL     1       5.691   4.249  15.581  0.00  0.00    +0.000 C 
BRANCH  11  13
ATOM     12  C   UNL     1       5.947   3.684  13.136  0.00  0.00    +0.000 C 
ATOM     13  C   UNL     1       6.472   4.521  14.295  0.00  0.00    +0.000 C 
ENDBRANCH  11  13
ENDBRANCH   6  11
ENDBRANCH   5  10
ENDBRANCH   1   5
BRANCH   2  14
ATOM     14  C   UNL     1       1.970   5.804  19.827  0.00  0.00    +0.000 C 
BRANCH  14  15
ATOM     15  N   UNL     1       1.917   7.155  20.421  0.00  0.00    +0.000 NA
ATOM     16  H   UNL     1       2.855   7.541  20.474  0.00  0.00    +0.000 HD
ATOM     17  H   UNL     1       1.590   7.077  21.385  0.00  0.00    +0.000 HD
ENDBRANCH  14  15
BRANCH  14  18
ATOM     18  C   UNL     1       2.431   4.693  20.807  0.00  0.00    +0.000 C 
BRANCH  18  19
ATOM     19  C   UNL     1       1.981   3.206  20.627  0.00  0.00    +0.000 C 
ATOM     20  C   UNL     1       1.681   2.510  21.963  0.00  0.00    +0.000 C 
ATOM     21  C   UNL     1       0.667   3.193  19.808  0.00  0.00    +0.000 C 
ATOM     22  C   UNL     1       3.009   2.381  19.839  0.00  0.00    +0.000 C 
ENDBRANCH  18  19
ENDBRANCH  14  18
ENDBRANCH   2  14
TORSDOF 8
ENDMDL
