MODEL 1
REMARK VINA RESULT:      -6.9      0.000      0.000
REMARK  Name = 
REMARK  4 active torsions:
REMARK  status: ('A' for Active; 'I' for Inactive)
REMARK    1  A    between atoms: C_1  and  C_2
REMARK    2  A    between atoms: N_10  and  N_11
REMARK    3  A    between atoms: N_11  and  C_12
REMARK    4  A    between atoms: C_12  and  N_13
REMARK                            x       y       z     vdW  Elec       q    Type
REMARK                         _______ _______ _______ _____ _____    ______ ____
ROOT
ATOM      1  C   UNL     1       0.819   4.020  20.269  0.00  0.00    +0.000 C 
ATOM      2  C   UNL     1       1.924   3.688  19.302  0.00  0.00    +0.000 A 
ATOM      3  C   UNL     1       2.061   2.356  18.831  0.00  0.00    +0.000 A 
ATOM      4  C   UNL     1       3.072   1.991  17.930  0.00  0.00    +0.000 A 
ATOM      5  C   UNL     1       3.937   2.978  17.511  0.00  0.00    +0.000 A 
ATOM      6  C   UNL     1       3.811   4.289  17.966  0.00  0.00    +0.000 A 
ATOM      7  C   UNL     1       2.822   4.675  18.856  0.00  0.00    +0.000 A 
ATOM      8 BR   UNL     1       2.668   6.469  19.466  0.00  0.00    +0.000 Br
ATOM      9  C   UNL     1       4.882   5.041  17.319  0.00  0.00    +0.000 C 
ATOM     10  N   UNL     1       5.077   6.302  17.506  0.00  0.00    +0.000 NA
ATOM     11  C   UNL     1       5.645   4.054  16.445  0.00  0.00    +0.000 C 
ATOM     12  O   UNL     1       6.604   4.322  15.755  0.00  0.00    +0.000 OA
ATOM     13  N   UNL     1       5.007   2.844  16.624  0.00  0.00    +0.000 N 
ATOM     14  H   UNL     1       5.295   1.992  16.164  0.00  0.00    +0.000 HD
ENDROOT
BRANCH  10  15
ATOM     15  N   UNL     1       6.093   6.935  16.871  0.00  0.00    +0.000 N 
ATOM     16  H   UNL     1       6.023   7.188  15.885  0.00  0.00    +0.000 HD
BRANCH  15  17
ATOM     17  C   UNL     1       7.224   7.230  17.596  0.00  0.00    +0.000 C 
ATOM     18  S   UNL     1       7.853   6.234  18.760  0.00  0.00    +0.000 S 
BRANCH  17  19
ATOM     19  N   UNL     1       7.800   8.421  17.282  0.00  0.00    +0.000 N 
ATOM     20  H   UNL     1       8.203   8.502  16.354  0.00  0.00    +0.000 HD
ATOM     21  H   UNL     1       7.837   9.195  17.924  0.00  0.00    +0.000 HD
ENDBRANCH  17  19
ENDBRANCH  15  17
ENDBRANCH  10  15
TORSDOF 3
ENDMDL
MODEL 2
REMARK VINA RESULT:      -6.8      2.367      3.125
REMARK  Name = 
REMARK  4 active torsions:
REMARK  status: ('A' for Active; 'I' for Inactive)
REMARK    1  A    between atoms: C_1  and  C_2
REMARK    2  A    between atoms: N_10  and  N_11
REMARK    3  A    between atoms: N_11  and  C_12
REMARK    4  A    between atoms: C_12  and  N_13
REMARK                            x       y       z     vdW  Elec       q    Type
REMARK                         _______ _______ _______ _____ _____    ______ ____
ROOT
ATOM      1  C   UNL     1       1.604   2.590  21.201  0.00  0.00    +0.000 C 
ATOM      2  C   UNL     1       2.038   3.803  20.422  0.00  0.00    +0.000 A 
ATOM      3  C   UNL     1       1.569   5.084  20.812  0.00  0.00    +0.000 A 
ATOM      4  C   UNL     1       1.941   6.248  20.122  0.00  0.00    +0.000 A 
ATOM      5  C   UNL     1       2.787   6.106  19.044  0.00  0.00    +0.000 A 
ATOM      6  C   UNL     1       3.254   4.852  18.654  0.00  0.00    +0.000 A 
ATOM      7  C   UNL     1       2.900   3.688  19.317  0.00  0.00    +0.000 A 
ATOM      8 BR   UNL     1       3.547   1.986  18.767  0.00  0.00    +0.000 Br
ATOM      9  C   UNL     1       4.111   5.087  17.495  0.00  0.00    +0.000 C 
ATOM     10  N   UNL     1       4.721   4.145  16.861  0.00  0.00    +0.000 NA
ATOM     11  C   UNL     1       4.104   6.590  17.243  0.00  0.00    +0.000 C 
ATOM     12  O   UNL     1       4.707   7.157  16.358  0.00  0.00    +0.000 OA
ATOM     13  N   UNL     1       3.285   7.116  18.220  0.00  0.00    +0.000 N 
ATOM     14  H   UNL     1       3.087   8.104  18.305  0.00  0.00    +0.000 HD
ENDROOT
BRANCH  10  15
ATOM     15  N   UNL     1       5.501   4.439  15.792  0.00  0.00    +0.000 N 
ATOM     16  H   UNL     1       5.120   4.443  14.845  0.00  0.00    +0.000 HD
BRANCH  15  17
ATOM     17  C   UNL     1       6.824   4.736  16.020  0.00  0.00    +0.000 C 
ATOM     18  S   UNL     1       7.549   4.613  17.505  0.00  0.00    +0.000 S 
BRANCH  17  19
ATOM     19  N   UNL     1       7.508   5.146  14.919  0.00  0.00    +0.000 N 
ATOM     20  H   UNL     1       7.017   5.093  14.032  0.00  0.00    +0.000 HD
ATOM     21  H   UNL     1       8.454   5.486  14.959  0.00  0.00    +0.000 HD
ENDBRANCH  17  19
ENDBRANCH  15  17
ENDBRANCH  10  15
TORSDOF 3
ENDMDL
MODEL 3
REMARK VINA RESULT:      -6.5      2.580      3.425
REMARK  Name = 
REMARK  4 active torsions:
REMARK  status: ('A' for Active; 'I' for Inactive)
REMARK    1  A    between atoms: C_1  and  C_2
REMARK    2  A    between atoms: N_10  and  N_11
REMARK    3  A    between atoms: N_11  and  C_12
REMARK    4  A    between atoms: C_12  and  N_13
REMARK                            x       y       z     vdW  Elec       q    Type
REMARK                         _______ _______ _______ _____ _____    ______ ____
ROOT
ATOM      1  C   UNL     1       1.825   7.938  20.101  0.00  0.00    +0.000 C 
ATOM      2  C   UNL     1       2.047   6.458  19.930  0.00  0.00    +0.000 A 
ATOM      3  C   UNL     1       1.360   5.549  20.775  0.00  0.00    +0.000 A 
ATOM      4  C   UNL     1       1.529   4.162  20.659  0.00  0.00    +0.000 A 
ATOM      5  C   UNL     1       2.392   3.704  19.688  0.00  0.00    +0.000 A 
ATOM      6  C   UNL     1       3.071   4.589  18.852  0.00  0.00    +0.000 A 
ATOM      7  C   UNL     1       2.922   5.964  18.946  0.00  0.00    +0.000 A 
ATOM      8 BR   UNL     1       3.859   7.153  17.797  0.00  0.00    +0.000 Br
ATOM      9  C   UNL     1       3.880   3.758  17.964  0.00  0.00    +0.000 C 
ATOM     10  N   UNL     1       4.649   4.240  17.048  0.00  0.00    +0.000 NA
ATOM     11  C   UNL     1       3.613   2.311  18.354  0.00  0.00    +0.000 C 
ATOM     12  O   UNL     1       4.112   1.338  17.832  0.00  0.00    +0.000 OA
ATOM     13  N   UNL     1       2.710   2.377  19.395  0.00  0.00    +0.000 N 
ATOM     14  H   UNL     1       2.344   1.561  19.865  0.00  0.00    +0.000 HD
ENDROOT
BRANCH  10  15
ATOM     15  N   UNL     1       5.372   3.407  16.260  0.00  0.00    +0.000 N 
ATOM     16  H   UNL     1       5.232   2.396  16.292  0.00  0.00    +0.000 HD
BRANCH  15  17
ATOM     17  C   UNL     1       6.300   3.964  15.412  0.00  0.00    +0.000 C 
ATOM     18  S   UNL     1       6.184   3.905  13.760  0.00  0.00    +0.000 S 
BRANCH  17  19
ATOM     19  N   UNL     1       7.340   4.576  16.037  0.00  0.00    +0.000 N 
ATOM     20  H   UNL     1       8.184   4.026  16.163  0.00  0.00    +0.000 HD
ATOM     21  H   UNL     1       7.296   5.525  16.369  0.00  0.00    +0.000 HD
ENDBRANCH  17  19
ENDBRANCH  15  17
ENDBRANCH  10  15
TORSDOF 3
ENDMDL
MODEL 4
REMARK VINA RESULT:      -6.4      2.518      3.348
REMARK  Name = 
REMARK  4 active torsions:
REMARK  status: ('A' for Active; 'I' for Inactive)
REMARK    1  A    between atoms: C_1  and  C_2
REMARK    2  A    between atoms: N_10  and  N_11
REMARK    3  A    between atoms: N_11  and  C_12
REMARK    4  A    between atoms: C_12  and  N_13
REMARK                            x       y       z     vdW  Elec       q    Type
REMARK                         _______ _______ _______ _____ _____    ______ ____
ROOT
ATOM      1  C   UNL     1       1.147   2.847  19.540  0.00  0.00    +0.000 C 
ATOM      2  C   UNL     1       2.019   3.997  19.111  0.00  0.00    +0.000 A 
ATOM      3  C   UNL     1       1.667   5.318  19.490  0.00  0.00    +0.000 A 
ATOM      4  C   UNL     1       2.443   6.424  19.118  0.00  0.00    +0.000 A 
ATOM      5  C   UNL     1       3.571   6.187  18.364  0.00  0.00    +0.000 A 
ATOM      6  C   UNL     1       3.927   4.893  17.987  0.00  0.00    +0.000 A 
ATOM      7  C   UNL     1       3.177   3.783  18.341  0.00  0.00    +0.000 A 
ATOM      8 BR   UNL     1       3.678   2.026  17.814  0.00  0.00    +0.000 Br
ATOM      9  C   UNL     1       5.157   5.026  17.211  0.00  0.00    +0.000 C 
ATOM     10  N   UNL     1       5.781   4.024  16.692  0.00  0.00    +0.000 NA
ATOM     11  C   UNL     1       5.489   6.512  17.169  0.00  0.00    +0.000 C 
ATOM     12  O   UNL     1       6.446   7.003  16.610  0.00  0.00    +0.000 OA
ATOM     13  N   UNL     1       4.485   7.128  17.886  0.00  0.00    +0.000 N 
ATOM     14  H   UNL     1       4.438   8.127  18.031  0.00  0.00    +0.000 HD
ENDROOT
BRANCH  10  15
ATOM     15  N   UNL     1       6.919   4.225  15.983  0.00  0.00    +0.000 N 
ATOM     16  H   UNL     1       7.835   4.163  16.428  0.00  0.00    +0.000 HD
BRANCH  15  17
ATOM     17  C   UNL     1       6.803   4.511  14.643  0.00  0.00    +0.000 C 
ATOM     18  S   UNL     1       5.742   3.742  13.630  0.00  0.00    +0.000 S 
BRANCH  17  19
ATOM     19  N   UNL     1       7.638   5.488  14.201  0.00  0.00    +0.000 N 
ATOM     20  H   UNL     1       8.479   5.649  14.747  0.00  0.00    +0.000 HD
ATOM     21  H   UNL     1       7.449   6.037  13.379  0.00  0.00    +0.000 HD
ENDBRANCH  17  19
ENDBRANCH  15  17
ENDBRANCH  10  15
TORSDOF 3
ENDMDL
MODEL 5
REMARK VINA RESULT:      -6.3      2.618      3.508
REMARK  Name = 
REMARK  4 active torsions:
REMARK  status: ('A' for Active; 'I' for Inactive)
REMARK    1  A    between atoms: C_1  and  C_2
REMARK    2  A    between atoms: N_10  and  N_11
REMARK    3  A    between atoms: N_11  and  C_12
REMARK    4  A    between atoms: C_12  and  N_13
REMARK                            x       y       z     vdW  Elec       q    Type
REMARK                         _______ _______ _______ _____ _____    ______ ____
ROOT
ATOM      1  C   UNL     1       1.800   2.733  21.654  0.00  0.00    +0.000 C 
ATOM      2  C   UNL     1       2.207   3.888  20.779  0.00  0.00    +0.000 A 
ATOM      3  C   UNL     1       1.448   5.087  20.810  0.00  0.00    +0.000 A 
ATOM      4  C   UNL     1       1.782   6.193  20.016  0.00  0.00    +0.000 A 
ATOM      5  C   UNL     1       2.883   6.080  19.196  0.00  0.00    +0.000 A 
ATOM      6  C   UNL     1       3.636   4.907  19.158  0.00  0.00    +0.000 A 
ATOM      7  C   UNL     1       3.327   3.800  19.932  0.00  0.00    +0.000 A 
ATOM      8 BR   UNL     1       4.367   2.210  19.865  0.00  0.00    +0.000 Br
ATOM      9  C   UNL     1       4.706   5.150  18.194  0.00  0.00    +0.000 C 
ATOM     10  N   UNL     1       5.605   4.275  17.897  0.00  0.00    +0.000 NA
ATOM     11  C   UNL     1       4.511   6.567  17.672  0.00  0.00    +0.000 C 
ATOM     12  O   UNL     1       5.214   7.117  16.852  0.00  0.00    +0.000 OA
ATOM     13  N   UNL     1       3.396   7.045  18.328  0.00  0.00    +0.000 N 
ATOM     14  H   UNL     1       3.021   7.973  18.183  0.00  0.00    +0.000 HD
ENDROOT
BRANCH  10  15
ATOM     15  N   UNL     1       6.568   4.571  16.991  0.00  0.00    +0.000 N 
ATOM     16  H   UNL     1       7.373   5.145  17.245  0.00  0.00    +0.000 HD
BRANCH  15  17
ATOM     17  C   UNL     1       6.432   4.072  15.716  0.00  0.00    +0.000 C 
ATOM     18  S   UNL     1       6.933   4.878  14.358  0.00  0.00    +0.000 S 
BRANCH  17  19
ATOM     19  N   UNL     1       5.844   2.848  15.650  0.00  0.00    +0.000 N 
ATOM     20  H   UNL     1       6.458   2.057  15.487  0.00  0.00    +0.000 HD
ATOM     21  H   UNL     1       4.852   2.713  15.752  0.00  0.00    +0.000 HD
ENDBRANCH  17  19
ENDBRANCH  15  17
ENDBRANCH  10  15
TORSDOF 3
ENDMDL
MODEL 6
REMARK VINA RESULT:      -6.2      2.657      3.406
REMARK  Name = 
REMARK  4 active torsions:
REMARK  status: ('A' for Active; 'I' for Inactive)
REMARK    1  A    between atoms: C_1  and  C_2
REMARK    2  A    between atoms: N_10  and  N_11
REMARK    3  A    between atoms: N_11  and  C_12
REMARK    4  A    between atoms: C_12  and  N_13
REMARK                            x       y       z     vdW  Elec       q    Type
REMARK                         _______ _______ _______ _____ _____    ______ ____
ROOT
ATOM      1  C   UNL     1       1.755   2.527  21.408  0.00  0.00    +0.000 C 
ATOM      2  C   UNL     1       2.151   3.730  20.595  0.00  0.00    +0.000 A 
ATOM      3  C   UNL     1       1.807   5.027  21.057  0.00  0.00    +0.000 A 
ATOM      4  C   UNL     1       2.151   6.182  20.339  0.00  0.00    +0.000 A 
ATOM      5  C   UNL     1       2.843   6.016  19.159  0.00  0.00    +0.000 A 
ATOM      6  C   UNL     1       3.187   4.747  18.697  0.00  0.00    +0.000 A 
ATOM      7  C   UNL     1       2.858   3.590  19.386  0.00  0.00    +0.000 A 
ATOM      8 BR   UNL     1       3.335   1.868  18.738  0.00  0.00    +0.000 Br
ATOM      9  C   UNL     1       3.900   4.958  17.440  0.00  0.00    +0.000 C 
ATOM     10  N   UNL     1       4.372   3.997  16.722  0.00  0.00    +0.000 NA
ATOM     11  C   UNL     1       3.943   6.463  17.209  0.00  0.00    +0.000 C 
ATOM     12  O   UNL     1       4.458   7.014  16.261  0.00  0.00    +0.000 OA
ATOM     13  N   UNL     1       3.286   7.014  18.290  0.00  0.00    +0.000 N 
ATOM     14  H   UNL     1       3.155   8.009  18.412  0.00  0.00    +0.000 HD
ENDROOT
BRANCH  10  15
ATOM     15  N   UNL     1       5.023   4.270  15.565  0.00  0.00    +0.000 N 
ATOM     16  H   UNL     1       4.514   4.401  14.691  0.00  0.00    +0.000 HD
BRANCH  15  17
ATOM     17  C   UNL     1       6.394   4.367  15.604  0.00  0.00    +0.000 C 
ATOM     18  S   UNL     1       7.320   4.801  14.300  0.00  0.00    +0.000 S 
BRANCH  17  19
ATOM     19  N   UNL     1       6.947   4.075  16.811  0.00  0.00    +0.000 N 
ATOM     20  H   UNL     1       6.308   3.993  17.596  0.00  0.00    +0.000 HD
ATOM     21  H   UNL     1       7.936   3.945  16.942  0.00  0.00    +0.000 HD
ENDBRANCH  17  19
ENDBRANCH  15  17
ENDBRANCH  10  15
TORSDOF 3
ENDMDL
MODEL 7
REMARK VINA RESULT:      -6.2      9.501     10.992
REMARK  Name = 
REMARK  4 active torsions:
REMARK  status: ('A' for Active; 'I' for Inactive)
REMARK    1  A    between atoms: C_1  and  C_2
REMARK    2  A    between atoms: N_10  and  N_11
REMARK    3  A    between atoms: N_11  and  C_12
REMARK    4  A    between atoms: C_12  and  N_13
REMARK                            x       y       z     vdW  Elec       q    Type
REMARK                         _______ _______ _______ _____ _____    ______ ____
ROOT
ATOM      1  C   UNL     1       8.775  12.359  22.823  0.00  0.00    +0.000 C 
ATOM      2  C   UNL     1       9.346  12.161  21.444  0.00  0.00    +0.000 A 
ATOM      3  C   UNL     1       9.213  10.899  20.810  0.00  0.00    +0.000 A 
ATOM      4  C   UNL     1       9.725  10.659  19.527  0.00  0.00    +0.000 A 
ATOM      5  C   UNL     1      10.368  11.700  18.893  0.00  0.00    +0.000 A 
ATOM      6  C   UNL     1      10.503  12.945  19.506  0.00  0.00    +0.000 A 
ATOM      7  C   UNL     1      10.007  13.207  20.773  0.00  0.00    +0.000 A 
ATOM      8 BR   UNL     1      10.203  14.911  21.593  0.00  0.00    +0.000 Br
ATOM      9  C   UNL     1      11.225  13.783  18.553  0.00  0.00    +0.000 C 
ATOM     10  N   UNL     1      11.533  15.014  18.783  0.00  0.00    +0.000 NA
ATOM     11  C   UNL     1      11.499  12.920  17.329  0.00  0.00    +0.000 C 
ATOM     12  O   UNL     1      12.081  13.281  16.330  0.00  0.00    +0.000 OA
ATOM     13  N   UNL     1      10.949  11.689  17.624  0.00  0.00    +0.000 N 
ATOM     14  H   UNL     1      10.977  10.903  16.990  0.00  0.00    +0.000 HD
ENDROOT
BRANCH  10  15
ATOM     15  N   UNL     1      12.205  15.732  17.851  0.00  0.00    +0.000 N 
ATOM     16  H   UNL     1      13.198  15.573  17.677  0.00  0.00    +0.000 HD
BRANCH  15  17
ATOM     17  C   UNL     1      11.508  16.682  17.142  0.00  0.00    +0.000 C 
ATOM     18  S   UNL     1      11.556  18.302  17.487  0.00  0.00    +0.000 S 
BRANCH  17  19
ATOM     19  N   UNL     1      10.762  16.188  16.119  0.00  0.00    +0.000 N 
ATOM     20  H   UNL     1       9.774  16.043  16.305  0.00  0.00    +0.000 HD
ATOM     21  H   UNL     1      11.149  15.968  15.217  0.00  0.00    +0.000 HD
ENDBRANCH  17  19
ENDBRANCH  15  17
ENDBRANCH  10  15
TORSDOF 3
ENDMDL
MODEL 8
REMARK VINA RESULT:      -6.1      2.145      2.815
REMARK  Name = 
REMARK  4 active torsions:
REMARK  status: ('A' for Active; 'I' for Inactive)
REMARK    1  A    between atoms: C_1  and  C_2
REMARK    2  A    between atoms: N_10  and  N_11
REMARK    3  A    between atoms: N_11  and  C_12
REMARK    4  A    between atoms: C_12  and  N_13
REMARK                            x       y       z     vdW  Elec       q    Type
REMARK                         _______ _______ _______ _____ _____    ______ ____
ROOT
ATOM      1  C   UNL     1       1.832   2.319  21.782  0.00  0.00    +0.000 C 
ATOM      2  C   UNL     1       2.065   3.439  20.803  0.00  0.00    +0.000 A 
ATOM      3  C   UNL     1       1.098   4.471  20.683  0.00  0.00    +0.000 A 
ATOM      4  C   UNL     1       1.263   5.537  19.788  0.00  0.00    +0.000 A 
ATOM      5  C   UNL     1       2.407   5.553  19.020  0.00  0.00    +0.000 A 
ATOM      6  C   UNL     1       3.364   4.545  19.131  0.00  0.00    +0.000 A 
ATOM      7  C   UNL     1       3.224   3.480  20.006  0.00  0.00    +0.000 A 
ATOM      8 BR   UNL     1       4.539   2.114  20.141  0.00  0.00    +0.000 Br
ATOM      9  C   UNL     1       4.418   4.888  18.181  0.00  0.00    +0.000 C 
ATOM     10  N   UNL     1       5.477   4.173  18.007  0.00  0.00    +0.000 NA
ATOM     11  C   UNL     1       3.994   6.186  17.506  0.00  0.00    +0.000 C 
ATOM     12  O   UNL     1       4.625   6.775  16.656  0.00  0.00    +0.000 OA
ATOM     13  N   UNL     1       2.778   6.508  18.073  0.00  0.00    +0.000 N 
ATOM     14  H   UNL     1       2.247   7.330  17.818  0.00  0.00    +0.000 HD
ENDROOT
BRANCH  10  15
ATOM     15  N   UNL     1       6.415   4.554  17.106  0.00  0.00    +0.000 N 
ATOM     16  H   UNL     1       6.464   4.124  16.181  0.00  0.00    +0.000 HD
BRANCH  15  17
ATOM     17  C   UNL     1       7.298   5.542  17.472  0.00  0.00    +0.000 C 
ATOM     18  S   UNL     1       7.917   5.698  19.000  0.00  0.00    +0.000 S 
BRANCH  17  19
ATOM     19  N   UNL     1       7.632   6.400  16.471  0.00  0.00    +0.000 N 
ATOM     20  H   UNL     1       6.871   6.747  15.896  0.00  0.00    +0.000 HD
ATOM     21  H   UNL     1       8.580   6.687  16.292  0.00  0.00    +0.000 HD
ENDBRANCH  17  19
ENDBRANCH  15  17
ENDBRANCH  10  15
TORSDOF 3
ENDMDL
MODEL 9
REMARK VINA RESULT:      -6.0      1.082      1.082
REMARK  Name = 
REMARK  4 active torsions:
REMARK  status: ('A' for Active; 'I' for Inactive)
REMARK    1  A    between atoms: C_1  and  C_2
REMARK    2  A    between atoms: N_10  and  N_11
REMARK    3  A    between atoms: N_11  and  C_12
REMARK    4  A    between atoms: C_12  and  N_13
REMARK                            x       y       z     vdW  Elec       q    Type
REMARK                         _______ _______ _______ _____ _____    ______ ____
ROOT
ATOM      1  C   UNL     1       1.245   3.976  21.071  0.00  0.00    +0.000 C 
ATOM      2  C   UNL     1       2.133   3.552  19.931  0.00  0.00    +0.000 A 
ATOM      3  C   UNL     1       2.257   2.172  19.622  0.00  0.00    +0.000 A 
ATOM      4  C   UNL     1       3.069   1.722  18.571  0.00  0.00    +0.000 A 
ATOM      5  C   UNL     1       3.749   2.671  17.840  0.00  0.00    +0.000 A 
ATOM      6  C   UNL     1       3.633   4.028  18.135  0.00  0.00    +0.000 A 
ATOM      7  C   UNL     1       2.839   4.499  19.168  0.00  0.00    +0.000 A 
ATOM      8 BR   UNL     1       2.696   6.355  19.555  0.00  0.00    +0.000 Br
ATOM      9  C   UNL     1       4.481   4.721  17.169  0.00  0.00    +0.000 C 
ATOM     10  N   UNL     1       4.623   6.002  17.139  0.00  0.00    +0.000 NA
ATOM     11  C   UNL     1       5.102   3.649  16.283  0.00  0.00    +0.000 C 
ATOM     12  O   UNL     1       5.865   3.852  15.364  0.00  0.00    +0.000 OA
ATOM     13  N   UNL     1       4.605   2.453  16.759  0.00  0.00    +0.000 N 
ATOM     14  H   UNL     1       4.845   1.555  16.363  0.00  0.00    +0.000 HD
ENDROOT
BRANCH  10  15
ATOM     15  N   UNL     1       5.427   6.576  16.213  0.00  0.00    +0.000 N 
ATOM     16  H   UNL     1       5.061   6.877  15.308  0.00  0.00    +0.000 HD
BRANCH  15  17
ATOM     17  C   UNL     1       6.755   6.747  16.526  0.00  0.00    +0.000 C 
ATOM     18  S   UNL     1       7.293   7.763  17.719  0.00  0.00    +0.000 S 
BRANCH  17  19
ATOM     19  N   UNL     1       7.612   6.008  15.773  0.00  0.00    +0.000 N 
ATOM     20  H   UNL     1       8.529   5.828  16.170  0.00  0.00    +0.000 HD
ATOM     21  H   UNL     1       7.370   5.649  14.864  0.00  0.00    +0.000 HD
ENDBRANCH  17  19
ENDBRANCH  15  17
ENDBRANCH  10  15
TORSDOF 3
ENDMDL
