MODEL 1
REMARK VINA RESULT:      -7.4      0.000      0.000
REMARK  Name = 
REMARK  12 active torsions:
REMARK  status: ('A' for Active; 'I' for Inactive)
REMARK    1  A    between atoms: C_1  and  O_2
REMARK    2  A    between atoms: O_2  and  C_3
REMARK    3  A    between atoms: C_6  and  C_7
REMARK    4  A    between atoms: C_7  and  N_8
REMARK    5  A    between atoms: N_8  and  C_9
REMARK    6  A    between atoms: C_9  and  C_10
REMARK    7  A    between atoms: C_10  and  C_11
REMARK    8  A    between atoms: C_11  and  N_12
REMARK    9  A    between atoms: C_15  and  C_16
REMARK   10  A    between atoms: N_18  and  C_19
REMARK   11  A    between atoms: C_22  and  C_23
REMARK   12  A    between atoms: C_24  and  C_25
REMARK                            x       y       z     vdW  Elec       q    Type
REMARK                         _______ _______ _______ _____ _____    ______ ____
ROOT
ATOM      1  N   UNL     1       7.025   5.761  17.376  0.00  0.00    +0.000 N 
ATOM      2  C   UNL     1       7.808   5.483  18.450  0.00  0.00    +0.000 A 
ATOM      3  N   UNL     1       8.363   6.589  18.891  0.00  0.00    +0.000 NA
ATOM      4  C   UNL     1       7.854   7.558  18.036  0.00  0.00    +0.000 A 
ATOM      5  N   UNL     1       7.024   7.067  17.097  0.00  0.00    +0.000 NA
ENDROOT
BRANCH   4   6
ATOM      6  C   UNL     1       8.199   8.991  18.130  0.00  0.00    +0.000 C 
ATOM      7  O   UNL     1       7.745   9.812  17.336  0.00  0.00    +0.000 OA
ATOM      8  N   UNL     1       9.094   9.276  19.157  0.00  0.00    +0.000 N 
ATOM      9  H   UNL     1       9.474   8.467  19.639  0.00  0.00    +0.000 HD
BRANCH   8  10
ATOM     10  C   UNL     1       9.580  10.557  19.492  0.00  0.00    +0.000 A 
ATOM     11  C   UNL     1      10.494  11.242  18.696  0.00  0.00    +0.000 A 
ATOM     12  C   UNL     1      10.953  12.503  19.061  0.00  0.00    +0.000 A 
ATOM     13  C   UNL     1      10.524  13.120  20.239  0.00  0.00    +0.000 A 
ATOM     14  C   UNL     1      11.048  14.491  20.562  0.00  0.00    +0.000 C 
ATOM     15  C   UNL     1       9.612  12.438  21.067  0.00  0.00    +0.000 A 
ATOM     16  C   UNL     1       9.149  12.994  22.387  0.00  0.00    +0.000 C 
ATOM     17  C   UNL     1       9.125  11.171  20.669  0.00  0.00    +0.000 A 
ENDBRANCH   8  10
ENDBRANCH   4   6
BRANCH   1  18
ATOM     18  C   UNL     1       6.350   4.828  16.504  0.00  0.00    +0.000 C 
BRANCH  18  19
ATOM     19  C   UNL     1       4.866   4.685  16.827  0.00  0.00    +0.000 C 
BRANCH  19  20
ATOM     20  C   UNL     1       4.614   4.497  18.327  0.00  0.00    +0.000 C 
BRANCH  20  21
ATOM     21  N   UNL     1       3.619   5.455  18.799  0.00  0.00    +0.000 NA
ATOM     22  H   UNL     1       2.744   4.990  19.035  0.00  0.00    +0.000 HD
BRANCH  21  23
ATOM     23  C   UNL     1       3.292   6.459  17.786  0.00  0.00    +0.000 C 
BRANCH  23  27
ATOM     24  C   UNL     1       1.008   9.682  19.555  0.00  0.00    +0.000 A 
ATOM     25  C   UNL     1       1.485   9.785  18.249  0.00  0.00    +0.000 A 
ATOM     26  C   UNL     1       2.216   8.742  17.678  0.00  0.00    +0.000 A 
ATOM     27  C   UNL     1       2.502   7.584  18.415  0.00  0.00    +0.000 A 
ATOM     28  C   UNL     1       2.049   7.502  19.739  0.00  0.00    +0.000 A 
ATOM     29  C   UNL     1       1.305   8.544  20.306  0.00  0.00    +0.000 A 
BRANCH  24  31
ATOM     30  C   UNL     1      -0.121  11.681  19.004  0.00  0.00    +0.000 C 
ATOM     31  O   UNL     1       0.304  10.765  20.006  0.00  0.00    +0.000 OA
ENDBRANCH  24  31
ENDBRANCH  23  27
ENDBRANCH  21  23
ENDBRANCH  20  21
ENDBRANCH  19  20
ENDBRANCH  18  19
ENDBRANCH   1  18
TORSDOF 9
ENDMDL
MODEL 2
REMARK VINA RESULT:      -7.4      1.572      2.271
REMARK  Name = 
REMARK  12 active torsions:
REMARK  status: ('A' for Active; 'I' for Inactive)
REMARK    1  A    between atoms: C_1  and  O_2
REMARK    2  A    between atoms: O_2  and  C_3
REMARK    3  A    between atoms: C_6  and  C_7
REMARK    4  A    between atoms: C_7  and  N_8
REMARK    5  A    between atoms: N_8  and  C_9
REMARK    6  A    between atoms: C_9  and  C_10
REMARK    7  A    between atoms: C_10  and  C_11
REMARK    8  A    between atoms: C_11  and  N_12
REMARK    9  A    between atoms: C_15  and  C_16
REMARK   10  A    between atoms: N_18  and  C_19
REMARK   11  A    between atoms: C_22  and  C_23
REMARK   12  A    between atoms: C_24  and  C_25
REMARK                            x       y       z     vdW  Elec       q    Type
REMARK                         _______ _______ _______ _____ _____    ______ ____
ROOT
ATOM      1  N   UNL     1       7.431   5.502  17.520  0.00  0.00    +0.000 N 
ATOM      2  C   UNL     1       7.886   5.389  18.795  0.00  0.00    +0.000 A 
ATOM      3  N   UNL     1       8.258   6.569  19.237  0.00  0.00    +0.000 NA
ATOM      4  C   UNL     1       7.982   7.408  18.165  0.00  0.00    +0.000 A 
ATOM      5  N   UNL     1       7.468   6.768  17.098  0.00  0.00    +0.000 NA
ENDROOT
BRANCH   4   6
ATOM      6  C   UNL     1       8.241   8.862  18.180  0.00  0.00    +0.000 C 
ATOM      7  O   UNL     1       7.719   9.614  17.359  0.00  0.00    +0.000 OA
ATOM      8  N   UNL     1       9.140   9.252  19.168  0.00  0.00    +0.000 N 
ATOM      9  H   UNL     1       9.580   8.492  19.679  0.00  0.00    +0.000 HD
BRANCH   8  10
ATOM     10  C   UNL     1       9.554  10.575  19.428  0.00  0.00    +0.000 A 
ATOM     11  C   UNL     1      10.338  11.302  18.535  0.00  0.00    +0.000 A 
ATOM     12  C   UNL     1      10.729  12.604  18.827  0.00  0.00    +0.000 A 
ATOM     13  C   UNL     1      10.361  13.223  20.025  0.00  0.00    +0.000 A 
ATOM     14  C   UNL     1      10.806  14.638  20.267  0.00  0.00    +0.000 C 
ATOM     15  C   UNL     1       9.582  12.499  20.949  0.00  0.00    +0.000 A 
ATOM     16  C   UNL     1       9.198  13.059  22.293  0.00  0.00    +0.000 C 
ATOM     17  C   UNL     1       9.161  11.188  20.626  0.00  0.00    +0.000 A 
ENDBRANCH   8  10
ENDBRANCH   4   6
BRANCH   1  18
ATOM     18  C   UNL     1       7.060   4.441  16.613  0.00  0.00    +0.000 C 
BRANCH  18  19
ATOM     19  C   UNL     1       6.042   4.886  15.568  0.00  0.00    +0.000 C 
BRANCH  19  20
ATOM     20  C   UNL     1       4.651   4.298  15.827  0.00  0.00    +0.000 C 
BRANCH  20  21
ATOM     21  N   UNL     1       4.689   3.384  16.963  0.00  0.00    +0.000 NA
ATOM     22  H   UNL     1       5.158   2.514  16.720  0.00  0.00    +0.000 HD
BRANCH  21  23
ATOM     23  C   UNL     1       3.349   3.015  17.422  0.00  0.00    +0.000 C 
BRANCH  23  27
ATOM     24  C   UNL     1       1.896   5.955  20.248  0.00  0.00    +0.000 A 
ATOM     25  C   UNL     1       2.462   6.354  19.038  0.00  0.00    +0.000 A 
ATOM     26  C   UNL     1       2.924   5.405  18.125  0.00  0.00    +0.000 A 
ATOM     27  C   UNL     1       2.848   4.036  18.419  0.00  0.00    +0.000 A 
ATOM     28  C   UNL     1       2.310   3.643  19.652  0.00  0.00    +0.000 A 
ATOM     29  C   UNL     1       1.835   4.596  20.561  0.00  0.00    +0.000 A 
BRANCH  24  31
ATOM     30  C   UNL     1       1.526   8.274  20.487  0.00  0.00    +0.000 C 
ATOM     31  O   UNL     1       1.478   6.973  21.060  0.00  0.00    +0.000 OA
ENDBRANCH  24  31
ENDBRANCH  23  27
ENDBRANCH  21  23
ENDBRANCH  20  21
ENDBRANCH  19  20
ENDBRANCH  18  19
ENDBRANCH   1  18
TORSDOF 9
ENDMDL
MODEL 3
REMARK VINA RESULT:      -7.3      2.544      3.087
REMARK  Name = 
REMARK  12 active torsions:
REMARK  status: ('A' for Active; 'I' for Inactive)
REMARK    1  A    between atoms: C_1  and  O_2
REMARK    2  A    between atoms: O_2  and  C_3
REMARK    3  A    between atoms: C_6  and  C_7
REMARK    4  A    between atoms: C_7  and  N_8
REMARK    5  A    between atoms: N_8  and  C_9
REMARK    6  A    between atoms: C_9  and  C_10
REMARK    7  A    between atoms: C_10  and  C_11
REMARK    8  A    between atoms: C_11  and  N_12
REMARK    9  A    between atoms: C_15  and  C_16
REMARK   10  A    between atoms: N_18  and  C_19
REMARK   11  A    between atoms: C_22  and  C_23
REMARK   12  A    between atoms: C_24  and  C_25
REMARK                            x       y       z     vdW  Elec       q    Type
REMARK                         _______ _______ _______ _____ _____    ______ ____
ROOT
ATOM      1  N   UNL     1       7.549   5.663  16.885  0.00  0.00    +0.000 N 
ATOM      2  C   UNL     1       7.630   5.397  18.215  0.00  0.00    +0.000 A 
ATOM      3  N   UNL     1       7.864   6.509  18.874  0.00  0.00    +0.000 NA
ATOM      4  C   UNL     1       7.898   7.468  17.870  0.00  0.00    +0.000 A 
ATOM      5  N   UNL     1       7.703   6.966  16.638  0.00  0.00    +0.000 NA
ENDROOT
BRANCH   4   6
ATOM      6  C   UNL     1       8.143   8.902  18.122  0.00  0.00    +0.000 C 
ATOM      7  O   UNL     1       7.520   9.774  17.519  0.00  0.00    +0.000 OA
ATOM      8  N   UNL     1       9.150   9.135  19.054  0.00  0.00    +0.000 N 
ATOM      9  H   UNL     1       9.655   8.309  19.362  0.00  0.00    +0.000 HD
BRANCH   8  10
ATOM     10  C   UNL     1       9.579  10.401  19.503  0.00  0.00    +0.000 A 
ATOM     11  C   UNL     1      10.492  11.176  18.792  0.00  0.00    +0.000 A 
ATOM     12  C   UNL     1      10.895  12.420  19.268  0.00  0.00    +0.000 A 
ATOM     13  C   UNL     1      10.408  12.928  20.475  0.00  0.00    +0.000 A 
ATOM     14  C   UNL     1      10.873  14.287  20.920  0.00  0.00    +0.000 C 
ATOM     15  C   UNL     1       9.496  12.153  21.218  0.00  0.00    +0.000 A 
ATOM     16  C   UNL     1       8.974  12.589  22.561  0.00  0.00    +0.000 C 
ATOM     17  C   UNL     1       9.068  10.906  20.707  0.00  0.00    +0.000 A 
ENDBRANCH   8  10
ENDBRANCH   4   6
BRANCH   1  18
ATOM     18  C   UNL     1       7.446   4.720  15.796  0.00  0.00    +0.000 C 
BRANCH  18  19
ATOM     19  C   UNL     1       6.004   4.450  15.381  0.00  0.00    +0.000 C 
BRANCH  19  20
ATOM     20  C   UNL     1       5.015   4.701  16.524  0.00  0.00    +0.000 C 
BRANCH  20  21
ATOM     21  N   UNL     1       4.375   6.004  16.366  0.00  0.00    +0.000 NA
ATOM     22  H   UNL     1       4.971   6.645  15.845  0.00  0.00    +0.000 HD
BRANCH  21  23
ATOM     23  C   UNL     1       4.101   6.646  17.651  0.00  0.00    +0.000 C 
BRANCH  23  27
ATOM     24  C   UNL     1       1.621   4.041  20.059  0.00  0.00    +0.000 A 
ATOM     25  C   UNL     1       1.366   4.204  18.698  0.00  0.00    +0.000 A 
ATOM     26  C   UNL     1       2.171   5.039  17.922  0.00  0.00    +0.000 A 
ATOM     27  C   UNL     1       3.234   5.746  18.501  0.00  0.00    +0.000 A 
ATOM     28  C   UNL     1       3.463   5.605  19.877  0.00  0.00    +0.000 A 
ATOM     29  C   UNL     1       2.663   4.757  20.651  0.00  0.00    +0.000 A 
BRANCH  24  31
ATOM     30  C   UNL     1       1.368   2.364  21.701  0.00  0.00    +0.000 C 
ATOM     31  O   UNL     1       0.768   3.197  20.716  0.00  0.00    +0.000 OA
ENDBRANCH  24  31
ENDBRANCH  23  27
ENDBRANCH  21  23
ENDBRANCH  20  21
ENDBRANCH  19  20
ENDBRANCH  18  19
ENDBRANCH   1  18
TORSDOF 9
ENDMDL
MODEL 4
REMARK VINA RESULT:      -7.3      4.767      7.676
REMARK  Name = 
REMARK  12 active torsions:
REMARK  status: ('A' for Active; 'I' for Inactive)
REMARK    1  A    between atoms: C_1  and  O_2
REMARK    2  A    between atoms: O_2  and  C_3
REMARK    3  A    between atoms: C_6  and  C_7
REMARK    4  A    between atoms: C_7  and  N_8
REMARK    5  A    between atoms: N_8  and  C_9
REMARK    6  A    between atoms: C_9  and  C_10
REMARK    7  A    between atoms: C_10  and  C_11
REMARK    8  A    between atoms: C_11  and  N_12
REMARK    9  A    between atoms: C_15  and  C_16
REMARK   10  A    between atoms: N_18  and  C_19
REMARK   11  A    between atoms: C_22  and  C_23
REMARK   12  A    between atoms: C_24  and  C_25
REMARK                            x       y       z     vdW  Elec       q    Type
REMARK                         _______ _______ _______ _____ _____    ______ ____
ROOT
ATOM      1  N   UNL     1       3.481   7.251  17.832  0.00  0.00    +0.000 N 
ATOM      2  C   UNL     1       3.155   6.472  18.896  0.00  0.00    +0.000 A 
ATOM      3  N   UNL     1       2.246   7.079  19.625  0.00  0.00    +0.000 NA
ATOM      4  C   UNL     1       2.024   8.262  18.930  0.00  0.00    +0.000 A 
ATOM      5  N   UNL     1       2.775   8.384  17.821  0.00  0.00    +0.000 NA
ENDROOT
BRANCH   4   6
ATOM      6  C   UNL     1       1.070   9.299  19.372  0.00  0.00    +0.000 C 
ATOM      7  O   UNL     1       0.275   9.812  18.587  0.00  0.00    +0.000 OA
ATOM      8  N   UNL     1       1.204   9.636  20.715  0.00  0.00    +0.000 N 
ATOM      9  H   UNL     1       1.995   9.214  21.192  0.00  0.00    +0.000 HD
BRANCH   8  10
ATOM     10  C   UNL     1       0.414  10.576  21.410  0.00  0.00    +0.000 A 
ATOM     11  C   UNL     1      -0.507  10.202  22.386  0.00  0.00    +0.000 A 
ATOM     12  C   UNL     1      -1.271  11.158  23.047  0.00  0.00    +0.000 A 
ATOM     13  C   UNL     1      -1.151  12.518  22.752  0.00  0.00    +0.000 A 
ATOM     14  C   UNL     1      -1.995  13.496  23.518  0.00  0.00    +0.000 C 
ATOM     15  C   UNL     1      -0.236  12.915  21.756  0.00  0.00    +0.000 A 
ATOM     16  C   UNL     1      -0.089  14.350  21.323  0.00  0.00    +0.000 C 
ATOM     17  C   UNL     1       0.560  11.939  21.114  0.00  0.00    +0.000 A 
ENDBRANCH   8  10
ENDBRANCH   4   6
BRANCH   1  18
ATOM     18  C   UNL     1       4.531   7.037  16.864  0.00  0.00    +0.000 C 
BRANCH  18  19
ATOM     19  C   UNL     1       5.840   6.581  17.501  0.00  0.00    +0.000 C 
BRANCH  19  20
ATOM     20  C   UNL     1       6.608   5.600  16.610  0.00  0.00    +0.000 C 
BRANCH  20  21
ATOM     21  N   UNL     1       6.301   4.223  16.986  0.00  0.00    +0.000 NA
ATOM     22  H   UNL     1       7.024   3.584  16.663  0.00  0.00    +0.000 HD
BRANCH  21  23
ATOM     23  C   UNL     1       5.045   3.756  16.398  0.00  0.00    +0.000 C 
BRANCH  23  27
ATOM     24  C   UNL     1       2.282   2.565  19.510  0.00  0.00    +0.000 A 
ATOM     25  C   UNL     1       1.831   2.791  18.210  0.00  0.00    +0.000 A 
ATOM     26  C   UNL     1       2.724   3.168  17.207  0.00  0.00    +0.000 A 
ATOM     27  C   UNL     1       4.085   3.349  17.493  0.00  0.00    +0.000 A 
ATOM     28  C   UNL     1       4.526   3.155  18.810  0.00  0.00    +0.000 A 
ATOM     29  C   UNL     1       3.630   2.763  19.812  0.00  0.00    +0.000 A 
BRANCH  24  31
ATOM     30  C   UNL     1       1.440   2.764  21.707  0.00  0.00    +0.000 C 
ATOM     31  O   UNL     1       1.317   2.198  20.407  0.00  0.00    +0.000 OA
ENDBRANCH  24  31
ENDBRANCH  23  27
ENDBRANCH  21  23
ENDBRANCH  20  21
ENDBRANCH  19  20
ENDBRANCH  18  19
ENDBRANCH   1  18
TORSDOF 9
ENDMDL
MODEL 5
REMARK VINA RESULT:      -7.1      4.043      8.196
REMARK  Name = 
REMARK  12 active torsions:
REMARK  status: ('A' for Active; 'I' for Inactive)
REMARK    1  A    between atoms: C_1  and  O_2
REMARK    2  A    between atoms: O_2  and  C_3
REMARK    3  A    between atoms: C_6  and  C_7
REMARK    4  A    between atoms: C_7  and  N_8
REMARK    5  A    between atoms: N_8  and  C_9
REMARK    6  A    between atoms: C_9  and  C_10
REMARK    7  A    between atoms: C_10  and  C_11
REMARK    8  A    between atoms: C_11  and  N_12
REMARK    9  A    between atoms: C_15  and  C_16
REMARK   10  A    between atoms: N_18  and  C_19
REMARK   11  A    between atoms: C_22  and  C_23
REMARK   12  A    between atoms: C_24  and  C_25
REMARK                            x       y       z     vdW  Elec       q    Type
REMARK                         _______ _______ _______ _____ _____    ______ ____
ROOT
ATOM      1  N   UNL     1       2.219   6.887  19.610  0.00  0.00    +0.000 N 
ATOM      2  C   UNL     1       2.549   7.184  18.327  0.00  0.00    +0.000 A 
ATOM      3  N   UNL     1       2.143   8.399  18.036  0.00  0.00    +0.000 NA
ATOM      4  C   UNL     1       1.567   8.831  19.224  0.00  0.00    +0.000 A 
ATOM      5  N   UNL     1       1.607   7.913  20.207  0.00  0.00    +0.000 NA
ENDROOT
BRANCH   4   6
ATOM      6  C   UNL     1       0.951  10.162  19.394  0.00  0.00    +0.000 C 
ATOM      7  O   UNL     1       1.426  11.161  18.858  0.00  0.00    +0.000 OA
ATOM      8  N   UNL     1      -0.160  10.153  20.233  0.00  0.00    +0.000 N 
ATOM      9  H   UNL     1      -0.345   9.270  20.699  0.00  0.00    +0.000 HD
BRANCH   8  10
ATOM     10  C   UNL     1      -0.956  11.272  20.556  0.00  0.00    +0.000 A 
ATOM     11  C   UNL     1      -1.961  11.742  19.715  0.00  0.00    +0.000 A 
ATOM     12  C   UNL     1      -2.724  12.851  20.066  0.00  0.00    +0.000 A 
ATOM     13  C   UNL     1      -2.502  13.536  21.263  0.00  0.00    +0.000 A 
ATOM     14  C   UNL     1      -3.375  14.716  21.587  0.00  0.00    +0.000 C 
ATOM     15  C   UNL     1      -1.478  13.087  22.121  0.00  0.00    +0.000 A 
ATOM     16  C   UNL     1      -1.122  13.804  23.396  0.00  0.00    +0.000 C 
ATOM     17  C   UNL     1      -0.733  11.938  21.770  0.00  0.00    +0.000 A 
ENDBRANCH   8  10
ENDBRANCH   4   6
BRANCH   1  18
ATOM     18  C   UNL     1       2.347   5.619  20.290  0.00  0.00    +0.000 C 
BRANCH  18  19
ATOM     19  C   UNL     1       1.280   4.613  19.869  0.00  0.00    +0.000 C 
BRANCH  19  20
ATOM     20  C   UNL     1       1.737   3.739  18.697  0.00  0.00    +0.000 C 
BRANCH  20  21
ATOM     21  N   UNL     1       2.815   2.848  19.116  0.00  0.00    +0.000 NA
ATOM     22  H   UNL     1       3.356   3.258  19.876  0.00  0.00    +0.000 HD
BRANCH  21  23
ATOM     23  C   UNL     1       3.762   2.577  18.035  0.00  0.00    +0.000 C 
BRANCH  23  27
ATOM     24  C   UNL     1       6.019   6.161  17.137  0.00  0.00    +0.000 A 
ATOM     25  C   UNL     1       5.259   5.535  16.149  0.00  0.00    +0.000 A 
ATOM     26  C   UNL     1       4.526   4.384  16.442  0.00  0.00    +0.000 A 
ATOM     27  C   UNL     1       4.561   3.824  17.727  0.00  0.00    +0.000 A 
ATOM     28  C   UNL     1       5.355   4.437  18.706  0.00  0.00    +0.000 A 
ATOM     29  C   UNL     1       6.078   5.600  18.413  0.00  0.00    +0.000 A 
BRANCH  24  31
ATOM     30  C   UNL     1       7.692   7.752  17.629  0.00  0.00    +0.000 C 
ATOM     31  O   UNL     1       6.691   7.281  16.734  0.00  0.00    +0.000 OA
ENDBRANCH  24  31
ENDBRANCH  23  27
ENDBRANCH  21  23
ENDBRANCH  20  21
ENDBRANCH  19  20
ENDBRANCH  18  19
ENDBRANCH   1  18
TORSDOF 9
ENDMDL
MODEL 6
REMARK VINA RESULT:      -7.0      4.134      7.940
REMARK  Name = 
REMARK  12 active torsions:
REMARK  status: ('A' for Active; 'I' for Inactive)
REMARK    1  A    between atoms: C_1  and  O_2
REMARK    2  A    between atoms: O_2  and  C_3
REMARK    3  A    between atoms: C_6  and  C_7
REMARK    4  A    between atoms: C_7  and  N_8
REMARK    5  A    between atoms: N_8  and  C_9
REMARK    6  A    between atoms: C_9  and  C_10
REMARK    7  A    between atoms: C_10  and  C_11
REMARK    8  A    between atoms: C_11  and  N_12
REMARK    9  A    between atoms: C_15  and  C_16
REMARK   10  A    between atoms: N_18  and  C_19
REMARK   11  A    between atoms: C_22  and  C_23
REMARK   12  A    between atoms: C_24  and  C_25
REMARK                            x       y       z     vdW  Elec       q    Type
REMARK                         _______ _______ _______ _____ _____    ______ ____
ROOT
ATOM      1  N   UNL     1       2.171   6.116  20.194  0.00  0.00    +0.000 N 
ATOM      2  C   UNL     1       2.548   6.686  19.020  0.00  0.00    +0.000 A 
ATOM      3  N   UNL     1       2.188   7.950  19.008  0.00  0.00    +0.000 NA
ATOM      4  C   UNL     1       1.591   8.119  20.251  0.00  0.00    +0.000 A 
ATOM      5  N   UNL     1       1.574   7.000  20.997  0.00  0.00    +0.000 NA
ENDROOT
BRANCH   4   6
ATOM      6  C   UNL     1       1.012   9.397  20.709  0.00  0.00    +0.000 C 
ATOM      7  O   UNL     1       0.789   9.609  21.900  0.00  0.00    +0.000 OA
ATOM      8  N   UNL     1       0.725  10.278  19.670  0.00  0.00    +0.000 N 
ATOM      9  H   UNL     1       0.849   9.900  18.735  0.00  0.00    +0.000 HD
BRANCH   8  10
ATOM     10  C   UNL     1       0.189  11.574  19.814  0.00  0.00    +0.000 A 
ATOM     11  C   UNL     1       0.982  12.719  19.779  0.00  0.00    +0.000 A 
ATOM     12  C   UNL     1       0.418  13.982  19.929  0.00  0.00    +0.000 A 
ATOM     13  C   UNL     1      -0.955  14.145  20.130  0.00  0.00    +0.000 A 
ATOM     14  C   UNL     1      -1.498  15.540  20.266  0.00  0.00    +0.000 C 
ATOM     15  C   UNL     1      -1.772  12.999  20.185  0.00  0.00    +0.000 A 
ATOM     16  C   UNL     1      -3.250  13.075  20.466  0.00  0.00    +0.000 C 
ATOM     17  C   UNL     1      -1.193  11.723  19.997  0.00  0.00    +0.000 A 
ENDBRANCH   8  10
ENDBRANCH   4   6
BRANCH   1  18
ATOM     18  C   UNL     1       2.240   4.722  20.566  0.00  0.00    +0.000 C 
BRANCH  18  19
ATOM     19  C   UNL     1       1.135   3.885  19.929  0.00  0.00    +0.000 C 
BRANCH  19  20
ATOM     20  C   UNL     1       1.686   2.659  19.195  0.00  0.00    +0.000 C 
BRANCH  20  21
ATOM     21  N   UNL     1       3.145   2.668  19.214  0.00  0.00    +0.000 NA
ATOM     22  H   UNL     1       3.503   3.548  19.582  0.00  0.00    +0.000 HD
BRANCH  21  23
ATOM     23  C   UNL     1       3.718   2.518  17.875  0.00  0.00    +0.000 C 
BRANCH  23  27
ATOM     24  C   UNL     1       6.148   5.970  16.921  0.00  0.00    +0.000 A 
ATOM     25  C   UNL     1       6.160   5.429  18.206  0.00  0.00    +0.000 A 
ATOM     26  C   UNL     1       5.380   4.312  18.510  0.00  0.00    +0.000 A 
ATOM     27  C   UNL     1       4.556   3.730  17.536  0.00  0.00    +0.000 A 
ATOM     28  C   UNL     1       4.523   4.300  16.256  0.00  0.00    +0.000 A 
ATOM     29  C   UNL     1       5.315   5.413  15.950  0.00  0.00    +0.000 A 
BRANCH  24  31
ATOM     30  C   UNL     1       7.722   7.450  17.873  0.00  0.00    +0.000 C 
ATOM     31  O   UNL     1       6.953   7.062  16.741  0.00  0.00    +0.000 OA
ENDBRANCH  24  31
ENDBRANCH  23  27
ENDBRANCH  21  23
ENDBRANCH  20  21
ENDBRANCH  19  20
ENDBRANCH  18  19
ENDBRANCH   1  18
TORSDOF 9
ENDMDL
MODEL 7
REMARK VINA RESULT:      -7.0      4.351      8.030
REMARK  Name = 
REMARK  12 active torsions:
REMARK  status: ('A' for Active; 'I' for Inactive)
REMARK    1  A    between atoms: C_1  and  O_2
REMARK    2  A    between atoms: O_2  and  C_3
REMARK    3  A    between atoms: C_6  and  C_7
REMARK    4  A    between atoms: C_7  and  N_8
REMARK    5  A    between atoms: N_8  and  C_9
REMARK    6  A    between atoms: C_9  and  C_10
REMARK    7  A    between atoms: C_10  and  C_11
REMARK    8  A    between atoms: C_11  and  N_12
REMARK    9  A    between atoms: C_15  and  C_16
REMARK   10  A    between atoms: N_18  and  C_19
REMARK   11  A    between atoms: C_22  and  C_23
REMARK   12  A    between atoms: C_24  and  C_25
REMARK                            x       y       z     vdW  Elec       q    Type
REMARK                         _______ _______ _______ _____ _____    ______ ____
ROOT
ATOM      1  N   UNL     1       2.086   6.204  20.337  0.00  0.00    +0.000 N 
ATOM      2  C   UNL     1       2.709   6.712  19.243  0.00  0.00    +0.000 A 
ATOM      3  N   UNL     1       2.276   7.931  19.014  0.00  0.00    +0.000 NA
ATOM      4  C   UNL     1       1.370   8.141  20.046  0.00  0.00    +0.000 A 
ATOM      5  N   UNL     1       1.242   7.089  20.874  0.00  0.00    +0.000 NA
ENDROOT
BRANCH   4   6
ATOM      6  C   UNL     1       0.604   9.392  20.214  0.00  0.00    +0.000 C 
ATOM      7  O   UNL     1       0.049   9.937  19.262  0.00  0.00    +0.000 OA
ATOM      8  N   UNL     1       0.620   9.878  21.519  0.00  0.00    +0.000 N 
ATOM      9  H   UNL     1       1.232   9.381  22.159  0.00  0.00    +0.000 HD
BRANCH   8  10
ATOM     10  C   UNL     1      -0.042  11.037  21.973  0.00  0.00    +0.000 A 
ATOM     11  C   UNL     1      -1.154  10.983  22.810  0.00  0.00    +0.000 A 
ATOM     12  C   UNL     1      -1.784  12.148  23.235  0.00  0.00    +0.000 A 
ATOM     13  C   UNL     1      -1.333  13.407  22.831  0.00  0.00    +0.000 A 
ATOM     14  C   UNL     1      -2.051  14.625  23.342  0.00  0.00    +0.000 C 
ATOM     15  C   UNL     1      -0.220  13.484  21.970  0.00  0.00    +0.000 A 
ATOM     16  C   UNL     1       0.292  14.792  21.428  0.00  0.00    +0.000 C 
ATOM     17  C   UNL     1       0.433  12.294  21.573  0.00  0.00    +0.000 A 
ENDBRANCH   8  10
ENDBRANCH   4   6
BRANCH   1  18
ATOM     18  C   UNL     1       2.156   4.857  20.854  0.00  0.00    +0.000 C 
BRANCH  18  19
ATOM     19  C   UNL     1       0.976   3.995  20.419  0.00  0.00    +0.000 C 
BRANCH  19  20
ATOM     20  C   UNL     1       1.192   3.370  19.037  0.00  0.00    +0.000 C 
BRANCH  20  21
ATOM     21  N   UNL     1       2.318   2.442  19.069  0.00  0.00    +0.000 NA
ATOM     22  H   UNL     1       2.964   2.673  19.822  0.00  0.00    +0.000 HD
BRANCH  21  23
ATOM     23  C   UNL     1       3.098   2.474  17.832  0.00  0.00    +0.000 C 
BRANCH  23  27
ATOM     24  C   UNL     1       6.145   5.538  18.091  0.00  0.00    +0.000 A 
ATOM     25  C   UNL     1       5.900   4.689  19.170  0.00  0.00    +0.000 A 
ATOM     26  C   UNL     1       4.921   3.698  19.082  0.00  0.00    +0.000 A 
ATOM     27  C   UNL     1       4.154   3.554  17.918  0.00  0.00    +0.000 A 
ATOM     28  C   UNL     1       4.381   4.433  16.850  0.00  0.00    +0.000 A 
ATOM     29  C   UNL     1       5.372   5.419  16.935  0.00  0.00    +0.000 A 
BRANCH  24  31
ATOM     30  C   UNL     1       7.274   7.439  17.262  0.00  0.00    +0.000 C 
ATOM     31  O   UNL     1       7.127   6.468  18.292  0.00  0.00    +0.000 OA
ENDBRANCH  24  31
ENDBRANCH  23  27
ENDBRANCH  21  23
ENDBRANCH  20  21
ENDBRANCH  19  20
ENDBRANCH  18  19
ENDBRANCH   1  18
TORSDOF 9
ENDMDL
MODEL 8
REMARK VINA RESULT:      -7.0      1.244      1.770
REMARK  Name = 
REMARK  12 active torsions:
REMARK  status: ('A' for Active; 'I' for Inactive)
REMARK    1  A    between atoms: C_1  and  O_2
REMARK    2  A    between atoms: O_2  and  C_3
REMARK    3  A    between atoms: C_6  and  C_7
REMARK    4  A    between atoms: C_7  and  N_8
REMARK    5  A    between atoms: N_8  and  C_9
REMARK    6  A    between atoms: C_9  and  C_10
REMARK    7  A    between atoms: C_10  and  C_11
REMARK    8  A    between atoms: C_11  and  N_12
REMARK    9  A    between atoms: C_15  and  C_16
REMARK   10  A    between atoms: N_18  and  C_19
REMARK   11  A    between atoms: C_22  and  C_23
REMARK   12  A    between atoms: C_24  and  C_25
REMARK                            x       y       z     vdW  Elec       q    Type
REMARK                         _______ _______ _______ _____ _____    ______ ____
ROOT
ATOM      1  N   UNL     1       6.012   5.462  16.895  0.00  0.00    +0.000 N 
ATOM      2  C   UNL     1       5.570   6.559  16.226  0.00  0.00    +0.000 A 
ATOM      3  N   UNL     1       6.242   7.616  16.620  0.00  0.00    +0.000 NA
ATOM      4  C   UNL     1       7.132   7.095  17.551  0.00  0.00    +0.000 A 
ATOM      5  N   UNL     1       7.006   5.768  17.731  0.00  0.00    +0.000 NA
ENDROOT
BRANCH   4   6
ATOM      6  C   UNL     1       8.112   7.915  18.290  0.00  0.00    +0.000 C 
ATOM      7  O   UNL     1       8.781   7.443  19.207  0.00  0.00    +0.000 OA
ATOM      8  N   UNL     1       8.154   9.241  17.866  0.00  0.00    +0.000 N 
ATOM      9  H   UNL     1       7.445   9.501  17.187  0.00  0.00    +0.000 HD
BRANCH   8  10
ATOM     10  C   UNL     1       9.008  10.241  18.375  0.00  0.00    +0.000 A 
ATOM     11  C   UNL     1      10.042  10.795  17.623  0.00  0.00    +0.000 A 
ATOM     12  C   UNL     1      10.866  11.777  18.161  0.00  0.00    +0.000 A 
ATOM     13  C   UNL     1      10.696  12.234  19.470  0.00  0.00    +0.000 A 
ATOM     14  C   UNL     1      11.613  13.310  19.980  0.00  0.00    +0.000 C 
ATOM     15  C   UNL     1       9.666  11.674  20.253  0.00  0.00    +0.000 A 
ATOM     16  C   UNL     1       9.453  12.054  21.694  0.00  0.00    +0.000 C 
ATOM     17  C   UNL     1       8.812  10.701  19.685  0.00  0.00    +0.000 A 
ENDBRANCH   8  10
ENDBRANCH   4   6
BRANCH   1  18
ATOM     18  C   UNL     1       5.459   4.128  16.875  0.00  0.00    +0.000 C 
BRANCH  18  19
ATOM     19  C   UNL     1       3.939   4.116  17.007  0.00  0.00    +0.000 C 
BRANCH  19  20
ATOM     20  C   UNL     1       3.481   3.648  18.392  0.00  0.00    +0.000 C 
BRANCH  20  21
ATOM     21  N   UNL     1       2.568   4.623  18.981  0.00  0.00    +0.000 NA
ATOM     22  H   UNL     1       1.961   5.032  18.274  0.00  0.00    +0.000 HD
BRANCH  21  23
ATOM     23  C   UNL     1       3.278   5.737  19.609  0.00  0.00    +0.000 C 
BRANCH  23  27
ATOM     24  C   UNL     1       1.150   9.446  18.939  0.00  0.00    +0.000 A 
ATOM     25  C   UNL     1       1.131   8.835  20.192  0.00  0.00    +0.000 A 
ATOM     26  C   UNL     1       1.824   7.642  20.408  0.00  0.00    +0.000 A 
ATOM     27  C   UNL     1       2.529   7.028  19.364  0.00  0.00    +0.000 A 
ATOM     28  C   UNL     1       2.515   7.630  18.098  0.00  0.00    +0.000 A 
ATOM     29  C   UNL     1       1.831   8.833  17.887  0.00  0.00    +0.000 A 
BRANCH  24  31
ATOM     30  C   UNL     1      -0.839  10.502  18.229  0.00  0.00    +0.000 C 
ATOM     31  O   UNL     1       0.438  10.611  18.848  0.00  0.00    +0.000 OA
ENDBRANCH  24  31
ENDBRANCH  23  27
ENDBRANCH  21  23
ENDBRANCH  20  21
ENDBRANCH  19  20
ENDBRANCH  18  19
ENDBRANCH   1  18
TORSDOF 9
ENDMDL
MODEL 9
REMARK VINA RESULT:      -7.0      5.121      8.743
REMARK  Name = 
REMARK  12 active torsions:
REMARK  status: ('A' for Active; 'I' for Inactive)
REMARK    1  A    between atoms: C_1  and  O_2
REMARK    2  A    between atoms: O_2  and  C_3
REMARK    3  A    between atoms: C_6  and  C_7
REMARK    4  A    between atoms: C_7  and  N_8
REMARK    5  A    between atoms: N_8  and  C_9
REMARK    6  A    between atoms: C_9  and  C_10
REMARK    7  A    between atoms: C_10  and  C_11
REMARK    8  A    between atoms: C_11  and  N_12
REMARK    9  A    between atoms: C_15  and  C_16
REMARK   10  A    between atoms: N_18  and  C_19
REMARK   11  A    between atoms: C_22  and  C_23
REMARK   12  A    between atoms: C_24  and  C_25
REMARK                            x       y       z     vdW  Elec       q    Type
REMARK                         _______ _______ _______ _____ _____    ______ ____
ROOT
ATOM      1  N   UNL     1       2.403   8.072  18.431  0.00  0.00    +0.000 N 
ATOM      2  C   UNL     1       2.191   9.188  17.686  0.00  0.00    +0.000 A 
ATOM      3  N   UNL     1       1.349   9.981  18.308  0.00  0.00    +0.000 NA
ATOM      4  C   UNL     1       1.078   9.293  19.484  0.00  0.00    +0.000 A 
ATOM      5  N   UNL     1       1.722   8.115  19.579  0.00  0.00    +0.000 NA
ENDROOT
BRANCH   4   6
ATOM      6  C   UNL     1       0.160   9.792  20.526  0.00  0.00    +0.000 C 
ATOM      7  O   UNL     1      -0.229   9.065  21.438  0.00  0.00    +0.000 OA
ATOM      8  N   UNL     1      -0.227  11.115  20.335  0.00  0.00    +0.000 N 
ATOM      9  H   UNL     1       0.080  11.535  19.462  0.00  0.00    +0.000 HD
BRANCH   8  10
ATOM     10  C   UNL     1      -1.077  11.855  21.183  0.00  0.00    +0.000 A 
ATOM     11  C   UNL     1      -0.665  12.325  22.428  0.00  0.00    +0.000 A 
ATOM     12  C   UNL     1      -1.533  13.049  23.239  0.00  0.00    +0.000 A 
ATOM     13  C   UNL     1      -2.844  13.320  22.841  0.00  0.00    +0.000 A 
ATOM     14  C   UNL     1      -3.721  14.122  23.761  0.00  0.00    +0.000 C 
ATOM     15  C   UNL     1      -3.286  12.839  21.593  0.00  0.00    +0.000 A 
ATOM     16  C   UNL     1      -4.701  13.023  21.113  0.00  0.00    +0.000 C 
ATOM     17  C   UNL     1      -2.384  12.134  20.762  0.00  0.00    +0.000 A 
ENDBRANCH   8  10
ENDBRANCH   4   6
BRANCH   1  18
ATOM     18  C   UNL     1       3.138   6.885  18.064  0.00  0.00    +0.000 C 
BRANCH  18  19
ATOM     19  C   UNL     1       4.492   7.199  17.435  0.00  0.00    +0.000 C 
BRANCH  19  20
ATOM     20  C   UNL     1       4.871   6.195  16.341  0.00  0.00    +0.000 C 
BRANCH  20  21
ATOM     21  N   UNL     1       5.628   5.086  16.910  0.00  0.00    +0.000 NA
ATOM     22  H   UNL     1       6.568   5.043  16.519  0.00  0.00    +0.000 HD
BRANCH  21  23
ATOM     23  C   UNL     1       5.007   3.790  16.632  0.00  0.00    +0.000 C 
BRANCH  23  27
ATOM     24  C   UNL     1       1.888   3.040  19.537  0.00  0.00    +0.000 A 
ATOM     25  C   UNL     1       3.208   3.221  19.946  0.00  0.00    +0.000 A 
ATOM     26  C   UNL     1       4.212   3.470  19.008  0.00  0.00    +0.000 A 
ATOM     27  C   UNL     1       3.913   3.518  17.639  0.00  0.00    +0.000 A 
ATOM     28  C   UNL     1       2.590   3.301  17.232  0.00  0.00    +0.000 A 
ATOM     29  C   UNL     1       1.582   3.064  18.176  0.00  0.00    +0.000 A 
BRANCH  24  31
ATOM     30  C   UNL     1       1.559   2.591  21.832  0.00  0.00    +0.000 C 
ATOM     31  O   UNL     1       0.992   2.806  20.544  0.00  0.00    +0.000 OA
ENDBRANCH  24  31
ENDBRANCH  23  27
ENDBRANCH  21  23
ENDBRANCH  20  21
ENDBRANCH  19  20
ENDBRANCH  18  19
ENDBRANCH   1  18
TORSDOF 9
ENDMDL
