MODEL 1
REMARK VINA RESULT:      -8.6      0.000      0.000
REMARK  Name = 
REMARK  4 active torsions:
REMARK  status: ('A' for Active; 'I' for Inactive)
REMARK    1  A    between atoms: C_1  and  C_2
REMARK    2  A    between atoms: C_5  and  C_6
REMARK    3  A    between atoms: C_11  and  C_13
REMARK    4  A    between atoms: C_17  and  C_18
REMARK                            x       y       z     vdW  Elec       q    Type
REMARK                         _______ _______ _______ _____ _____    ______ ____
ROOT
ATOM      1  C   UNL     1       1.209   9.117  19.711  0.00  0.00    +0.000 A 
ATOM      2  C   UNL     1       1.745   9.659  18.556  0.00  0.00    +0.000 A 
ATOM      3  S   UNL     1       2.642   8.457  17.700  0.00  0.00    +0.000 S 
ATOM      4  C   UNL     1       2.204   7.319  18.888  0.00  0.00    +0.000 A 
ATOM      5  N   UNL     1       2.623   6.033  18.682  0.00  0.00    +0.000 N 
ATOM      6  C   UNL     1       2.126   5.018  19.473  0.00  0.00    +0.000 C 
ATOM      7  O   UNL     1       1.321   5.155  20.388  0.00  0.00    +0.000 OA
ATOM      8  N   UNL     1       1.492   7.777  19.881  0.00  0.00    +0.000 NA
ATOM      9  H   UNL     1       3.191   5.834  17.877  0.00  0.00    +0.000 HD
ENDROOT
BRANCH   1  14
ATOM     10  C   UNL     1      -2.025  12.019  23.542  0.00  0.00    +0.000 C 
ATOM     11  C   UNL     1      -1.194  11.245  22.563  0.00  0.00    +0.000 A 
ATOM     12  C   UNL     1      -0.490  10.103  22.956  0.00  0.00    +0.000 A 
ATOM     13  C   UNL     1       0.296   9.392  22.039  0.00  0.00    +0.000 A 
ATOM     14  C   UNL     1       0.395   9.814  20.706  0.00  0.00    +0.000 A 
ATOM     15  C   UNL     1      -0.320  10.960  20.320  0.00  0.00    +0.000 A 
ATOM     16  C   UNL     1      -1.105  11.668  21.235  0.00  0.00    +0.000 A 
ENDBRANCH   1  14
BRANCH   6  17
ATOM     17  C   UNL     1       2.604   3.679  19.115  0.00  0.00    +0.000 A 
ATOM     18  C   UNL     1       1.936   2.483  19.336  0.00  0.00    +0.000 A 
ATOM     19  N   UNL     1       2.630   1.481  18.709  0.00  0.00    +0.000 N 
ATOM     20  C   UNL     1       3.766   1.993  18.143  0.00  0.00    +0.000 A 
ATOM     21  C   UNL     1       3.811   3.353  18.395  0.00  0.00    +0.000 A 
ATOM     22  H   UNL     1       2.339   0.512  18.651  0.00  0.00    +0.000 HD
BRANCH  21  23
ATOM     23  C   UNL     1       4.919   4.208  17.965  0.00  0.00    +0.000 A 
ATOM     24  C   UNL     1       5.835   4.731  18.886  0.00  0.00    +0.000 A 
ATOM     25  C   UNL     1       6.897   5.536  18.459  0.00  0.00    +0.000 A 
ATOM     26  C   UNL     1       7.063   5.821  17.105  0.00  0.00    +0.000 A 
ATOM     27  C   UNL     1       6.158   5.314  16.179  0.00  0.00    +0.000 A 
ATOM     28  C   UNL     1       5.087   4.526  16.606  0.00  0.00    +0.000 A 
ENDBRANCH  21  23
ENDBRANCH   6  17
TORSDOF 3
ENDMDL
MODEL 2
REMARK VINA RESULT:      -8.6      0.925      1.613
REMARK  Name = 
REMARK  4 active torsions:
REMARK  status: ('A' for Active; 'I' for Inactive)
REMARK    1  A    between atoms: C_1  and  C_2
REMARK    2  A    between atoms: C_5  and  C_6
REMARK    3  A    between atoms: C_11  and  C_13
REMARK    4  A    between atoms: C_17  and  C_18
REMARK                            x       y       z     vdW  Elec       q    Type
REMARK                         _______ _______ _______ _____ _____    ______ ____
ROOT
ATOM      1  C   UNL     1       0.927   9.548  19.729  0.00  0.00    +0.000 A 
ATOM      2  C   UNL     1       1.311   9.965  18.466  0.00  0.00    +0.000 A 
ATOM      3  S   UNL     1       2.348   8.787  17.745  0.00  0.00    +0.000 S 
ATOM      4  C   UNL     1       2.157   7.809  19.126  0.00  0.00    +0.000 A 
ATOM      5  N   UNL     1       2.767   6.585  19.093  0.00  0.00    +0.000 N 
ATOM      6  C   UNL     1       2.479   5.652  20.067  0.00  0.00    +0.000 C 
ATOM      7  O   UNL     1       1.708   5.817  21.008  0.00  0.00    +0.000 OA
ATOM      8  N   UNL     1       1.430   8.313  20.085  0.00  0.00    +0.000 NA
ATOM      9  H   UNL     1       3.319   6.342  18.289  0.00  0.00    +0.000 HD
ENDROOT
BRANCH   1  14
ATOM     10  C   UNL     1      -2.489  12.271  23.533  0.00  0.00    +0.000 C 
ATOM     11  C   UNL     1      -1.600  11.589  22.536  0.00  0.00    +0.000 A 
ATOM     12  C   UNL     1      -1.532  12.027  21.210  0.00  0.00    +0.000 A 
ATOM     13  C   UNL     1      -0.709  11.377  20.280  0.00  0.00    +0.000 A 
ATOM     14  C   UNL     1       0.062  10.270  20.660  0.00  0.00    +0.000 A 
ATOM     15  C   UNL     1      -0.011   9.840  21.997  0.00  0.00    +0.000 A 
ATOM     16  C   UNL     1      -0.831  10.490  22.924  0.00  0.00    +0.000 A 
ENDBRANCH   1  14
BRANCH   6  17
ATOM     17  C   UNL     1       3.148   4.360  19.889  0.00  0.00    +0.000 A 
ATOM     18  C   UNL     1       2.678   3.126  20.317  0.00  0.00    +0.000 A 
ATOM     19  N   UNL     1       3.501   2.154  19.812  0.00  0.00    +0.000 N 
ATOM     20  C   UNL     1       4.531   2.735  19.123  0.00  0.00    +0.000 A 
ATOM     21  C   UNL     1       4.372   4.109  19.168  0.00  0.00    +0.000 A 
ATOM     22  H   UNL     1       3.362   1.155  19.913  0.00  0.00    +0.000 HD
BRANCH  21  23
ATOM     23  C   UNL     1       5.324   5.043  18.563  0.00  0.00    +0.000 A 
ATOM     24  C   UNL     1       5.076   5.630  17.315  0.00  0.00    +0.000 A 
ATOM     25  C   UNL     1       5.988   6.531  16.755  0.00  0.00    +0.000 A 
ATOM     26  C   UNL     1       7.157   6.864  17.438  0.00  0.00    +0.000 A 
ATOM     27  C   UNL     1       7.420   6.285  18.675  0.00  0.00    +0.000 A 
ATOM     28  C   UNL     1       6.519   5.372  19.226  0.00  0.00    +0.000 A 
ENDBRANCH  21  23
ENDBRANCH   6  17
TORSDOF 3
ENDMDL
MODEL 3
REMARK VINA RESULT:      -8.6      2.206      8.442
REMARK  Name = 
REMARK  4 active torsions:
REMARK  status: ('A' for Active; 'I' for Inactive)
REMARK    1  A    between atoms: C_1  and  C_2
REMARK    2  A    between atoms: C_5  and  C_6
REMARK    3  A    between atoms: C_11  and  C_13
REMARK    4  A    between atoms: C_17  and  C_18
REMARK                            x       y       z     vdW  Elec       q    Type
REMARK                         _______ _______ _______ _____ _____    ______ ____
ROOT
ATOM      1  C   UNL     1       3.238   5.103  18.793  0.00  0.00    +0.000 A 
ATOM      2  C   UNL     1       2.803   3.990  19.490  0.00  0.00    +0.000 A 
ATOM      3  S   UNL     1       1.824   4.476  20.827  0.00  0.00    +0.000 S 
ATOM      4  C   UNL     1       2.009   6.098  20.342  0.00  0.00    +0.000 A 
ATOM      5  N   UNL     1       1.328   7.032  21.072  0.00  0.00    +0.000 N 
ATOM      6  C   UNL     1       1.246   8.330  20.613  0.00  0.00    +0.000 C 
ATOM      7  O   UNL     1       1.751   8.755  19.580  0.00  0.00    +0.000 OA
ATOM      8  N   UNL     1       2.774   6.298  19.305  0.00  0.00    +0.000 NA
ATOM      9  H   UNL     1       0.793   6.728  21.867  0.00  0.00    +0.000 HD
ENDROOT
BRANCH   1  14
ATOM     10  C   UNL     1       6.668   4.961  14.127  0.00  0.00    +0.000 C 
ATOM     11  C   UNL     1       5.768   5.019  15.324  0.00  0.00    +0.000 A 
ATOM     12  C   UNL     1       5.327   6.242  15.839  0.00  0.00    +0.000 A 
ATOM     13  C   UNL     1       4.497   6.290  16.967  0.00  0.00    +0.000 A 
ATOM     14  C   UNL     1       4.093   5.110  17.606  0.00  0.00    +0.000 A 
ATOM     15  C   UNL     1       4.538   3.886  17.079  0.00  0.00    +0.000 A 
ATOM     16  C   UNL     1       5.365   3.839  15.953  0.00  0.00    +0.000 A 
ENDBRANCH   1  14
BRANCH   6  17
ATOM     17  C   UNL     1       0.438   9.222  21.451  0.00  0.00    +0.000 A 
ATOM     18  C   UNL     1       0.439   9.268  22.839  0.00  0.00    +0.000 A 
ATOM     19  N   UNL     1      -0.316  10.342  23.233  0.00  0.00    +0.000 N 
ATOM     20  C   UNL     1      -0.858  10.952  22.134  0.00  0.00    +0.000 A 
ATOM     21  C   UNL     1      -0.442  10.272  21.003  0.00  0.00    +0.000 A 
ATOM     22  H   UNL     1      -0.439  10.654  24.189  0.00  0.00    +0.000 HD
BRANCH  21  23
ATOM     23  C   UNL     1      -0.873  10.636  19.651  0.00  0.00    +0.000 A 
ATOM     24  C   UNL     1      -1.481   9.701  18.804  0.00  0.00    +0.000 A 
ATOM     25  C   UNL     1      -1.900  10.066  17.520  0.00  0.00    +0.000 A 
ATOM     26  C   UNL     1      -1.723  11.373  17.067  0.00  0.00    +0.000 A 
ATOM     27  C   UNL     1      -1.115  12.311  17.894  0.00  0.00    +0.000 A 
ATOM     28  C   UNL     1      -0.681  11.942  19.169  0.00  0.00    +0.000 A 
ENDBRANCH  21  23
ENDBRANCH   6  17
TORSDOF 3
ENDMDL
MODEL 4
REMARK VINA RESULT:      -8.3      2.249      8.267
REMARK  Name = 
REMARK  4 active torsions:
REMARK  status: ('A' for Active; 'I' for Inactive)
REMARK    1  A    between atoms: C_1  and  C_2
REMARK    2  A    between atoms: C_5  and  C_6
REMARK    3  A    between atoms: C_11  and  C_13
REMARK    4  A    between atoms: C_17  and  C_18
REMARK                            x       y       z     vdW  Elec       q    Type
REMARK                         _______ _______ _______ _____ _____    ______ ____
ROOT
ATOM      1  C   UNL     1       3.190   5.214  18.908  0.00  0.00    +0.000 A 
ATOM      2  C   UNL     1       2.810   4.095  19.628  0.00  0.00    +0.000 A 
ATOM      3  S   UNL     1       1.838   4.563  20.977  0.00  0.00    +0.000 S 
ATOM      4  C   UNL     1       1.954   6.184  20.468  0.00  0.00    +0.000 A 
ATOM      5  N   UNL     1       1.252   7.102  21.199  0.00  0.00    +0.000 N 
ATOM      6  C   UNL     1       1.114   8.390  20.725  0.00  0.00    +0.000 C 
ATOM      7  O   UNL     1       1.585   8.819  19.677  0.00  0.00    +0.000 OA
ATOM      8  N   UNL     1       2.692   6.398  19.414  0.00  0.00    +0.000 NA
ATOM      9  H   UNL     1       0.743   6.789  22.007  0.00  0.00    +0.000 HD
ENDROOT
BRANCH   1  14
ATOM     10  C   UNL     1       6.529   5.132  14.175  0.00  0.00    +0.000 C 
ATOM     11  C   UNL     1       5.653   5.174  15.391  0.00  0.00    +0.000 A 
ATOM     12  C   UNL     1       5.238   6.391  15.941  0.00  0.00    +0.000 A 
ATOM     13  C   UNL     1       4.430   6.425  17.085  0.00  0.00    +0.000 A 
ATOM     14  C   UNL     1       4.023   5.236  17.706  0.00  0.00    +0.000 A 
ATOM     15  C   UNL     1       4.442   4.019  17.144  0.00  0.00    +0.000 A 
ATOM     16  C   UNL     1       5.246   3.986  16.002  0.00  0.00    +0.000 A 
ENDBRANCH   1  14
BRANCH   6  17
ATOM     17  C   UNL     1       0.290   9.262  21.567  0.00  0.00    +0.000 A 
ATOM     18  C   UNL     1      -0.410   8.884  22.704  0.00  0.00    +0.000 A 
ATOM     19  N   UNL     1      -0.910  10.014  23.297  0.00  0.00    +0.000 N 
ATOM     20  C   UNL     1      -0.606  11.108  22.533  0.00  0.00    +0.000 A 
ATOM     21  C   UNL     1       0.115  10.688  21.429  0.00  0.00    +0.000 A 
ATOM     22  H   UNL     1      -1.411  10.043  24.177  0.00  0.00    +0.000 HD
BRANCH  21  23
ATOM     23  C   UNL     1       0.569  11.601  20.378  0.00  0.00    +0.000 A 
ATOM     24  C   UNL     1       1.803  12.257  20.466  0.00  0.00    +0.000 A 
ATOM     25  C   UNL     1       2.230  13.116  19.448  0.00  0.00    +0.000 A 
ATOM     26  C   UNL     1       1.433  13.325  18.323  0.00  0.00    +0.000 A 
ATOM     27  C   UNL     1       0.202  12.686  18.224  0.00  0.00    +0.000 A 
ATOM     28  C   UNL     1      -0.232  11.842  19.249  0.00  0.00    +0.000 A 
ENDBRANCH  21  23
ENDBRANCH   6  17
TORSDOF 3
ENDMDL
MODEL 5
REMARK VINA RESULT:      -8.3      2.906      8.824
REMARK  Name = 
REMARK  4 active torsions:
REMARK  status: ('A' for Active; 'I' for Inactive)
REMARK    1  A    between atoms: C_1  and  C_2
REMARK    2  A    between atoms: C_5  and  C_6
REMARK    3  A    between atoms: C_11  and  C_13
REMARK    4  A    between atoms: C_17  and  C_18
REMARK                            x       y       z     vdW  Elec       q    Type
REMARK                         _______ _______ _______ _____ _____    ______ ____
ROOT
ATOM      1  C   UNL     1       2.993   6.276  18.689  0.00  0.00    +0.000 A 
ATOM      2  C   UNL     1       2.501   5.557  19.764  0.00  0.00    +0.000 A 
ATOM      3  S   UNL     1       1.582   6.593  20.796  0.00  0.00    +0.000 S 
ATOM      4  C   UNL     1       1.864   7.879  19.716  0.00  0.00    +0.000 A 
ATOM      5  N   UNL     1       1.261   9.069  20.017  0.00  0.00    +0.000 N 
ATOM      6  C   UNL     1       1.255  10.086  19.086  0.00  0.00    +0.000 C 
ATOM      7  O   UNL     1       1.767  10.037  17.972  0.00  0.00    +0.000 OA
ATOM      8  N   UNL     1       2.619   7.605  18.689  0.00  0.00    +0.000 NA
ATOM      9  H   UNL     1       0.723   9.137  20.863  0.00  0.00    +0.000 HD
ENDROOT
BRANCH   1  14
ATOM     10  C   UNL     1       6.287   4.396  14.310  0.00  0.00    +0.000 C 
ATOM     11  C   UNL     1       5.441   4.861  15.457  0.00  0.00    +0.000 A 
ATOM     12  C   UNL     1       4.749   3.950  16.261  0.00  0.00    +0.000 A 
ATOM     13  C   UNL     1       3.949   4.392  17.323  0.00  0.00    +0.000 A 
ATOM     14  C   UNL     1       3.823   5.760  17.601  0.00  0.00    +0.000 A 
ATOM     15  C   UNL     1       4.526   6.667  16.790  0.00  0.00    +0.000 A 
ATOM     16  C   UNL     1       5.325   6.226  15.731  0.00  0.00    +0.000 A 
ENDBRANCH   1  14
BRANCH   6  17
ATOM     17  C   UNL     1       0.526  11.288  19.502  0.00  0.00    +0.000 A 
ATOM     18  C   UNL     1       0.955  12.231  20.425  0.00  0.00    +0.000 A 
ATOM     19  N   UNL     1       0.075  13.281  20.408  0.00  0.00    +0.000 N 
ATOM     20  C   UNL     1      -0.950  13.009  19.543  0.00  0.00    +0.000 A 
ATOM     21  C   UNL     1      -0.730  11.765  18.976  0.00  0.00    +0.000 A 
ATOM     22  H   UNL     1       0.174  14.140  20.937  0.00  0.00    +0.000 HD
BRANCH  21  23
ATOM     23  C   UNL     1      -1.660  11.144  18.031  0.00  0.00    +0.000 A 
ATOM     24  C   UNL     1      -2.378   9.989  18.367  0.00  0.00    +0.000 A 
ATOM     25  C   UNL     1      -3.274   9.415  17.458  0.00  0.00    +0.000 A 
ATOM     26  C   UNL     1      -3.469   9.990  16.204  0.00  0.00    +0.000 A 
ATOM     27  C   UNL     1      -2.759  11.133  15.853  0.00  0.00    +0.000 A 
ATOM     28  C   UNL     1      -1.851  11.697  16.753  0.00  0.00    +0.000 A 
ENDBRANCH  21  23
ENDBRANCH   6  17
TORSDOF 3
ENDMDL
MODEL 6
REMARK VINA RESULT:      -8.2      3.019      8.973
REMARK  Name = 
REMARK  4 active torsions:
REMARK  status: ('A' for Active; 'I' for Inactive)
REMARK    1  A    between atoms: C_1  and  C_2
REMARK    2  A    between atoms: C_5  and  C_6
REMARK    3  A    between atoms: C_11  and  C_13
REMARK    4  A    between atoms: C_17  and  C_18
REMARK                            x       y       z     vdW  Elec       q    Type
REMARK                         _______ _______ _______ _____ _____    ______ ____
ROOT
ATOM      1  C   UNL     1       2.826   6.638  18.734  0.00  0.00    +0.000 A 
ATOM      2  C   UNL     1       2.209   6.102  19.851  0.00  0.00    +0.000 A 
ATOM      3  S   UNL     1       1.371   7.342  20.713  0.00  0.00    +0.000 S 
ATOM      4  C   UNL     1       1.843   8.459  19.518  0.00  0.00    +0.000 A 
ATOM      5  N   UNL     1       1.366   9.734  19.656  0.00  0.00    +0.000 N 
ATOM      6  C   UNL     1       1.516  10.634  18.622  0.00  0.00    +0.000 C 
ATOM      7  O   UNL     1       2.067  10.405  17.550  0.00  0.00    +0.000 OA
ATOM      8  N   UNL     1       2.606   7.991  18.570  0.00  0.00    +0.000 NA
ATOM      9  H   UNL     1       0.803   9.955  20.459  0.00  0.00    +0.000 HD
ENDROOT
BRANCH   1  14
ATOM     10  C   UNL     1       6.076   3.932  14.775  0.00  0.00    +0.000 C 
ATOM     11  C   UNL     1       5.238   4.611  15.816  0.00  0.00    +0.000 A 
ATOM     12  C   UNL     1       4.385   3.880  16.648  0.00  0.00    +0.000 A 
ATOM     13  C   UNL     1       3.593   4.522  17.610  0.00  0.00    +0.000 A 
ATOM     14  C   UNL     1       3.638   5.915  17.756  0.00  0.00    +0.000 A 
ATOM     15  C   UNL     1       4.502   6.641  16.918  0.00  0.00    +0.000 A 
ATOM     16  C   UNL     1       5.292   6.000  15.960  0.00  0.00    +0.000 A 
ENDBRANCH   1  14
BRANCH   6  17
ATOM     17  C   UNL     1       0.910  11.946  18.865  0.00  0.00    +0.000 A 
ATOM     18  C   UNL     1       1.569  13.086  19.305  0.00  0.00    +0.000 A 
ATOM     19  N   UNL     1       0.694  14.139  19.243  0.00  0.00    +0.000 N 
ATOM     20  C   UNL     1      -0.534  13.694  18.835  0.00  0.00    +0.000 A 
ATOM     21  C   UNL     1      -0.458  12.330  18.616  0.00  0.00    +0.000 A 
ATOM     22  H   UNL     1       0.923  15.106  19.446  0.00  0.00    +0.000 HD
BRANCH  21  23
ATOM     23  C   UNL     1      -1.609  11.522  18.208  0.00  0.00    +0.000 A 
ATOM     24  C   UNL     1      -2.905  11.828  18.644  0.00  0.00    +0.000 A 
ATOM     25  C   UNL     1      -3.997  11.056  18.235  0.00  0.00    +0.000 A 
ATOM     26  C   UNL     1      -3.811   9.972  17.378  0.00  0.00    +0.000 A 
ATOM     27  C   UNL     1      -2.530   9.652  16.941  0.00  0.00    +0.000 A 
ATOM     28  C   UNL     1      -1.437  10.411  17.364  0.00  0.00    +0.000 A 
ENDBRANCH  21  23
ENDBRANCH   6  17
TORSDOF 3
ENDMDL
MODEL 7
REMARK VINA RESULT:      -8.2      2.846      8.937
REMARK  Name = 
REMARK  4 active torsions:
REMARK  status: ('A' for Active; 'I' for Inactive)
REMARK    1  A    between atoms: C_1  and  C_2
REMARK    2  A    between atoms: C_5  and  C_6
REMARK    3  A    between atoms: C_11  and  C_13
REMARK    4  A    between atoms: C_17  and  C_18
REMARK                            x       y       z     vdW  Elec       q    Type
REMARK                         _______ _______ _______ _____ _____    ______ ____
ROOT
ATOM      1  C   UNL     1       2.884   6.403  18.747  0.00  0.00    +0.000 A 
ATOM      2  C   UNL     1       2.313   5.686  19.784  0.00  0.00    +0.000 A 
ATOM      3  S   UNL     1       1.412   6.744  20.809  0.00  0.00    +0.000 S 
ATOM      4  C   UNL     1       1.802   8.039  19.773  0.00  0.00    +0.000 A 
ATOM      5  N   UNL     1       1.249   9.252  20.082  0.00  0.00    +0.000 N 
ATOM      6  C   UNL     1       1.333  10.289  19.178  0.00  0.00    +0.000 C 
ATOM      7  O   UNL     1       1.883  10.240  18.083  0.00  0.00    +0.000 OA
ATOM      8  N   UNL     1       2.580   7.749  18.768  0.00  0.00    +0.000 NA
ATOM      9  H   UNL     1       0.684   9.328  20.910  0.00  0.00    +0.000 HD
ENDROOT
BRANCH   1  14
ATOM     10  C   UNL     1       6.203   4.127  14.581  0.00  0.00    +0.000 C 
ATOM     11  C   UNL     1       5.340   4.737  15.644  0.00  0.00    +0.000 A 
ATOM     12  C   UNL     1       5.327   6.119  15.860  0.00  0.00    +0.000 A 
ATOM     13  C   UNL     1       4.529   6.682  16.865  0.00  0.00    +0.000 A 
ATOM     14  C   UNL     1       3.727   5.870  17.678  0.00  0.00    +0.000 A 
ATOM     15  C   UNL     1       3.744   4.483  17.450  0.00  0.00    +0.000 A 
ATOM     16  C   UNL     1       4.539   3.922  16.447  0.00  0.00    +0.000 A 
ENDBRANCH   1  14
BRANCH   6  17
ATOM     17  C   UNL     1       0.651  11.518  19.597  0.00  0.00    +0.000 A 
ATOM     18  C   UNL     1       1.181  12.517  20.403  0.00  0.00    +0.000 A 
ATOM     19  N   UNL     1       0.300  13.566  20.421  0.00  0.00    +0.000 N 
ATOM     20  C   UNL     1      -0.816  13.243  19.698  0.00  0.00    +0.000 A 
ATOM     21  C   UNL     1      -0.659  11.965  19.191  0.00  0.00    +0.000 A 
ATOM     22  H   UNL     1       0.456  14.457  20.879  0.00  0.00    +0.000 HD
BRANCH  21  23
ATOM     23  C   UNL     1      -1.688  11.288  18.400  0.00  0.00    +0.000 A 
ATOM     24  C   UNL     1      -1.355  10.313  17.451  0.00  0.00    +0.000 A 
ATOM     25  C   UNL     1      -2.350   9.664  16.713  0.00  0.00    +0.000 A 
ATOM     26  C   UNL     1      -3.694   9.976  16.917  0.00  0.00    +0.000 A 
ATOM     27  C   UNL     1      -4.041  10.947  17.851  0.00  0.00    +0.000 A 
ATOM     28  C   UNL     1      -3.046  11.607  18.575  0.00  0.00    +0.000 A 
ENDBRANCH  21  23
ENDBRANCH   6  17
TORSDOF 3
ENDMDL
MODEL 8
REMARK VINA RESULT:      -8.2      2.794      8.854
REMARK  Name = 
REMARK  4 active torsions:
REMARK  status: ('A' for Active; 'I' for Inactive)
REMARK    1  A    between atoms: C_1  and  C_2
REMARK    2  A    between atoms: C_5  and  C_6
REMARK    3  A    between atoms: C_11  and  C_13
REMARK    4  A    between atoms: C_17  and  C_18
REMARK                            x       y       z     vdW  Elec       q    Type
REMARK                         _______ _______ _______ _____ _____    ______ ____
ROOT
ATOM      1  C   UNL     1       2.955   6.262  18.728  0.00  0.00    +0.000 A 
ATOM      2  C   UNL     1       2.434   5.460  19.729  0.00  0.00    +0.000 A 
ATOM      3  S   UNL     1       1.493   6.413  20.820  0.00  0.00    +0.000 S 
ATOM      4  C   UNL     1       1.804   7.781  19.855  0.00  0.00    +0.000 A 
ATOM      5  N   UNL     1       1.196   8.945  20.237  0.00  0.00    +0.000 N 
ATOM      6  C   UNL     1       1.216  10.035  19.391  0.00  0.00    +0.000 C 
ATOM      7  O   UNL     1       1.754  10.075  18.290  0.00  0.00    +0.000 OA
ATOM      8  N   UNL     1       2.584   7.588  18.827  0.00  0.00    +0.000 NA
ATOM      9  H   UNL     1       0.638   8.947  21.073  0.00  0.00    +0.000 HD
ENDROOT
BRANCH   1  14
ATOM     10  C   UNL     1       6.346   4.397  14.418  0.00  0.00    +0.000 C 
ATOM     11  C   UNL     1       5.461   4.900  15.519  0.00  0.00    +0.000 A 
ATOM     12  C   UNL     1       5.286   6.271  15.736  0.00  0.00    +0.000 A 
ATOM     13  C   UNL     1       4.468   6.735  16.775  0.00  0.00    +0.000 A 
ATOM     14  C   UNL     1       3.810   5.833  17.622  0.00  0.00    +0.000 A 
ATOM     15  C   UNL     1       3.989   4.458  17.393  0.00  0.00    +0.000 A 
ATOM     16  C   UNL     1       4.804   3.996  16.356  0.00  0.00    +0.000 A 
ENDBRANCH   1  14
BRANCH   6  17
ATOM     17  C   UNL     1       0.479  11.201  19.886  0.00  0.00    +0.000 A 
ATOM     18  C   UNL     1       0.909  12.094  20.858  0.00  0.00    +0.000 A 
ATOM     19  N   UNL     1       0.018  13.133  20.914  0.00  0.00    +0.000 N 
ATOM     20  C   UNL     1      -1.015  12.900  20.046  0.00  0.00    +0.000 A 
ATOM     21  C   UNL     1      -0.789  11.695  19.405  0.00  0.00    +0.000 A 
ATOM     22  H   UNL     1       0.115  13.960  21.491  0.00  0.00    +0.000 HD
BRANCH  21  23
ATOM     23  C   UNL     1      -1.723  11.120  18.435  0.00  0.00    +0.000 A 
ATOM     24  C   UNL     1      -3.072  11.499  18.409  0.00  0.00    +0.000 A 
ATOM     25  C   UNL     1      -3.950  10.952  17.468  0.00  0.00    +0.000 A 
ATOM     26  C   UNL     1      -3.492  10.023  16.534  0.00  0.00    +0.000 A 
ATOM     27  C   UNL     1      -2.157   9.632  16.551  0.00  0.00    +0.000 A 
ATOM     28  C   UNL     1      -1.284  10.165  17.502  0.00  0.00    +0.000 A 
ENDBRANCH  21  23
ENDBRANCH   6  17
TORSDOF 3
ENDMDL
MODEL 9
REMARK VINA RESULT:      -8.1      2.845      4.624
REMARK  Name = 
REMARK  4 active torsions:
REMARK  status: ('A' for Active; 'I' for Inactive)
REMARK    1  A    between atoms: C_1  and  C_2
REMARK    2  A    between atoms: C_5  and  C_6
REMARK    3  A    between atoms: C_11  and  C_13
REMARK    4  A    between atoms: C_17  and  C_18
REMARK                            x       y       z     vdW  Elec       q    Type
REMARK                         _______ _______ _______ _____ _____    ______ ____
ROOT
ATOM      1  C   UNL     1      -0.486  11.076  18.429  0.00  0.00    +0.000 A 
ATOM      2  C   UNL     1       0.298  12.202  18.606  0.00  0.00    +0.000 A 
ATOM      3  S   UNL     1       1.966  11.756  18.672  0.00  0.00    +0.000 S 
ATOM      4  C   UNL     1       1.517  10.134  18.406  0.00  0.00    +0.000 A 
ATOM      5  N   UNL     1       2.539   9.233  18.288  0.00  0.00    +0.000 N 
ATOM      6  C   UNL     1       2.272   7.952  17.853  0.00  0.00    +0.000 C 
ATOM      7  O   UNL     1       1.165   7.513  17.560  0.00  0.00    +0.000 OA
ATOM      8  N   UNL     1       0.236   9.904  18.323  0.00  0.00    +0.000 NA
ATOM      9  H   UNL     1       3.484   9.557  18.400  0.00  0.00    +0.000 HD
ENDROOT
BRANCH   1  14
ATOM     10  C   UNL     1      -6.274  11.024  18.191  0.00  0.00    +0.000 C 
ATOM     11  C   UNL     1      -4.775  11.029  18.228  0.00  0.00    +0.000 A 
ATOM     12  C   UNL     1      -4.031  10.073  17.528  0.00  0.00    +0.000 A 
ATOM     13  C   UNL     1      -2.631  10.075  17.577  0.00  0.00    +0.000 A 
ATOM     14  C   UNL     1      -1.945  11.035  18.333  0.00  0.00    +0.000 A 
ATOM     15  C   UNL     1      -2.701  11.993  19.030  0.00  0.00    +0.000 A 
ATOM     16  C   UNL     1      -4.098  11.992  18.979  0.00  0.00    +0.000 A 
ENDBRANCH   1  14
BRANCH   6  17
ATOM     17  C   UNL     1       3.456   7.099  17.709  0.00  0.00    +0.000 A 
ATOM     18  C   UNL     1       4.675   7.472  17.161  0.00  0.00    +0.000 A 
ATOM     19  N   UNL     1       5.568   6.453  17.364  0.00  0.00    +0.000 N 
ATOM     20  C   UNL     1       4.937   5.402  17.973  0.00  0.00    +0.000 A 
ATOM     21  C   UNL     1       3.612   5.745  18.181  0.00  0.00    +0.000 A 
ATOM     22  H   UNL     1       6.552   6.476  17.122  0.00  0.00    +0.000 HD
BRANCH  21  23
ATOM     23  C   UNL     1       2.636   4.831  18.778  0.00  0.00    +0.000 A 
ATOM     24  C   UNL     1       1.998   3.845  18.014  0.00  0.00    +0.000 A 
ATOM     25  C   UNL     1       1.078   2.970  18.601  0.00  0.00    +0.000 A 
ATOM     26  C   UNL     1       0.789   3.062  19.962  0.00  0.00    +0.000 A 
ATOM     27  C   UNL     1       1.410   4.038  20.733  0.00  0.00    +0.000 A 
ATOM     28  C   UNL     1       2.315   4.924  20.144  0.00  0.00    +0.000 A 
ENDBRANCH  21  23
ENDBRANCH   6  17
TORSDOF 3
ENDMDL
