MODEL 1
REMARK VINA RESULT:      -7.3      0.000      0.000
REMARK  Name = 
REMARK  4 active torsions:
REMARK  status: ('A' for Active; 'I' for Inactive)
REMARK    1  A    between atoms: C_2  and  C_3
REMARK    2  A    between atoms: C_2  and  C_12
REMARK    3  A    between atoms: C_15  and  C_16
REMARK    4  A    between atoms: C_23  and  C_25
REMARK                            x       y       z     vdW  Elec       q    Type
REMARK                         _______ _______ _______ _____ _____    ______ ____
ROOT
ATOM      1  C   UNL     1      -0.584  10.063  19.983  0.00  0.00    +0.000 C 
ATOM      2  C   UNL     1      -1.428  10.328  18.737  0.00  0.00    +0.000 C 
ATOM      3  S   UNL     1      -2.176  11.960  18.926  0.00  0.00    +0.000 S 
ATOM      4  C   UNL     1      -1.441  12.280  20.570  0.00  0.00    +0.000 C 
ATOM      5  N   UNL     1      -1.031  10.966  21.072  0.00  0.00    +0.000 N 
ATOM      6  C   UNL     1      -0.575  10.848  22.397  0.00  0.00    +0.000 C 
ATOM      7  O   UNL     1      -0.694  11.794  23.187  0.00  0.00    +0.000 OA
ENDROOT
BRANCH   4   8
ATOM      8  C   UNL     1      -2.378  13.109  21.413  0.00  0.00    +0.000 A 
ATOM      9  C   UNL     1      -3.640  12.684  21.848  0.00  0.00    +0.000 A 
ATOM     10  C   UNL     1      -4.401  13.511  22.672  0.00  0.00    +0.000 A 
ATOM     11  C   UNL     1      -3.890  14.748  23.027  0.00  0.00    +0.000 A 
ATOM     12  N   UNL     1      -2.699  15.213  22.603  0.00  0.00    +0.000 NA
ATOM     13  C   UNL     1      -1.973  14.384  21.818  0.00  0.00    +0.000 A 
ENDBRANCH   4   8
BRANCH   6  14
ATOM     14  C   UNL     1       0.017   9.508  22.919  0.00  0.00    +0.000 C 
ATOM     15  F   UNL     1       1.320   9.288  22.586  0.00  0.00    +0.000 F 
ATOM     16  F   UNL     1      -0.031   9.416  24.276  0.00  0.00    +0.000 F 
ATOM     17  F   UNL     1      -0.670   8.435  22.436  0.00  0.00    +0.000 F 
ENDBRANCH   6  14
BRANCH   1  19
ATOM     18  O   UNL     1       1.515  11.267  20.026  0.00  0.00    +0.000 OA
ATOM     19  C   UNL     1       0.929  10.250  19.654  0.00  0.00    +0.000 C 
BRANCH  19  20
ATOM     20  C   UNL     1       1.642   9.175  18.946  0.00  0.00    +0.000 A 
ATOM     21  C   UNL     1       2.224   9.269  17.693  0.00  0.00    +0.000 A 
ATOM     22  N   UNL     1       2.797   8.062  17.383  0.00  0.00    +0.000 N 
ATOM     23  C   UNL     1       2.597   7.166  18.399  0.00  0.00    +0.000 A 
ATOM     24  C   UNL     1       2.994   5.824  18.498  0.00  0.00    +0.000 A 
ATOM     25  C   UNL     1       2.640   5.127  19.655  0.00  0.00    +0.000 A 
ATOM     26  C   UNL     1       1.916   5.749  20.670  0.00  0.00    +0.000 A 
ATOM     27  C   UNL     1       1.527   7.091  20.555  0.00  0.00    +0.000 A 
ATOM     28  C   UNL     1       1.871   7.825  19.396  0.00  0.00    +0.000 A 
ATOM     29  H   UNL     1       3.291   7.853  16.526  0.00  0.00    +0.000 HD
ENDBRANCH  19  20
ENDBRANCH   1  19
TORSDOF 4
ENDMDL
MODEL 2
REMARK VINA RESULT:      -6.6      1.369      2.168
REMARK  Name = 
REMARK  4 active torsions:
REMARK  status: ('A' for Active; 'I' for Inactive)
REMARK    1  A    between atoms: C_2  and  C_3
REMARK    2  A    between atoms: C_2  and  C_12
REMARK    3  A    between atoms: C_15  and  C_16
REMARK    4  A    between atoms: C_23  and  C_25
REMARK                            x       y       z     vdW  Elec       q    Type
REMARK                         _______ _______ _______ _____ _____    ______ ____
ROOT
ATOM      1  C   UNL     1      -0.518   9.844  19.667  0.00  0.00    +0.000 C 
ATOM      2  C   UNL     1      -1.230   9.982  18.321  0.00  0.00    +0.000 C 
ATOM      3  S   UNL     1      -1.610  11.730  18.086  0.00  0.00    +0.000 S 
ATOM      4  C   UNL     1      -0.893  12.263  19.682  0.00  0.00    +0.000 C 
ATOM      5  N   UNL     1      -0.802  11.045  20.491  0.00  0.00    +0.000 N 
ATOM      6  C   UNL     1      -0.440  11.144  21.846  0.00  0.00    +0.000 C 
ATOM      7  O   UNL     1      -0.381  12.250  22.399  0.00  0.00    +0.000 OA
ENDROOT
BRANCH   4   8
ATOM      8  C   UNL     1      -1.660  13.437  20.238  0.00  0.00    +0.000 A 
ATOM      9  C   UNL     1      -1.121  14.714  20.437  0.00  0.00    +0.000 A 
ATOM     10  C   UNL     1      -1.938  15.743  20.905  0.00  0.00    +0.000 A 
ATOM     11  C   UNL     1      -3.267  15.465  21.178  0.00  0.00    +0.000 A 
ATOM     12  N   UNL     1      -3.817  14.244  21.038  0.00  0.00    +0.000 NA
ATOM     13  C   UNL     1      -3.008  13.268  20.567  0.00  0.00    +0.000 A 
ENDBRANCH   4   8
BRANCH   6  14
ATOM     14  C   UNL     1      -0.178   9.868  22.695  0.00  0.00    +0.000 C 
ATOM     15  F   UNL     1      -0.822   8.749  22.264  0.00  0.00    +0.000 F 
ATOM     16  F   UNL     1       1.142   9.535  22.733  0.00  0.00    +0.000 F 
ATOM     17  F   UNL     1      -0.569  10.039  23.990  0.00  0.00    +0.000 F 
ENDBRANCH   6  14
BRANCH   1  19
ATOM     18  O   UNL     1       1.720  10.596  19.133  0.00  0.00    +0.000 OA
ATOM     19  C   UNL     1       1.011   9.638  19.443  0.00  0.00    +0.000 C 
BRANCH  19  20
ATOM     20  C   UNL     1       1.589   8.302  19.662  0.00  0.00    +0.000 A 
ATOM     21  C   UNL     1       1.329   7.467  20.736  0.00  0.00    +0.000 A 
ATOM     22  N   UNL     1       2.050   6.310  20.577  0.00  0.00    +0.000 N 
ATOM     23  C   UNL     1       2.790   6.365  19.426  0.00  0.00    +0.000 A 
ATOM     24  C   UNL     1       3.673   5.418  18.885  0.00  0.00    +0.000 A 
ATOM     25  C   UNL     1       4.317   5.743  17.689  0.00  0.00    +0.000 A 
ATOM     26  C   UNL     1       4.087   6.965  17.063  0.00  0.00    +0.000 A 
ATOM     27  C   UNL     1       3.201   7.900  17.617  0.00  0.00    +0.000 A 
ATOM     28  C   UNL     1       2.532   7.602  18.827  0.00  0.00    +0.000 A 
ATOM     29  H   UNL     1       2.046   5.528  21.217  0.00  0.00    +0.000 HD
ENDBRANCH  19  20
ENDBRANCH   1  19
TORSDOF 4
ENDMDL
MODEL 3
REMARK VINA RESULT:      -6.6      2.420      3.017
REMARK  Name = 
REMARK  4 active torsions:
REMARK  status: ('A' for Active; 'I' for Inactive)
REMARK    1  A    between atoms: C_2  and  C_3
REMARK    2  A    between atoms: C_2  and  C_12
REMARK    3  A    between atoms: C_15  and  C_16
REMARK    4  A    between atoms: C_23  and  C_25
REMARK                            x       y       z     vdW  Elec       q    Type
REMARK                         _______ _______ _______ _____ _____    ______ ____
ROOT
ATOM      1  C   UNL     1       0.939  10.554  20.941  0.00  0.00    +0.000 C 
ATOM      2  C   UNL     1       0.812   9.678  22.187  0.00  0.00    +0.000 C 
ATOM      3  S   UNL     1      -0.694  10.175  23.047  0.00  0.00    +0.000 S 
ATOM      4  C   UNL     1      -1.134  11.485  21.849  0.00  0.00    +0.000 C 
ATOM      5  N   UNL     1       0.100  11.766  21.113  0.00  0.00    +0.000 N 
ATOM      6  C   UNL     1       0.138  12.853  20.221  0.00  0.00    +0.000 C 
ATOM      7  O   UNL     1      -0.788  13.673  20.196  0.00  0.00    +0.000 OA
ENDROOT
BRANCH   4   8
ATOM      8  C   UNL     1      -1.825  12.629  22.550  0.00  0.00    +0.000 A 
ATOM      9  C   UNL     1      -1.191  13.526  23.418  0.00  0.00    +0.000 A 
ATOM     10  C   UNL     1      -1.916  14.583  23.969  0.00  0.00    +0.000 A 
ATOM     11  C   UNL     1      -3.258  14.706  23.651  0.00  0.00    +0.000 A 
ATOM     12  N   UNL     1      -3.917  13.845  22.852  0.00  0.00    +0.000 NA
ATOM     13  C   UNL     1      -3.188  12.839  22.318  0.00  0.00    +0.000 A 
ENDBRANCH   4   8
BRANCH   6  14
ATOM     14  C   UNL     1       1.372  13.088  19.304  0.00  0.00    +0.000 C 
ATOM     15  F   UNL     1       1.451  12.261  18.226  0.00  0.00    +0.000 F 
ATOM     16  F   UNL     1       1.404  14.351  18.796  0.00  0.00    +0.000 F 
ATOM     17  F   UNL     1       2.541  12.917  19.984  0.00  0.00    +0.000 F 
ENDBRANCH   6  14
BRANCH   1  19
ATOM     18  O   UNL     1      -0.581   9.890  19.179  0.00  0.00    +0.000 OA
ATOM     19  C   UNL     1       0.536   9.740  19.673  0.00  0.00    +0.000 C 
BRANCH  19  20
ATOM     20  C   UNL     1       1.528   8.844  19.057  0.00  0.00    +0.000 A 
ATOM     21  C   UNL     1       2.271   9.108  17.919  0.00  0.00    +0.000 A 
ATOM     22  N   UNL     1       3.088   8.035  17.669  0.00  0.00    +0.000 N 
ATOM     23  C   UNL     1       2.895   7.060  18.611  0.00  0.00    +0.000 A 
ATOM     24  C   UNL     1       3.502   5.801  18.732  0.00  0.00    +0.000 A 
ATOM     25  C   UNL     1       3.101   4.989  19.795  0.00  0.00    +0.000 A 
ATOM     26  C   UNL     1       2.132   5.418  20.697  0.00  0.00    +0.000 A 
ATOM     27  C   UNL     1       1.535   6.681  20.561  0.00  0.00    +0.000 A 
ATOM     28  C   UNL     1       1.919   7.528  19.496  0.00  0.00    +0.000 A 
ATOM     29  H   UNL     1       3.737   7.963  16.897  0.00  0.00    +0.000 HD
ENDBRANCH  19  20
ENDBRANCH   1  19
TORSDOF 4
ENDMDL
MODEL 4
REMARK VINA RESULT:      -6.5      2.422      2.936
REMARK  Name = 
REMARK  4 active torsions:
REMARK  status: ('A' for Active; 'I' for Inactive)
REMARK    1  A    between atoms: C_2  and  C_3
REMARK    2  A    between atoms: C_2  and  C_12
REMARK    3  A    between atoms: C_15  and  C_16
REMARK    4  A    between atoms: C_23  and  C_25
REMARK                            x       y       z     vdW  Elec       q    Type
REMARK                         _______ _______ _______ _____ _____    ______ ____
ROOT
ATOM      1  C   UNL     1       0.823  10.668  20.959  0.00  0.00    +0.000 C 
ATOM      2  C   UNL     1       0.693   9.808  22.216  0.00  0.00    +0.000 C 
ATOM      3  S   UNL     1      -0.807  10.326  23.074  0.00  0.00    +0.000 S 
ATOM      4  C   UNL     1      -1.241  11.626  21.862  0.00  0.00    +0.000 C 
ATOM      5  N   UNL     1      -0.007  11.888  21.118  0.00  0.00    +0.000 N 
ATOM      6  C   UNL     1       0.036  12.964  20.214  0.00  0.00    +0.000 C 
ATOM      7  O   UNL     1      -0.883  13.791  20.181  0.00  0.00    +0.000 OA
ENDROOT
BRANCH   4   8
ATOM      8  C   UNL     1      -1.922  12.783  22.551  0.00  0.00    +0.000 A 
ATOM      9  C   UNL     1      -3.267  13.129  22.375  0.00  0.00    +0.000 A 
ATOM     10  C   UNL     1      -3.810  14.185  23.107  0.00  0.00    +0.000 A 
ATOM     11  C   UNL     1      -2.989  14.878  23.981  0.00  0.00    +0.000 A 
ATOM     12  N   UNL     1      -1.682  14.604  24.153  0.00  0.00    +0.000 NA
ATOM     13  C   UNL     1      -1.185  13.565  23.445  0.00  0.00    +0.000 A 
ENDBRANCH   4   8
BRANCH   6  14
ATOM     14  C   UNL     1       1.269  13.179  19.290  0.00  0.00    +0.000 C 
ATOM     15  F   UNL     1       2.470  12.867  19.854  0.00  0.00    +0.000 F 
ATOM     16  F   UNL     1       1.198  12.435  18.152  0.00  0.00    +0.000 F 
ATOM     17  F   UNL     1       1.378  14.479  18.894  0.00  0.00    +0.000 F 
ENDBRANCH   6  14
BRANCH   1  19
ATOM     18  O   UNL     1      -0.726   9.956  19.240  0.00  0.00    +0.000 OA
ATOM     19  C   UNL     1       0.410   9.842  19.702  0.00  0.00    +0.000 C 
BRANCH  19  20
ATOM     20  C   UNL     1       1.412   8.978  19.057  0.00  0.00    +0.000 A 
ATOM     21  C   UNL     1       2.120   9.271  17.904  0.00  0.00    +0.000 A 
ATOM     22  N   UNL     1       2.961   8.223  17.627  0.00  0.00    +0.000 N 
ATOM     23  C   UNL     1       2.818   7.237  18.566  0.00  0.00    +0.000 A 
ATOM     24  C   UNL     1       3.463   5.995  18.663  0.00  0.00    +0.000 A 
ATOM     25  C   UNL     1       3.110   5.164  19.729  0.00  0.00    +0.000 A 
ATOM     26  C   UNL     1       2.150   5.560  20.656  0.00  0.00    +0.000 A 
ATOM     27  C   UNL     1       1.515   6.806  20.544  0.00  0.00    +0.000 A 
ATOM     28  C   UNL     1       1.850   7.671  19.477  0.00  0.00    +0.000 A 
ATOM     29  H   UNL     1       3.594   8.175  16.840  0.00  0.00    +0.000 HD
ENDBRANCH  19  20
ENDBRANCH   1  19
TORSDOF 4
ENDMDL
MODEL 5
REMARK VINA RESULT:      -6.3      2.693      3.428
REMARK  Name = 
REMARK  4 active torsions:
REMARK  status: ('A' for Active; 'I' for Inactive)
REMARK    1  A    between atoms: C_2  and  C_3
REMARK    2  A    between atoms: C_2  and  C_12
REMARK    3  A    between atoms: C_15  and  C_16
REMARK    4  A    between atoms: C_23  and  C_25
REMARK                            x       y       z     vdW  Elec       q    Type
REMARK                         _______ _______ _______ _____ _____    ______ ____
ROOT
ATOM      1  C   UNL     1      -0.479  12.491  20.415  0.00  0.00    +0.000 C 
ATOM      2  C   UNL     1       0.342  13.378  21.350  0.00  0.00    +0.000 C 
ATOM      3  S   UNL     1      -0.757  13.945  22.663  0.00  0.00    +0.000 S 
ATOM      4  C   UNL     1      -2.235  13.083  22.014  0.00  0.00    +0.000 C 
ATOM      5  N   UNL     1      -1.921  12.778  20.617  0.00  0.00    +0.000 N 
ATOM      6  C   UNL     1      -2.927  12.256  19.784  0.00  0.00    +0.000 C 
ATOM      7  O   UNL     1      -4.104  12.231  20.165  0.00  0.00    +0.000 OA
ENDROOT
BRANCH   4   8
ATOM      8  C   UNL     1      -3.482  13.879  22.311  0.00  0.00    +0.000 A 
ATOM      9  C   UNL     1      -3.760  15.144  21.779  0.00  0.00    +0.000 A 
ATOM     10  C   UNL     1      -4.972  15.767  22.076  0.00  0.00    +0.000 A 
ATOM     11  C   UNL     1      -5.866  15.118  22.911  0.00  0.00    +0.000 A 
ATOM     12  N   UNL     1      -5.624  13.919  23.475  0.00  0.00    +0.000 NA
ATOM     13  C   UNL     1      -4.449  13.329  23.157  0.00  0.00    +0.000 A 
ENDBRANCH   4   8
BRANCH   6  14
ATOM     14  C   UNL     1      -2.596  11.771  18.344  0.00  0.00    +0.000 C 
ATOM     15  F   UNL     1      -2.206  10.469  18.252  0.00  0.00    +0.000 F 
ATOM     16  F   UNL     1      -3.659  11.891  17.502  0.00  0.00    +0.000 F 
ATOM     17  F   UNL     1      -1.584  12.497  17.791  0.00  0.00    +0.000 F 
ENDBRANCH   6  14
BRANCH   1  19
ATOM     18  O   UNL     1      -0.590  10.421  21.665  0.00  0.00    +0.000 OA
ATOM     19  C   UNL     1      -0.142  10.989  20.669  0.00  0.00    +0.000 C 
BRANCH  19  20
ATOM     20  C   UNL     1       0.667  10.263  19.677  0.00  0.00    +0.000 A 
ATOM     21  C   UNL     1       1.029  10.727  18.423  0.00  0.00    +0.000 A 
ATOM     22  N   UNL     1       1.787   9.767  17.802  0.00  0.00    +0.000 N 
ATOM     23  C   UNL     1       1.927   8.673  18.613  0.00  0.00    +0.000 A 
ATOM     24  C   UNL     1       2.603   7.466  18.378  0.00  0.00    +0.000 A 
ATOM     25  C   UNL     1       2.572   6.500  19.385  0.00  0.00    +0.000 A 
ATOM     26  C   UNL     1       1.892   6.731  20.577  0.00  0.00    +0.000 A 
ATOM     27  C   UNL     1       1.221   7.944  20.796  0.00  0.00    +0.000 A 
ATOM     28  C   UNL     1       1.233   8.944  19.797  0.00  0.00    +0.000 A 
ATOM     29  H   UNL     1       2.183   9.846  16.875  0.00  0.00    +0.000 HD
ENDBRANCH  19  20
ENDBRANCH   1  19
TORSDOF 4
ENDMDL
MODEL 6
REMARK VINA RESULT:      -6.2      2.623      3.193
REMARK  Name = 
REMARK  4 active torsions:
REMARK  status: ('A' for Active; 'I' for Inactive)
REMARK    1  A    between atoms: C_2  and  C_3
REMARK    2  A    between atoms: C_2  and  C_12
REMARK    3  A    between atoms: C_15  and  C_16
REMARK    4  A    between atoms: C_23  and  C_25
REMARK                            x       y       z     vdW  Elec       q    Type
REMARK                         _______ _______ _______ _____ _____    ______ ____
ROOT
ATOM      1  C   UNL     1      -0.145  12.117  19.983  0.00  0.00    +0.000 C 
ATOM      2  C   UNL     1       0.771  12.954  20.874  0.00  0.00    +0.000 C 
ATOM      3  S   UNL     1      -0.254  13.696  22.161  0.00  0.00    +0.000 S 
ATOM      4  C   UNL     1      -1.818  12.966  21.556  0.00  0.00    +0.000 C 
ATOM      5  N   UNL     1      -1.547  12.564  20.174  0.00  0.00    +0.000 N 
ATOM      6  C   UNL     1      -2.609  12.114  19.368  0.00  0.00    +0.000 C 
ATOM      7  O   UNL     1      -3.779  12.231  19.752  0.00  0.00    +0.000 OA
ENDROOT
BRANCH   4   8
ATOM      8  C   UNL     1      -2.972  13.903  21.816  0.00  0.00    +0.000 A 
ATOM      9  C   UNL     1      -4.070  13.601  22.631  0.00  0.00    +0.000 A 
ATOM     10  C   UNL     1      -5.055  14.564  22.849  0.00  0.00    +0.000 A 
ATOM     11  C   UNL     1      -4.924  15.798  22.234  0.00  0.00    +0.000 A 
ATOM     12  N   UNL     1      -3.906  16.119  21.414  0.00  0.00    +0.000 NA
ATOM     13  C   UNL     1      -2.956  15.173  21.232  0.00  0.00    +0.000 A 
ENDBRANCH   4   8
BRANCH   6  14
ATOM     14  C   UNL     1      -2.340  11.529  17.952  0.00  0.00    +0.000 C 
ATOM     15  F   UNL     1      -1.985  10.214  17.932  0.00  0.00    +0.000 F 
ATOM     16  F   UNL     1      -3.429  11.623  17.140  0.00  0.00    +0.000 F 
ATOM     17  F   UNL     1      -1.330  12.191  17.320  0.00  0.00    +0.000 F 
ENDBRANCH   6  14
BRANCH   1  19
ATOM     18  O   UNL     1      -0.582  10.101  21.251  0.00  0.00    +0.000 OA
ATOM     19  C   UNL     1       0.032  10.602  20.308  0.00  0.00    +0.000 C 
BRANCH  19  20
ATOM     20  C   UNL     1       0.896   9.784  19.442  0.00  0.00    +0.000 A 
ATOM     21  C   UNL     1       1.373  10.144  18.192  0.00  0.00    +0.000 A 
ATOM     22  N   UNL     1       2.149   9.123  17.707  0.00  0.00    +0.000 N 
ATOM     23  C   UNL     1       2.189   8.089  18.603  0.00  0.00    +0.000 A 
ATOM     24  C   UNL     1       2.845   6.851  18.512  0.00  0.00    +0.000 A 
ATOM     25  C   UNL     1       2.703   5.963  19.580  0.00  0.00    +0.000 A 
ATOM     26  C   UNL     1       1.935   6.300  20.692  0.00  0.00    +0.000 A 
ATOM     27  C   UNL     1       1.286   7.541  20.767  0.00  0.00    +0.000 A 
ATOM     28  C   UNL     1       1.410   8.464  19.702  0.00  0.00    +0.000 A 
ATOM     29  H   UNL     1       2.621   9.123  16.813  0.00  0.00    +0.000 HD
ENDBRANCH  19  20
ENDBRANCH   1  19
TORSDOF 4
ENDMDL
MODEL 7
REMARK VINA RESULT:      -6.1      3.958      6.067
REMARK  Name = 
REMARK  4 active torsions:
REMARK  status: ('A' for Active; 'I' for Inactive)
REMARK    1  A    between atoms: C_2  and  C_3
REMARK    2  A    between atoms: C_2  and  C_12
REMARK    3  A    between atoms: C_15  and  C_16
REMARK    4  A    between atoms: C_23  and  C_25
REMARK                            x       y       z     vdW  Elec       q    Type
REMARK                         _______ _______ _______ _____ _____    ______ ____
ROOT
ATOM      1  C   UNL     1       3.022   6.277  18.065  0.00  0.00    +0.000 C 
ATOM      2  C   UNL     1       3.122   7.484  17.133  0.00  0.00    +0.000 C 
ATOM      3  S   UNL     1       2.710   8.951  18.100  0.00  0.00    +0.000 S 
ATOM      4  C   UNL     1       2.397   8.034  19.651  0.00  0.00    +0.000 C 
ATOM      5  N   UNL     1       2.197   6.641  19.244  0.00  0.00    +0.000 N 
ATOM      6  C   UNL     1       1.770   5.700  20.197  0.00  0.00    +0.000 C 
ATOM      7  O   UNL     1       1.387   6.070  21.314  0.00  0.00    +0.000 OA
ENDROOT
BRANCH   4   8
ATOM      8  C   UNL     1       1.312   8.709  20.453  0.00  0.00    +0.000 A 
ATOM      9  C   UNL     1       1.277   8.763  21.852  0.00  0.00    +0.000 A 
ATOM     10  C   UNL     1       0.254   9.464  22.490  0.00  0.00    +0.000 A 
ATOM     11  C   UNL     1      -0.715  10.078  21.715  0.00  0.00    +0.000 A 
ATOM     12  N   UNL     1      -0.742  10.020  20.370  0.00  0.00    +0.000 NA
ATOM     13  C   UNL     1       0.270   9.348  19.775  0.00  0.00    +0.000 A 
ENDBRANCH   4   8
BRANCH   6  14
ATOM     14  C   UNL     1       1.698   4.187  19.845  0.00  0.00    +0.000 C 
ATOM     15  F   UNL     1       2.803   3.466  20.184  0.00  0.00    +0.000 F 
ATOM     16  F   UNL     1       0.656   3.563  20.459  0.00  0.00    +0.000 F 
ATOM     17  F   UNL     1       1.530   3.991  18.507  0.00  0.00    +0.000 F 
ENDBRANCH   6  14
BRANCH   1  19
ATOM     18  O   UNL     1       4.640   5.342  19.604  0.00  0.00    +0.000 OA
ATOM     19  C   UNL     1       4.449   5.801  18.477  0.00  0.00    +0.000 C 
BRANCH  19  20
ATOM     20  C   UNL     1       5.534   5.862  17.485  0.00  0.00    +0.000 A 
ATOM     21  C   UNL     1       6.667   6.655  17.562  0.00  0.00    +0.000 A 
ATOM     22  N   UNL     1       7.440   6.424  16.453  0.00  0.00    +0.000 N 
ATOM     23  C   UNL     1       6.840   5.503  15.637  0.00  0.00    +0.000 A 
ATOM     24  C   UNL     1       7.268   4.987  14.404  0.00  0.00    +0.000 A 
ATOM     25  C   UNL     1       6.441   4.057  13.769  0.00  0.00    +0.000 A 
ATOM     26  C   UNL     1       5.237   3.662  14.345  0.00  0.00    +0.000 A 
ATOM     27  C   UNL     1       4.824   4.187  15.578  0.00  0.00    +0.000 A 
ATOM     28  C   UNL     1       5.638   5.130  16.247  0.00  0.00    +0.000 A 
ATOM     29  H   UNL     1       8.325   6.872  16.255  0.00  0.00    +0.000 HD
ENDBRANCH  19  20
ENDBRANCH   1  19
TORSDOF 4
ENDMDL
MODEL 8
REMARK VINA RESULT:      -6.1      3.191      3.955
REMARK  Name = 
REMARK  4 active torsions:
REMARK  status: ('A' for Active; 'I' for Inactive)
REMARK    1  A    between atoms: C_2  and  C_3
REMARK    2  A    between atoms: C_2  and  C_12
REMARK    3  A    between atoms: C_15  and  C_16
REMARK    4  A    between atoms: C_23  and  C_25
REMARK                            x       y       z     vdW  Elec       q    Type
REMARK                         _______ _______ _______ _____ _____    ______ ____
ROOT
ATOM      1  C   UNL     1      -1.588  12.609  19.459  0.00  0.00    +0.000 C 
ATOM      2  C   UNL     1      -1.249  13.898  20.208  0.00  0.00    +0.000 C 
ATOM      3  S   UNL     1      -2.681  14.334  21.214  0.00  0.00    +0.000 S 
ATOM      4  C   UNL     1      -3.694  12.911  20.670  0.00  0.00    +0.000 C 
ATOM      5  N   UNL     1      -3.062  12.436  19.438  0.00  0.00    +0.000 N 
ATOM      6  C   UNL     1      -3.702  11.443  18.675  0.00  0.00    +0.000 C 
ATOM      7  O   UNL     1      -4.866  11.109  18.932  0.00  0.00    +0.000 OA
ENDROOT
BRANCH   4   8
ATOM      8  C   UNL     1      -5.154  13.290  20.626  0.00  0.00    +0.000 A 
ATOM      9  C   UNL     1      -6.168  12.619  21.320  0.00  0.00    +0.000 A 
ATOM     10  C   UNL     1      -7.480  13.090  21.253  0.00  0.00    +0.000 A 
ATOM     11  C   UNL     1      -7.745  14.209  20.481  0.00  0.00    +0.000 A 
ATOM     12  N   UNL     1      -6.809  14.862  19.768  0.00  0.00    +0.000 NA
ATOM     13  C   UNL     1      -5.542  14.396  19.863  0.00  0.00    +0.000 A 
ENDBRANCH   4   8
BRANCH   6  14
ATOM     14  C   UNL     1      -2.993  10.799  17.450  0.00  0.00    +0.000 C 
ATOM     15  F   UNL     1      -2.112  11.612  16.804  0.00  0.00    +0.000 F 
ATOM     16  F   UNL     1      -2.280   9.690  17.791  0.00  0.00    +0.000 F 
ATOM     17  F   UNL     1      -3.889  10.403  16.502  0.00  0.00    +0.000 F 
ENDBRANCH   6  14
BRANCH   1  19
ATOM     18  O   UNL     1      -1.173  11.058  21.271  0.00  0.00    +0.000 OA
ATOM     19  C   UNL     1      -0.868  11.398  20.127  0.00  0.00    +0.000 C 
BRANCH  19  20
ATOM     20  C   UNL     1       0.132  10.648  19.351  0.00  0.00    +0.000 A 
ATOM     21  C   UNL     1       0.653  11.015  18.121  0.00  0.00    +0.000 A 
ATOM     22  N   UNL     1       1.561  10.065  17.727  0.00  0.00    +0.000 N 
ATOM     23  C   UNL     1       1.644   9.069  18.664  0.00  0.00    +0.000 A 
ATOM     24  C   UNL     1       2.426   7.905  18.664  0.00  0.00    +0.000 A 
ATOM     25  C   UNL     1       2.303   7.041  19.754  0.00  0.00    +0.000 A 
ATOM     26  C   UNL     1       1.430   7.331  20.800  0.00  0.00    +0.000 A 
ATOM     27  C   UNL     1       0.656   8.500  20.784  0.00  0.00    +0.000 A 
ATOM     28  C   UNL     1       0.758   9.396  19.695  0.00  0.00    +0.000 A 
ATOM     29  H   UNL     1       2.090  10.085  16.866  0.00  0.00    +0.000 HD
ENDBRANCH  19  20
ENDBRANCH   1  19
TORSDOF 4
ENDMDL
MODEL 9
REMARK VINA RESULT:      -6.1      2.527      3.102
REMARK  Name = 
REMARK  4 active torsions:
REMARK  status: ('A' for Active; 'I' for Inactive)
REMARK    1  A    between atoms: C_2  and  C_3
REMARK    2  A    between atoms: C_2  and  C_12
REMARK    3  A    between atoms: C_15  and  C_16
REMARK    4  A    between atoms: C_23  and  C_25
REMARK                            x       y       z     vdW  Elec       q    Type
REMARK                         _______ _______ _______ _____ _____    ______ ____
ROOT
ATOM      1  C   UNL     1       0.210  11.897  19.453  0.00  0.00    +0.000 C 
ATOM      2  C   UNL     1       1.371  12.742  19.976  0.00  0.00    +0.000 C 
ATOM      3  S   UNL     1       0.740  13.747  21.335  0.00  0.00    +0.000 S 
ATOM      4  C   UNL     1      -0.972  13.113  21.217  0.00  0.00    +0.000 C 
ATOM      5  N   UNL     1      -1.070  12.510  19.887  0.00  0.00    +0.000 N 
ATOM      6  C   UNL     1      -2.322  12.073  19.420  0.00  0.00    +0.000 C 
ATOM      7  O   UNL     1      -3.355  12.361  20.037  0.00  0.00    +0.000 OA
ENDROOT
BRANCH   4   8
ATOM      8  C   UNL     1      -1.959  14.192  21.589  0.00  0.00    +0.000 A 
ATOM      9  C   UNL     1      -2.144  15.379  20.870  0.00  0.00    +0.000 A 
ATOM     10  C   UNL     1      -3.127  16.284  21.272  0.00  0.00    +0.000 A 
ATOM     11  C   UNL     1      -3.886  15.987  22.391  0.00  0.00    +0.000 A 
ATOM     12  N   UNL     1      -3.718  14.876  23.134  0.00  0.00    +0.000 NA
ATOM     13  C   UNL     1      -2.770  14.007  22.713  0.00  0.00    +0.000 A 
ENDBRANCH   4   8
BRANCH   6  14
ATOM     14  C   UNL     1      -2.444  11.285  18.085  0.00  0.00    +0.000 C 
ATOM     15  F   UNL     1      -1.654  11.743  17.074  0.00  0.00    +0.000 F 
ATOM     16  F   UNL     1      -2.120   9.970  18.230  0.00  0.00    +0.000 F 
ATOM     17  F   UNL     1      -3.717  11.316  17.598  0.00  0.00    +0.000 F 
ENDBRANCH   6  14
BRANCH   1  19
ATOM     18  O   UNL     1      -0.274  10.054  20.946  0.00  0.00    +0.000 OA
ATOM     19  C   UNL     1       0.352  10.426  19.953  0.00  0.00    +0.000 C 
BRANCH  19  20
ATOM     20  C   UNL     1       1.196   9.493  19.190  0.00  0.00    +0.000 A 
ATOM     21  C   UNL     1       1.749   9.728  17.942  0.00  0.00    +0.000 A 
ATOM     22  N   UNL     1       2.475   8.625  17.569  0.00  0.00    +0.000 N 
ATOM     23  C   UNL     1       2.407   7.660  18.538  0.00  0.00    +0.000 A 
ATOM     24  C   UNL     1       2.981   6.380  18.568  0.00  0.00    +0.000 A 
ATOM     25  C   UNL     1       2.734   5.586  19.689  0.00  0.00    +0.000 A 
ATOM     26  C   UNL     1       1.943   6.052  20.736  0.00  0.00    +0.000 A 
ATOM     27  C   UNL     1       1.376   7.335  20.690  0.00  0.00    +0.000 A 
ATOM     28  C   UNL     1       1.608   8.165  19.569  0.00  0.00    +0.000 A 
ATOM     29  H   UNL     1       2.984   8.528  16.701  0.00  0.00    +0.000 HD
ENDBRANCH  19  20
ENDBRANCH   1  19
TORSDOF 4
ENDMDL
