MODEL 1
REMARK VINA RESULT:      -9.1      0.000      0.000
REMARK  Name = 
REMARK  8 active torsions:
REMARK  status: ('A' for Active; 'I' for Inactive)
REMARK    1  A    between atoms: C_1  and  O_2
REMARK    2  A    between atoms: O_2  and  C_3
REMARK    3  A    between atoms: C_6  and  N_7
REMARK    4  A    between atoms: C_8  and  C_10
REMARK    5  A    between atoms: C_12  and  C_13
REMARK    6  A    between atoms: N_18  and  S_19
REMARK    7  A    between atoms: S_19  and  C_22
REMARK    8  A    between atoms: C_30  and  C_31
REMARK                            x       y       z     vdW  Elec       q    Type
REMARK                         _______ _______ _______ _____ _____    ______ ____
ROOT
ATOM      1  C   UNL     1       8.176   8.146  18.335  0.00  0.00    +0.000 A 
ATOM      2  C   UNL     1       7.338   7.571  17.349  0.00  0.00    +0.000 A 
ATOM      3  C   UNL     1       7.338   6.234  17.636  0.00  0.00    +0.000 A 
ATOM      4  O   UNL     1       8.065   6.019  18.769  0.00  0.00    +0.000 OA
ATOM      5  N   UNL     1       8.574   7.228  19.232  0.00  0.00    +0.000 NA
ENDROOT
BRANCH   3   6
ATOM      6  C   UNL     1       6.765   5.051  16.933  0.00  0.00    +0.000 C 
ATOM      7  C   UNL     1       7.157   5.157  15.448  0.00  0.00    +0.000 C 
ATOM      8  C   UNL     1       6.479   4.113  14.581  0.00  0.00    +0.000 C 
ATOM      9  C   UNL     1       4.977   4.203  14.781  0.00  0.00    +0.000 C 
ATOM     10  C   UNL     1       4.620   3.976  16.243  0.00  0.00    +0.000 C 
ATOM     11  N   UNL     1       5.270   4.990  17.138  0.00  0.00    +0.000 NA
BRANCH  11  12
ATOM     12  S   UNL     1       4.842   4.717  18.809  0.00  0.00    +0.000 S 
ATOM     13  O   UNL     1       5.856   3.843  19.359  0.00  0.00    +0.000 OA
ATOM     14  O   UNL     1       4.514   5.961  19.464  0.00  0.00    +0.000 OA
BRANCH  12  15
ATOM     15  C   UNL     1       3.315   3.819  18.713  0.00  0.00    +0.000 A 
ATOM     16  C   UNL     1       3.274   2.474  19.087  0.00  0.00    +0.000 A 
ATOM     17  C   UNL     1       2.058   1.793  19.046  0.00  0.00    +0.000 A 
ATOM     18  C   UNL     1       0.898   2.457  18.639  0.00  0.00    +0.000 A 
ATOM     19  C   UNL     1       0.946   3.807  18.283  0.00  0.00    +0.000 A 
ATOM     20  C   UNL     1       2.156   4.495  18.322  0.00  0.00    +0.000 A 
ENDBRANCH  12  15
ENDBRANCH  11  12
ENDBRANCH   3   6
BRANCH   1  22
ATOM     21  N   UNL     1       9.491   9.868  19.365  0.00  0.00    +0.000 N 
ATOM     22  C   UNL     1       8.575   9.548  18.372  0.00  0.00    +0.000 C 
ATOM     23  O   UNL     1       8.067  10.341  17.584  0.00  0.00    +0.000 OA
ATOM     24  H   UNL     1       9.699   9.123  20.020  0.00  0.00    +0.000 HD
BRANCH  21  28
ATOM     25  C   UNL     1      11.158  13.722  19.931  0.00  0.00    +0.000 A 
ATOM     26  C   UNL     1      11.527  12.949  18.841  0.00  0.00    +0.000 A 
ATOM     27  C   UNL     1      10.985  11.675  18.680  0.00  0.00    +0.000 A 
ATOM     28  C   UNL     1      10.046  11.150  19.578  0.00  0.00    +0.000 A 
ATOM     29  C   UNL     1       9.680  11.921  20.697  0.00  0.00    +0.000 A 
ATOM     30  C   UNL     1       8.685  11.483  21.736  0.00  0.00    +0.000 C 
ATOM     31  C   UNL     1      10.266  13.193  20.865  0.00  0.00    +0.000 A 
BRANCH  25  33
ATOM     32  C   UNL     1      11.794  15.808  19.038  0.00  0.00    +0.000 C 
ATOM     33  O   UNL     1      11.622  14.982  20.188  0.00  0.00    +0.000 OA
ENDBRANCH  25  33
ENDBRANCH  21  28
ENDBRANCH   1  22
TORSDOF 6
ENDMDL
MODEL 2
REMARK VINA RESULT:      -8.6      0.577      1.299
REMARK  Name = 
REMARK  8 active torsions:
REMARK  status: ('A' for Active; 'I' for Inactive)
REMARK    1  A    between atoms: C_1  and  O_2
REMARK    2  A    between atoms: O_2  and  C_3
REMARK    3  A    between atoms: C_6  and  N_7
REMARK    4  A    between atoms: C_8  and  C_10
REMARK    5  A    between atoms: C_12  and  C_13
REMARK    6  A    between atoms: N_18  and  S_19
REMARK    7  A    between atoms: S_19  and  C_22
REMARK    8  A    between atoms: C_30  and  C_31
REMARK                            x       y       z     vdW  Elec       q    Type
REMARK                         _______ _______ _______ _____ _____    ______ ____
ROOT
ATOM      1  C   UNL     1       8.211   8.416  18.332  0.00  0.00    +0.000 A 
ATOM      2  C   UNL     1       7.396   7.832  17.334  0.00  0.00    +0.000 A 
ATOM      3  C   UNL     1       7.457   6.488  17.584  0.00  0.00    +0.000 A 
ATOM      4  O   UNL     1       8.196   6.277  18.710  0.00  0.00    +0.000 OA
ATOM      5  N   UNL     1       8.652   7.494  19.204  0.00  0.00    +0.000 NA
ENDROOT
BRANCH   3   6
ATOM      6  C   UNL     1       6.935   5.300  16.851  0.00  0.00    +0.000 C 
ATOM      7  C   UNL     1       7.326   5.459  15.370  0.00  0.00    +0.000 C 
ATOM      8  C   UNL     1       6.694   4.409  14.476  0.00  0.00    +0.000 C 
ATOM      9  C   UNL     1       5.189   4.432  14.672  0.00  0.00    +0.000 C 
ATOM     10  C   UNL     1       4.838   4.154  16.127  0.00  0.00    +0.000 C 
ATOM     11  N   UNL     1       5.444   5.173  17.049  0.00  0.00    +0.000 NA
BRANCH  11  12
ATOM     12  S   UNL     1       5.022   4.842  18.711  0.00  0.00    +0.000 S 
ATOM     13  O   UNL     1       6.063   3.985  19.239  0.00  0.00    +0.000 OA
ATOM     14  O   UNL     1       4.656   6.057  19.399  0.00  0.00    +0.000 OA
BRANCH  12  15
ATOM     15  C   UNL     1       3.525   3.900  18.589  0.00  0.00    +0.000 A 
ATOM     16  C   UNL     1       3.551   2.519  18.797  0.00  0.00    +0.000 A 
ATOM     17  C   UNL     1       2.359   1.798  18.738  0.00  0.00    +0.000 A 
ATOM     18  C   UNL     1       1.155   2.458  18.479  0.00  0.00    +0.000 A 
ATOM     19  C   UNL     1       1.135   3.842  18.290  0.00  0.00    +0.000 A 
ATOM     20  C   UNL     1       2.322   4.570  18.347  0.00  0.00    +0.000 A 
ENDBRANCH  12  15
ENDBRANCH  11  12
ENDBRANCH   3   6
BRANCH   1  22
ATOM     21  N   UNL     1       9.335  10.191  19.492  0.00  0.00    +0.000 N 
ATOM     22  C   UNL     1       8.547   9.834  18.406  0.00  0.00    +0.000 C 
ATOM     23  O   UNL     1       8.097  10.606  17.564  0.00  0.00    +0.000 OA
ATOM     24  H   UNL     1       9.499   9.455  20.170  0.00  0.00    +0.000 HD
BRANCH  21  28
ATOM     25  C   UNL     1      10.744  14.090  20.366  0.00  0.00    +0.000 A 
ATOM     26  C   UNL     1       9.634  13.580  21.021  0.00  0.00    +0.000 A 
ATOM     27  C   UNL     1       9.171  12.303  20.708  0.00  0.00    +0.000 A 
ATOM     28  C   UNL     1       9.811  11.494  19.759  0.00  0.00    +0.000 A 
ATOM     29  C   UNL     1      10.928  12.011  19.077  0.00  0.00    +0.000 A 
ATOM     30  C   UNL     1      11.710  11.254  18.041  0.00  0.00    +0.000 C 
ATOM     31  C   UNL     1      11.361  13.319  19.379  0.00  0.00    +0.000 A 
BRANCH  25  33
ATOM     32  C   UNL     1      10.431  16.423  20.288  0.00  0.00    +0.000 C 
ATOM     33  O   UNL     1      11.286  15.324  20.593  0.00  0.00    +0.000 OA
ENDBRANCH  25  33
ENDBRANCH  21  28
ENDBRANCH   1  22
TORSDOF 6
ENDMDL
MODEL 3
REMARK VINA RESULT:      -8.5      1.669      2.207
REMARK  Name = 
REMARK  8 active torsions:
REMARK  status: ('A' for Active; 'I' for Inactive)
REMARK    1  A    between atoms: C_1  and  O_2
REMARK    2  A    between atoms: O_2  and  C_3
REMARK    3  A    between atoms: C_6  and  N_7
REMARK    4  A    between atoms: C_8  and  C_10
REMARK    5  A    between atoms: C_12  and  C_13
REMARK    6  A    between atoms: N_18  and  S_19
REMARK    7  A    between atoms: S_19  and  C_22
REMARK    8  A    between atoms: C_30  and  C_31
REMARK                            x       y       z     vdW  Elec       q    Type
REMARK                         _______ _______ _______ _____ _____    ______ ____
ROOT
ATOM      1  C   UNL     1       8.150   8.188  18.306  0.00  0.00    +0.000 A 
ATOM      2  C   UNL     1       7.257   7.630  17.361  0.00  0.00    +0.000 A 
ATOM      3  C   UNL     1       7.272   6.287  17.625  0.00  0.00    +0.000 A 
ATOM      4  O   UNL     1       8.063   6.055  18.711  0.00  0.00    +0.000 OA
ATOM      5  N   UNL     1       8.598   7.256  19.163  0.00  0.00    +0.000 NA
ENDROOT
BRANCH   3   6
ATOM      6  C   UNL     1       6.659   5.116  16.936  0.00  0.00    +0.000 C 
ATOM      7  C   UNL     1       7.230   5.065  15.507  0.00  0.00    +0.000 C 
ATOM      8  C   UNL     1       6.548   4.029  14.635  0.00  0.00    +0.000 C 
ATOM      9  C   UNL     1       5.051   4.285  14.640  0.00  0.00    +0.000 C 
ATOM     10  C   UNL     1       4.504   4.211  16.059  0.00  0.00    +0.000 C 
ATOM     11  N   UNL     1       5.153   5.222  16.958  0.00  0.00    +0.000 NA
BRANCH  11  12
ATOM     12  S   UNL     1       4.506   5.127  18.577  0.00  0.00    +0.000 S 
ATOM     13  O   UNL     1       3.690   3.933  18.628  0.00  0.00    +0.000 OA
ATOM     14  O   UNL     1       5.543   5.347  19.558  0.00  0.00    +0.000 OA
BRANCH  12  15
ATOM     15  C   UNL     1       3.442   6.541  18.692  0.00  0.00    +0.000 A 
ATOM     16  C   UNL     1       3.369   7.446  17.631  0.00  0.00    +0.000 A 
ATOM     17  C   UNL     1       2.497   8.531  17.718  0.00  0.00    +0.000 A 
ATOM     18  C   UNL     1       1.705   8.700  18.856  0.00  0.00    +0.000 A 
ATOM     19  C   UNL     1       1.770   7.780  19.905  0.00  0.00    +0.000 A 
ATOM     20  C   UNL     1       2.639   6.694  19.826  0.00  0.00    +0.000 A 
ENDBRANCH  12  15
ENDBRANCH  11  12
ENDBRANCH   3   6
BRANCH   1  22
ATOM     21  N   UNL     1       9.550   9.887  19.260  0.00  0.00    +0.000 N 
ATOM     22  C   UNL     1       8.552   9.590  18.343  0.00  0.00    +0.000 C 
ATOM     23  O   UNL     1       7.977  10.402  17.623  0.00  0.00    +0.000 OA
ATOM     24  H   UNL     1       9.814   9.126  19.876  0.00  0.00    +0.000 HD
BRANCH  21  28
ATOM     25  C   UNL     1      11.268  13.726  19.775  0.00  0.00    +0.000 A 
ATOM     26  C   UNL     1      11.618  12.937  18.689  0.00  0.00    +0.000 A 
ATOM     27  C   UNL     1      11.059  11.669  18.545  0.00  0.00    +0.000 A 
ATOM     28  C   UNL     1      10.123  11.163  19.457  0.00  0.00    +0.000 A 
ATOM     29  C   UNL     1       9.775  11.949  20.571  0.00  0.00    +0.000 A 
ATOM     30  C   UNL     1       8.785  11.533  21.623  0.00  0.00    +0.000 C 
ATOM     31  C   UNL     1      10.379  13.216  20.722  0.00  0.00    +0.000 A 
BRANCH  25  33
ATOM     32  C   UNL     1      11.103  16.025  19.288  0.00  0.00    +0.000 C 
ATOM     33  O   UNL     1      11.749  14.982  20.016  0.00  0.00    +0.000 OA
ENDBRANCH  25  33
ENDBRANCH  21  28
ENDBRANCH   1  22
TORSDOF 6
ENDMDL
MODEL 4
REMARK VINA RESULT:      -8.2      1.649      2.431
REMARK  Name = 
REMARK  8 active torsions:
REMARK  status: ('A' for Active; 'I' for Inactive)
REMARK    1  A    between atoms: C_1  and  O_2
REMARK    2  A    between atoms: O_2  and  C_3
REMARK    3  A    between atoms: C_6  and  N_7
REMARK    4  A    between atoms: C_8  and  C_10
REMARK    5  A    between atoms: C_12  and  C_13
REMARK    6  A    between atoms: N_18  and  S_19
REMARK    7  A    between atoms: S_19  and  C_22
REMARK    8  A    between atoms: C_30  and  C_31
REMARK                            x       y       z     vdW  Elec       q    Type
REMARK                         _______ _______ _______ _____ _____    ______ ____
ROOT
ATOM      1  C   UNL     1       8.078   8.055  18.269  0.00  0.00    +0.000 A 
ATOM      2  C   UNL     1       7.279   7.517  17.233  0.00  0.00    +0.000 A 
ATOM      3  C   UNL     1       7.362   6.162  17.404  0.00  0.00    +0.000 A 
ATOM      4  O   UNL     1       8.099   5.897  18.519  0.00  0.00    +0.000 OA
ATOM      5  N   UNL     1       8.531   7.090  19.087  0.00  0.00    +0.000 NA
ENDROOT
BRANCH   3   6
ATOM      6  C   UNL     1       6.864   5.011  16.599  0.00  0.00    +0.000 C 
ATOM      7  C   UNL     1       7.416   5.169  15.170  0.00  0.00    +0.000 C 
ATOM      8  C   UNL     1       6.833   4.163  14.196  0.00  0.00    +0.000 C 
ATOM      9  C   UNL     1       5.318   4.257  14.234  0.00  0.00    +0.000 C 
ATOM     10  C   UNL     1       4.803   3.979  15.639  0.00  0.00    +0.000 C 
ATOM     11  N   UNL     1       5.356   4.954  16.637  0.00  0.00    +0.000 NA
BRANCH  11  12
ATOM     12  S   UNL     1       4.746   4.623  18.240  0.00  0.00    +0.000 S 
ATOM     13  O   UNL     1       3.916   3.443  18.131  0.00  0.00    +0.000 OA
ATOM     14  O   UNL     1       5.809   4.683  19.215  0.00  0.00    +0.000 OA
BRANCH  12  15
ATOM     15  C   UNL     1       3.704   6.015  18.592  0.00  0.00    +0.000 A 
ATOM     16  C   UNL     1       3.603   7.060  17.672  0.00  0.00    +0.000 A 
ATOM     17  C   UNL     1       2.748   8.127  17.943  0.00  0.00    +0.000 A 
ATOM     18  C   UNL     1       2.000   8.140  19.123  0.00  0.00    +0.000 A 
ATOM     19  C   UNL     1       2.094   7.082  20.030  0.00  0.00    +0.000 A 
ATOM     20  C   UNL     1       2.946   6.012  19.766  0.00  0.00    +0.000 A 
ENDBRANCH  12  15
ENDBRANCH  11  12
ENDBRANCH   3   6
BRANCH   1  22
ATOM     21  N   UNL     1       9.222   9.769  19.498  0.00  0.00    +0.000 N 
ATOM     22  C   UNL     1       8.390   9.471  18.428  0.00  0.00    +0.000 C 
ATOM     23  O   UNL     1       7.884  10.290  17.665  0.00  0.00    +0.000 OA
ATOM     24  H   UNL     1       9.433   8.992  20.114  0.00  0.00    +0.000 HD
BRANCH  21  28
ATOM     25  C   UNL     1      10.606  13.624  20.583  0.00  0.00    +0.000 A 
ATOM     26  C   UNL     1       9.667  12.968  21.364  0.00  0.00    +0.000 A 
ATOM     27  C   UNL     1       9.207  11.709  20.984  0.00  0.00    +0.000 A 
ATOM     28  C   UNL     1       9.685  11.061  19.836  0.00  0.00    +0.000 A 
ATOM     29  C   UNL     1      10.623  11.728  19.027  0.00  0.00    +0.000 A 
ATOM     30  C   UNL     1      11.220  11.151  17.774  0.00  0.00    +0.000 C 
ATOM     31  C   UNL     1      11.051  13.018  19.407  0.00  0.00    +0.000 A 
BRANCH  25  33
ATOM     32  C   UNL     1      10.205  15.939  20.758  0.00  0.00    +0.000 C 
ATOM     33  O   UNL     1      11.128  14.857  20.860  0.00  0.00    +0.000 OA
ENDBRANCH  25  33
ENDBRANCH  21  28
ENDBRANCH   1  22
TORSDOF 6
ENDMDL
MODEL 5
REMARK VINA RESULT:      -8.0      5.511      8.127
REMARK  Name = 
REMARK  8 active torsions:
REMARK  status: ('A' for Active; 'I' for Inactive)
REMARK    1  A    between atoms: C_1  and  O_2
REMARK    2  A    between atoms: O_2  and  C_3
REMARK    3  A    between atoms: C_6  and  N_7
REMARK    4  A    between atoms: C_8  and  C_10
REMARK    5  A    between atoms: C_12  and  C_13
REMARK    6  A    between atoms: N_18  and  S_19
REMARK    7  A    between atoms: S_19  and  C_22
REMARK    8  A    between atoms: C_30  and  C_31
REMARK                            x       y       z     vdW  Elec       q    Type
REMARK                         _______ _______ _______ _____ _____    ______ ____
ROOT
ATOM      1  C   UNL     1       2.026   8.262  18.934  0.00  0.00    +0.000 A 
ATOM      2  C   UNL     1       2.673   7.124  19.470  0.00  0.00    +0.000 A 
ATOM      3  C   UNL     1       3.508   6.701  18.473  0.00  0.00    +0.000 A 
ATOM      4  O   UNL     1       3.432   7.571  17.427  0.00  0.00    +0.000 OA
ATOM      5  N   UNL     1       2.517   8.577  17.723  0.00  0.00    +0.000 NA
ENDROOT
BRANCH   3   6
ATOM      6  C   UNL     1       4.380   5.501  18.327  0.00  0.00    +0.000 C 
ATOM      7  C   UNL     1       5.827   5.996  18.142  0.00  0.00    +0.000 C 
ATOM      8  C   UNL     1       6.794   4.880  17.795  0.00  0.00    +0.000 C 
ATOM      9  C   UNL     1       6.283   4.146  16.569  0.00  0.00    +0.000 C 
ATOM     10  C   UNL     1       4.899   3.570  16.831  0.00  0.00    +0.000 C 
ATOM     11  N   UNL     1       3.908   4.642  17.179  0.00  0.00    +0.000 NA
BRANCH  11  12
ATOM     12  S   UNL     1       2.325   3.962  17.468  0.00  0.00    +0.000 S 
ATOM     13  O   UNL     1       1.376   5.043  17.315  0.00  0.00    +0.000 OA
ATOM     14  O   UNL     1       2.155   2.730  16.735  0.00  0.00    +0.000 OA
BRANCH  12  15
ATOM     15  C   UNL     1       2.373   3.491  19.177  0.00  0.00    +0.000 A 
ATOM     16  C   UNL     1       1.304   3.808  20.017  0.00  0.00    +0.000 A 
ATOM     17  C   UNL     1       1.337   3.394  21.348  0.00  0.00    +0.000 A 
ATOM     18  C   UNL     1       2.429   2.667  21.826  0.00  0.00    +0.000 A 
ATOM     19  C   UNL     1       3.487   2.339  20.975  0.00  0.00    +0.000 A 
ATOM     20  C   UNL     1       3.461   2.748  19.643  0.00  0.00    +0.000 A 
ENDBRANCH  12  15
ENDBRANCH  11  12
ENDBRANCH   3   6
BRANCH   1  22
ATOM     21  N   UNL     1       0.413  10.036  18.848  0.00  0.00    +0.000 N 
ATOM     22  C   UNL     1       0.952   8.996  19.593  0.00  0.00    +0.000 C 
ATOM     23  O   UNL     1       0.629   8.694  20.739  0.00  0.00    +0.000 OA
ATOM     24  H   UNL     1       0.892  10.241  17.979  0.00  0.00    +0.000 HD
BRANCH  21  28
ATOM     25  C   UNL     1      -2.731  12.581  20.110  0.00  0.00    +0.000 A 
ATOM     26  C   UNL     1      -1.532  12.545  20.806  0.00  0.00    +0.000 A 
ATOM     27  C   UNL     1      -0.515  11.688  20.389  0.00  0.00    +0.000 A 
ATOM     28  C   UNL     1      -0.652  10.867  19.262  0.00  0.00    +0.000 A 
ATOM     29  C   UNL     1      -1.872  10.884  18.561  0.00  0.00    +0.000 A 
ATOM     30  C   UNL     1      -2.154  10.059  17.336  0.00  0.00    +0.000 C 
ATOM     31  C   UNL     1      -2.905  11.730  19.018  0.00  0.00    +0.000 A 
BRANCH  25  33
ATOM     32  C   UNL     1      -5.058  12.723  20.448  0.00  0.00    +0.000 C 
ATOM     33  O   UNL     1      -3.793  13.382  20.425  0.00  0.00    +0.000 OA
ENDBRANCH  25  33
ENDBRANCH  21  28
ENDBRANCH   1  22
TORSDOF 6
ENDMDL
MODEL 6
REMARK VINA RESULT:      -8.0      5.634      7.917
REMARK  Name = 
REMARK  8 active torsions:
REMARK  status: ('A' for Active; 'I' for Inactive)
REMARK    1  A    between atoms: C_1  and  O_2
REMARK    2  A    between atoms: O_2  and  C_3
REMARK    3  A    between atoms: C_6  and  N_7
REMARK    4  A    between atoms: C_8  and  C_10
REMARK    5  A    between atoms: C_12  and  C_13
REMARK    6  A    between atoms: N_18  and  S_19
REMARK    7  A    between atoms: S_19  and  C_22
REMARK    8  A    between atoms: C_30  and  C_31
REMARK                            x       y       z     vdW  Elec       q    Type
REMARK                         _______ _______ _______ _____ _____    ______ ____
ROOT
ATOM      1  C   UNL     1       1.959   7.850  19.555  0.00  0.00    +0.000 A 
ATOM      2  C   UNL     1       2.767   6.745  19.914  0.00  0.00    +0.000 A 
ATOM      3  C   UNL     1       3.418   6.405  18.759  0.00  0.00    +0.000 A 
ATOM      4  O   UNL     1       3.086   7.295  17.781  0.00  0.00    +0.000 OA
ATOM      5  N   UNL     1       2.186   8.228  18.285  0.00  0.00    +0.000 NA
ENDROOT
BRANCH   3   6
ATOM      6  C   UNL     1       4.318   5.272  18.404  0.00  0.00    +0.000 C 
ATOM      7  C   UNL     1       5.731   5.846  18.199  0.00  0.00    +0.000 C 
ATOM      8  C   UNL     1       6.710   4.826  17.650  0.00  0.00    +0.000 C 
ATOM      9  C   UNL     1       6.145   4.237  16.370  0.00  0.00    +0.000 C 
ATOM     10  C   UNL     1       4.801   3.574  16.638  0.00  0.00    +0.000 C 
ATOM     11  N   UNL     1       3.800   4.551  17.183  0.00  0.00    +0.000 NA
BRANCH  11  12
ATOM     12  S   UNL     1       2.263   3.774  17.475  0.00  0.00    +0.000 S 
ATOM     13  O   UNL     1       1.246   4.789  17.301  0.00  0.00    +0.000 OA
ATOM     14  O   UNL     1       2.177   2.522  16.760  0.00  0.00    +0.000 OA
BRANCH  12  15
ATOM     15  C   UNL     1       2.331   3.332  19.191  0.00  0.00    +0.000 A 
ATOM     16  C   UNL     1       1.231   3.574  20.017  0.00  0.00    +0.000 A 
ATOM     17  C   UNL     1       1.284   3.183  21.355  0.00  0.00    +0.000 A 
ATOM     18  C   UNL     1       2.427   2.554  21.854  0.00  0.00    +0.000 A 
ATOM     19  C   UNL     1       3.516   2.300  21.017  0.00  0.00    +0.000 A 
ATOM     20  C   UNL     1       3.471   2.687  19.679  0.00  0.00    +0.000 A 
ENDBRANCH  12  15
ENDBRANCH  11  12
ENDBRANCH   3   6
BRANCH   1  22
ATOM     21  N   UNL     1       0.677   9.803  20.101  0.00  0.00    +0.000 N 
ATOM     22  C   UNL     1       0.990   8.493  20.435  0.00  0.00    +0.000 C 
ATOM     23  O   UNL     1       0.557   7.879  21.407  0.00  0.00    +0.000 OA
ATOM     24  H   UNL     1       1.232  10.205  19.354  0.00  0.00    +0.000 HD
BRANCH  21  28
ATOM     25  C   UNL     1      -2.062  12.257  22.206  0.00  0.00    +0.000 A 
ATOM     26  C   UNL     1      -1.194  11.421  22.892  0.00  0.00    +0.000 A 
ATOM     27  C   UNL     1      -0.313  10.606  22.185  0.00  0.00    +0.000 A 
ATOM     28  C   UNL     1      -0.253  10.618  20.785  0.00  0.00    +0.000 A 
ATOM     29  C   UNL     1      -1.143  11.449  20.080  0.00  0.00    +0.000 A 
ATOM     30  C   UNL     1      -1.186  11.563  18.581  0.00  0.00    +0.000 C 
ATOM     31  C   UNL     1      -2.055  12.241  20.810  0.00  0.00    +0.000 A 
BRANCH  25  33
ATOM     32  C   UNL     1      -3.674  12.545  23.899  0.00  0.00    +0.000 C 
ATOM     33  O   UNL     1      -2.965  13.099  22.794  0.00  0.00    +0.000 OA
ENDBRANCH  25  33
ENDBRANCH  21  28
ENDBRANCH   1  22
TORSDOF 6
ENDMDL
MODEL 7
REMARK VINA RESULT:      -7.9      5.653      7.296
REMARK  Name = 
REMARK  8 active torsions:
REMARK  status: ('A' for Active; 'I' for Inactive)
REMARK    1  A    between atoms: C_1  and  O_2
REMARK    2  A    between atoms: O_2  and  C_3
REMARK    3  A    between atoms: C_6  and  N_7
REMARK    4  A    between atoms: C_8  and  C_10
REMARK    5  A    between atoms: C_12  and  C_13
REMARK    6  A    between atoms: N_18  and  S_19
REMARK    7  A    between atoms: S_19  and  C_22
REMARK    8  A    between atoms: C_30  and  C_31
REMARK                            x       y       z     vdW  Elec       q    Type
REMARK                         _______ _______ _______ _____ _____    ______ ____
ROOT
ATOM      1  C   UNL     1       2.076   8.082  19.084  0.00  0.00    +0.000 A 
ATOM      2  C   UNL     1       2.894   7.422  18.136  0.00  0.00    +0.000 A 
ATOM      3  C   UNL     1       3.294   6.276  18.767  0.00  0.00    +0.000 A 
ATOM      4  O   UNL     1       2.695   6.206  19.989  0.00  0.00    +0.000 OA
ATOM      5  N   UNL     1       1.901   7.331  20.185  0.00  0.00    +0.000 NA
ENDROOT
BRANCH   3   6
ATOM      6  C   UNL     1       4.252   5.198  18.389  0.00  0.00    +0.000 C 
ATOM      7  C   UNL     1       5.632   5.852  18.186  0.00  0.00    +0.000 C 
ATOM      8  C   UNL     1       6.661   4.895  17.616  0.00  0.00    +0.000 C 
ATOM      9  C   UNL     1       6.122   4.296  16.330  0.00  0.00    +0.000 C 
ATOM     10  C   UNL     1       4.817   3.557  16.594  0.00  0.00    +0.000 C 
ATOM     11  N   UNL     1       3.767   4.469  17.159  0.00  0.00    +0.000 NA
BRANCH  11  12
ATOM     12  S   UNL     1       2.276   3.605  17.446  0.00  0.00    +0.000 S 
ATOM     13  O   UNL     1       1.202   4.550  17.229  0.00  0.00    +0.000 OA
ATOM     14  O   UNL     1       2.281   2.333  16.763  0.00  0.00    +0.000 OA
BRANCH  12  15
ATOM     15  C   UNL     1       2.341   3.212  19.174  0.00  0.00    +0.000 A 
ATOM     16  C   UNL     1       1.217   3.412  19.977  0.00  0.00    +0.000 A 
ATOM     17  C   UNL     1       1.270   3.058  21.325  0.00  0.00    +0.000 A 
ATOM     18  C   UNL     1       2.437   2.507  21.857  0.00  0.00    +0.000 A 
ATOM     19  C   UNL     1       3.553   2.294  21.043  0.00  0.00    +0.000 A 
ATOM     20  C   UNL     1       3.508   2.644  19.695  0.00  0.00    +0.000 A 
ENDBRANCH  12  15
ENDBRANCH  11  12
ENDBRANCH   3   6
BRANCH   1  22
ATOM     21  N   UNL     1       0.694   9.843  19.947  0.00  0.00    +0.000 N 
ATOM     22  C   UNL     1       1.506   9.412  18.907  0.00  0.00    +0.000 C 
ATOM     23  O   UNL     1       1.730  10.032  17.871  0.00  0.00    +0.000 OA
ATOM     24  H   UNL     1       0.499   9.150  20.661  0.00  0.00    +0.000 HD
BRANCH  21  28
ATOM     25  C   UNL     1      -1.150  13.652  20.157  0.00  0.00    +0.000 A 
ATOM     26  C   UNL     1       0.020  13.396  20.857  0.00  0.00    +0.000 A 
ATOM     27  C   UNL     1       0.603  12.133  20.793  0.00  0.00    +0.000 A 
ATOM     28  C   UNL     1       0.057  11.102  20.016  0.00  0.00    +0.000 A 
ATOM     29  C   UNL     1      -1.140  11.347  19.318  0.00  0.00    +0.000 A 
ATOM     30  C   UNL     1      -1.832  10.336  18.447  0.00  0.00    +0.000 C 
ATOM     31  C   UNL     1      -1.738  12.621  19.423  0.00  0.00    +0.000 A 
BRANCH  25  33
ATOM     32  C   UNL     1      -0.998  15.984  20.453  0.00  0.00    +0.000 C 
ATOM     33  O   UNL     1      -1.807  14.851  20.144  0.00  0.00    +0.000 OA
ENDBRANCH  25  33
ENDBRANCH  21  28
ENDBRANCH   1  22
TORSDOF 6
ENDMDL
MODEL 8
REMARK VINA RESULT:      -7.9      5.501      6.940
REMARK  Name = 
REMARK  8 active torsions:
REMARK  status: ('A' for Active; 'I' for Inactive)
REMARK    1  A    between atoms: C_1  and  O_2
REMARK    2  A    between atoms: O_2  and  C_3
REMARK    3  A    between atoms: C_6  and  N_7
REMARK    4  A    between atoms: C_8  and  C_10
REMARK    5  A    between atoms: C_12  and  C_13
REMARK    6  A    between atoms: N_18  and  S_19
REMARK    7  A    between atoms: S_19  and  C_22
REMARK    8  A    between atoms: C_30  and  C_31
REMARK                            x       y       z     vdW  Elec       q    Type
REMARK                         _______ _______ _______ _____ _____    ______ ____
ROOT
ATOM      1  C   UNL     1       1.853   8.143  18.992  0.00  0.00    +0.000 A 
ATOM      2  C   UNL     1       2.608   7.406  18.050  0.00  0.00    +0.000 A 
ATOM      3  C   UNL     1       3.177   6.397  18.778  0.00  0.00    +0.000 A 
ATOM      4  O   UNL     1       2.732   6.470  20.064  0.00  0.00    +0.000 OA
ATOM      5  N   UNL     1       1.873   7.554  20.200  0.00  0.00    +0.000 NA
ENDROOT
BRANCH   3   6
ATOM      6  C   UNL     1       4.174   5.344  18.436  0.00  0.00    +0.000 C 
ATOM      7  C   UNL     1       5.537   6.036  18.250  0.00  0.00    +0.000 C 
ATOM      8  C   UNL     1       6.606   5.103  17.714  0.00  0.00    +0.000 C 
ATOM      9  C   UNL     1       6.110   4.468  16.428  0.00  0.00    +0.000 C 
ATOM     10  C   UNL     1       4.823   3.694  16.677  0.00  0.00    +0.000 C 
ATOM     11  N   UNL     1       3.735   4.582  17.208  0.00  0.00    +0.000 NA
BRANCH  11  12
ATOM     12  S   UNL     1       2.266   3.678  17.480  0.00  0.00    +0.000 S 
ATOM     13  O   UNL     1       1.169   4.594  17.254  0.00  0.00    +0.000 OA
ATOM     14  O   UNL     1       2.312   2.408  16.795  0.00  0.00    +0.000 OA
BRANCH  12  15
ATOM     15  C   UNL     1       2.325   3.284  19.208  0.00  0.00    +0.000 A 
ATOM     16  C   UNL     1       1.213   3.526  20.016  0.00  0.00    +0.000 A 
ATOM     17  C   UNL     1       1.259   3.172  21.364  0.00  0.00    +0.000 A 
ATOM     18  C   UNL     1       2.408   2.578  21.891  0.00  0.00    +0.000 A 
ATOM     19  C   UNL     1       3.510   2.323  21.071  0.00  0.00    +0.000 A 
ATOM     20  C   UNL     1       3.472   2.672  19.723  0.00  0.00    +0.000 A 
ENDBRANCH  12  15
ENDBRANCH  11  12
ENDBRANCH   3   6
BRANCH   1  22
ATOM     21  N   UNL     1       1.227  10.345  19.709  0.00  0.00    +0.000 N 
ATOM     22  C   UNL     1       1.152   9.390  18.705  0.00  0.00    +0.000 C 
ATOM     23  O   UNL     1       0.526   9.502  17.655  0.00  0.00    +0.000 OA
ATOM     24  H   UNL     1       1.663  10.037  20.570  0.00  0.00    +0.000 HD
BRANCH  21  28
ATOM     25  C   UNL     1      -0.511  14.208  19.598  0.00  0.00    +0.000 A 
ATOM     26  C   UNL     1      -1.127  13.179  20.294  0.00  0.00    +0.000 A 
ATOM     27  C   UNL     1      -0.553  11.909  20.304  0.00  0.00    +0.000 A 
ATOM     28  C   UNL     1       0.656  11.636  19.648  0.00  0.00    +0.000 A 
ATOM     29  C   UNL     1       1.278  12.670  18.925  0.00  0.00    +0.000 A 
ATOM     30  C   UNL     1       2.574  12.519  18.179  0.00  0.00    +0.000 C 
ATOM     31  C   UNL     1       0.664  13.941  18.893  0.00  0.00    +0.000 A 
BRANCH  25  33
ATOM     32  C   UNL     1      -0.203  16.460  20.219  0.00  0.00    +0.000 C 
ATOM     33  O   UNL     1      -0.981  15.490  19.521  0.00  0.00    +0.000 OA
ENDBRANCH  25  33
ENDBRANCH  21  28
ENDBRANCH   1  22
TORSDOF 6
ENDMDL
MODEL 9
REMARK VINA RESULT:      -7.9      1.256      1.505
REMARK  Name = 
REMARK  8 active torsions:
REMARK  status: ('A' for Active; 'I' for Inactive)
REMARK    1  A    between atoms: C_1  and  O_2
REMARK    2  A    between atoms: O_2  and  C_3
REMARK    3  A    between atoms: C_6  and  N_7
REMARK    4  A    between atoms: C_8  and  C_10
REMARK    5  A    between atoms: C_12  and  C_13
REMARK    6  A    between atoms: N_18  and  S_19
REMARK    7  A    between atoms: S_19  and  C_22
REMARK    8  A    between atoms: C_30  and  C_31
REMARK                            x       y       z     vdW  Elec       q    Type
REMARK                         _______ _______ _______ _____ _____    ______ ____
ROOT
ATOM      1  C   UNL     1       8.181   8.184  18.283  0.00  0.00    +0.000 A 
ATOM      2  C   UNL     1       7.332   7.571  17.331  0.00  0.00    +0.000 A 
ATOM      3  C   UNL     1       7.377   6.239  17.638  0.00  0.00    +0.000 A 
ATOM      4  O   UNL     1       8.141   6.063  18.753  0.00  0.00    +0.000 OA
ATOM      5  N   UNL     1       8.629   7.292  19.182  0.00  0.00    +0.000 NA
ENDROOT
BRANCH   3   6
ATOM      6  C   UNL     1       6.817   5.029  16.970  0.00  0.00    +0.000 C 
ATOM      7  C   UNL     1       6.967   5.226  15.450  0.00  0.00    +0.000 C 
ATOM      8  C   UNL     1       6.266   4.150  14.643  0.00  0.00    +0.000 C 
ATOM      9  C   UNL     1       4.810   4.081  15.067  0.00  0.00    +0.000 C 
ATOM     10  C   UNL     1       4.703   3.769  16.553  0.00  0.00    +0.000 C 
ATOM     11  N   UNL     1       5.383   4.812  17.390  0.00  0.00    +0.000 NA
BRANCH  11  12
ATOM     12  S   UNL     1       5.241   4.440  19.091  0.00  0.00    +0.000 S 
ATOM     13  O   UNL     1       5.073   3.006  19.188  0.00  0.00    +0.000 OA
ATOM     14  O   UNL     1       6.271   5.109  19.850  0.00  0.00    +0.000 OA
BRANCH  12  15
ATOM     15  C   UNL     1       3.722   5.220  19.569  0.00  0.00    +0.000 A 
ATOM     16  C   UNL     1       2.810   4.534  20.375  0.00  0.00    +0.000 A 
ATOM     17  C   UNL     1       1.639   5.176  20.777  0.00  0.00    +0.000 A 
ATOM     18  C   UNL     1       1.391   6.491  20.378  0.00  0.00    +0.000 A 
ATOM     19  C   UNL     1       2.316   7.175  19.586  0.00  0.00    +0.000 A 
ATOM     20  C   UNL     1       3.489   6.542  19.180  0.00  0.00    +0.000 A 
ENDBRANCH  12  15
ENDBRANCH  11  12
ENDBRANCH   3   6
BRANCH   1  22
ATOM     21  N   UNL     1       9.579   9.932  19.146  0.00  0.00    +0.000 N 
ATOM     22  C   UNL     1       8.542   9.597  18.286  0.00  0.00    +0.000 C 
ATOM     23  O   UNL     1       7.906  10.385  17.591  0.00  0.00    +0.000 OA
ATOM     24  H   UNL     1       9.898   9.186  19.753  0.00  0.00    +0.000 HD
BRANCH  21  28
ATOM     25  C   UNL     1      11.205  13.825  19.535  0.00  0.00    +0.000 A 
ATOM     26  C   UNL     1      11.503  13.045  18.428  0.00  0.00    +0.000 A 
ATOM     27  C   UNL     1      10.976  11.760  18.324  0.00  0.00    +0.000 A 
ATOM     28  C   UNL     1      10.123  11.227  19.301  0.00  0.00    +0.000 A 
ATOM     29  C   UNL     1       9.831  12.004  20.436  0.00  0.00    +0.000 A 
ATOM     30  C   UNL     1       8.932  11.560  21.556  0.00  0.00    +0.000 C 
ATOM     31  C   UNL     1      10.403  13.290  20.544  0.00  0.00    +0.000 A 
BRANCH  25  33
ATOM     32  C   UNL     1      11.293  16.040  18.737  0.00  0.00    +0.000 C 
ATOM     33  O   UNL     1      11.663  15.097  19.741  0.00  0.00    +0.000 OA
ENDBRANCH  25  33
ENDBRANCH  21  28
ENDBRANCH   1  22
TORSDOF 6
ENDMDL
