MODEL 1
REMARK VINA RESULT:      -7.6      0.000      0.000
REMARK  Name = 
REMARK  5 active torsions:
REMARK  status: ('A' for Active; 'I' for Inactive)
REMARK    1  A    between atoms: N_2  and  C_4
REMARK    2  A    between atoms: C_10  and  C_11
REMARK    3  A    between atoms: C_11  and  O_12
REMARK    4  A    between atoms: O_12  and  C_13
REMARK    5  A    between atoms: C_16  and  C_17
REMARK                            x       y       z     vdW  Elec       q    Type
REMARK                         _______ _______ _______ _____ _____    ______ ____
ROOT
ATOM      1  C   UNL     1       6.537   4.698  14.999  0.00  0.00    +0.000 A 
ATOM      2  C   UNL     1       7.141   4.928  16.220  0.00  0.00    +0.000 A 
ATOM      3  N   UNL     1       6.136   4.749  17.127  0.00  0.00    +0.000 N 
ATOM      4  C   UNL     1       5.001   4.430  16.453  0.00  0.00    +0.000 A 
ATOM      5  N   UNL     1       5.202   4.386  15.158  0.00  0.00    +0.000 NA
ATOM      6  O   UNL     1       3.819   4.231  17.006  0.00  0.00    +0.000 OA
ATOM      7  C   UNL     1       3.702   4.211  18.430  0.00  0.00    +0.000 C 
ATOM      8  C   UNL     1       4.928   4.608  19.278  0.00  0.00    +0.000 C 
ATOM      9  C   UNL     1       6.219   4.922  18.546  0.00  0.00    +0.000 C 
ENDROOT
BRANCH   1  11
ATOM     10  O   UNL     1       8.068   5.592  13.558  0.00  0.00    +0.000 OA
ATOM     11  N   UNL     1       7.144   4.774  13.691  0.00  0.00    +0.000 N 
ATOM     12  O   UNL     1       6.708   4.032  12.802  0.00  0.00    +0.000 OA
ENDBRANCH   1  11
BRANCH   7  13
ATOM     13  C   UNL     1       2.510   5.112  18.797  0.00  0.00    +0.000 C 
BRANCH  13  14
ATOM     14  O   UNL     1       2.917   6.102  19.750  0.00  0.00    +0.000 OA
BRANCH  14  15
ATOM     15  C   UNL     1       2.290   7.314  19.539  0.00  0.00    +0.000 A 
ATOM     16  C   UNL     1       2.336   7.829  18.255  0.00  0.00    +0.000 A 
ATOM     17  C   UNL     1       1.671   9.027  18.000  0.00  0.00    +0.000 A 
ATOM     18  C   UNL     1       0.986   9.670  19.035  0.00  0.00    +0.000 A 
ATOM     19  C   UNL     1       1.014   9.077  20.289  0.00  0.00    +0.000 A 
ATOM     20  N   UNL     1       1.646   7.915  20.562  0.00  0.00    +0.000 NA
BRANCH  18  21
ATOM     21  C   UNL     1       0.223  10.943  18.848  0.00  0.00    +0.000 C 
ATOM     22  F   UNL     1      -0.790  10.846  17.945  0.00  0.00    +0.000 F 
ATOM     23  F   UNL     1      -0.350  11.376  20.006  0.00  0.00    +0.000 F 
ATOM     24  F   UNL     1       1.011  11.966  18.421  0.00  0.00    +0.000 F 
ENDBRANCH  18  21
ENDBRANCH  14  15
ENDBRANCH  13  14
ENDBRANCH   7  13
TORSDOF 5
ENDMDL
MODEL 2
REMARK VINA RESULT:      -7.6      3.996      4.985
REMARK  Name = 
REMARK  5 active torsions:
REMARK  status: ('A' for Active; 'I' for Inactive)
REMARK    1  A    between atoms: N_2  and  C_4
REMARK    2  A    between atoms: C_10  and  C_11
REMARK    3  A    between atoms: C_11  and  O_12
REMARK    4  A    between atoms: O_12  and  C_13
REMARK    5  A    between atoms: C_16  and  C_17
REMARK                            x       y       z     vdW  Elec       q    Type
REMARK                         _______ _______ _______ _____ _____    ______ ____
ROOT
ATOM      1  C   UNL     1       6.196   4.223  13.649  0.00  0.00    +0.000 A 
ATOM      2  C   UNL     1       5.291   5.222  13.950  0.00  0.00    +0.000 A 
ATOM      3  N   UNL     1       5.697   5.682  15.169  0.00  0.00    +0.000 N 
ATOM      4  C   UNL     1       6.792   4.975  15.553  0.00  0.00    +0.000 A 
ATOM      5  N   UNL     1       7.129   4.079  14.656  0.00  0.00    +0.000 NA
ATOM      6  O   UNL     1       7.426   5.119  16.701  0.00  0.00    +0.000 OA
ATOM      7  C   UNL     1       7.049   6.175  17.586  0.00  0.00    +0.000 C 
ATOM      8  C   UNL     1       5.790   7.002  17.256  0.00  0.00    +0.000 C 
ATOM      9  C   UNL     1       5.064   6.694  15.961  0.00  0.00    +0.000 C 
ENDROOT
BRANCH   1  11
ATOM     10  O   UNL     1       5.134   2.893  12.125  0.00  0.00    +0.000 OA
ATOM     11  N   UNL     1       6.219   3.384  12.474  0.00  0.00    +0.000 N 
ATOM     12  O   UNL     1       7.303   3.212  11.902  0.00  0.00    +0.000 OA
ENDBRANCH   1  11
BRANCH   7  13
ATOM     13  C   UNL     1       6.907   5.559  18.989  0.00  0.00    +0.000 C 
BRANCH  13  14
ATOM     14  O   UNL     1       6.494   4.191  18.885  0.00  0.00    +0.000 OA
BRANCH  14  15
ATOM     15  C   UNL     1       5.200   4.006  19.329  0.00  0.00    +0.000 A 
ATOM     16  C   UNL     1       4.422   5.139  19.488  0.00  0.00    +0.000 A 
ATOM     17  C   UNL     1       3.097   4.980  19.889  0.00  0.00    +0.000 A 
ATOM     18  C   UNL     1       2.595   3.696  20.119  0.00  0.00    +0.000 A 
ATOM     19  C   UNL     1       3.461   2.627  19.945  0.00  0.00    +0.000 A 
ATOM     20  N   UNL     1       4.747   2.753  19.552  0.00  0.00    +0.000 NA
BRANCH  18  21
ATOM     21  C   UNL     1       1.179   3.428  20.524  0.00  0.00    +0.000 C 
ATOM     22  F   UNL     1       0.419   4.551  20.629  0.00  0.00    +0.000 F 
ATOM     23  F   UNL     1       0.533   2.621  19.637  0.00  0.00    +0.000 F 
ATOM     24  F   UNL     1       1.091   2.800  21.728  0.00  0.00    +0.000 F 
ENDBRANCH  18  21
ENDBRANCH  14  15
ENDBRANCH  13  14
ENDBRANCH   7  13
TORSDOF 5
ENDMDL
MODEL 3
REMARK VINA RESULT:      -7.5      2.527      3.631
REMARK  Name = 
REMARK  5 active torsions:
REMARK  status: ('A' for Active; 'I' for Inactive)
REMARK    1  A    between atoms: N_2  and  C_4
REMARK    2  A    between atoms: C_10  and  C_11
REMARK    3  A    between atoms: C_11  and  O_12
REMARK    4  A    between atoms: O_12  and  C_13
REMARK    5  A    between atoms: C_16  and  C_17
REMARK                            x       y       z     vdW  Elec       q    Type
REMARK                         _______ _______ _______ _____ _____    ______ ____
ROOT
ATOM      1  C   UNL     1       6.173   4.920  17.607  0.00  0.00    +0.000 A 
ATOM      2  C   UNL     1       5.540   4.302  18.668  0.00  0.00    +0.000 A 
ATOM      3  N   UNL     1       4.389   5.019  18.832  0.00  0.00    +0.000 N 
ATOM      4  C   UNL     1       4.364   6.009  17.902  0.00  0.00    +0.000 A 
ATOM      5  N   UNL     1       5.428   5.983  17.137  0.00  0.00    +0.000 NA
ATOM      6  O   UNL     1       3.420   6.926  17.793  0.00  0.00    +0.000 OA
ATOM      7  C   UNL     1       2.251   6.833  18.610  0.00  0.00    +0.000 C 
ATOM      8  C   UNL     1       2.211   5.768  19.725  0.00  0.00    +0.000 C 
ATOM      9  C   UNL     1       3.391   4.823  19.840  0.00  0.00    +0.000 C 
ENDROOT
BRANCH   1  11
ATOM     10  O   UNL     1       7.565   4.757  15.803  0.00  0.00    +0.000 OA
ATOM     11  N   UNL     1       7.449   4.576  17.025  0.00  0.00    +0.000 N 
ATOM     12  O   UNL     1       8.328   4.127  17.772  0.00  0.00    +0.000 OA
ENDBRANCH   1  11
BRANCH   7  13
ATOM     13  C   UNL     1       2.016   8.226  19.220  0.00  0.00    +0.000 C 
BRANCH  13  14
ATOM     14  O   UNL     1       1.878   8.122  20.642  0.00  0.00    +0.000 OA
BRANCH  14  15
ATOM     15  C   UNL     1       0.979   9.042  21.144  0.00  0.00    +0.000 A 
ATOM     16  C   UNL     1       0.681   8.957  22.493  0.00  0.00    +0.000 A 
ATOM     17  C   UNL     1      -0.187   9.902  23.038  0.00  0.00    +0.000 A 
ATOM     18  C   UNL     1      -0.727  10.898  22.218  0.00  0.00    +0.000 A 
ATOM     19  C   UNL     1      -0.375  10.885  20.876  0.00  0.00    +0.000 A 
ATOM     20  N   UNL     1       0.466   9.985  20.324  0.00  0.00    +0.000 NA
BRANCH  18  21
ATOM     21  C   UNL     1      -1.643  11.968  22.721  0.00  0.00    +0.000 C 
ATOM     22  F   UNL     1      -1.013  12.932  23.445  0.00  0.00    +0.000 F 
ATOM     23  F   UNL     1      -2.281  12.619  21.709  0.00  0.00    +0.000 F 
ATOM     24  F   UNL     1      -2.627  11.478  23.523  0.00  0.00    +0.000 F 
ENDBRANCH  18  21
ENDBRANCH  14  15
ENDBRANCH  13  14
ENDBRANCH   7  13
TORSDOF 5
ENDMDL
MODEL 4
REMARK VINA RESULT:      -7.5      5.211      7.830
REMARK  Name = 
REMARK  5 active torsions:
REMARK  status: ('A' for Active; 'I' for Inactive)
REMARK    1  A    between atoms: N_2  and  C_4
REMARK    2  A    between atoms: C_10  and  C_11
REMARK    3  A    between atoms: C_11  and  O_12
REMARK    4  A    between atoms: O_12  and  C_13
REMARK    5  A    between atoms: C_16  and  C_17
REMARK                            x       y       z     vdW  Elec       q    Type
REMARK                         _______ _______ _______ _____ _____    ______ ____
ROOT
ATOM      1  C   UNL     1       2.628   3.596  19.163  0.00  0.00    +0.000 A 
ATOM      2  C   UNL     1       3.880   3.246  19.633  0.00  0.00    +0.000 A 
ATOM      3  N   UNL     1       4.686   4.268  19.221  0.00  0.00    +0.000 N 
ATOM      4  C   UNL     1       3.928   5.167  18.541  0.00  0.00    +0.000 A 
ATOM      5  N   UNL     1       2.671   4.797  18.485  0.00  0.00    +0.000 NA
ATOM      6  O   UNL     1       4.384   6.260  17.959  0.00  0.00    +0.000 OA
ATOM      7  C   UNL     1       5.751   6.637  18.139  0.00  0.00    +0.000 C 
ATOM      8  C   UNL     1       6.699   5.655  18.859  0.00  0.00    +0.000 C 
ATOM      9  C   UNL     1       6.103   4.372  19.405  0.00  0.00    +0.000 C 
ENDROOT
BRANCH   1  11
ATOM     10  O   UNL     1       1.111   2.470  20.447  0.00  0.00    +0.000 OA
ATOM     11  N   UNL     1       1.399   2.851  19.302  0.00  0.00    +0.000 N 
ATOM     12  O   UNL     1       0.725   2.644  18.285  0.00  0.00    +0.000 OA
ENDBRANCH   1  11
BRANCH   7  13
ATOM     13  C   UNL     1       6.315   6.969  16.747  0.00  0.00    +0.000 C 
BRANCH  13  14
ATOM     14  O   UNL     1       7.365   6.055  16.411  0.00  0.00    +0.000 OA
BRANCH  14  15
ATOM     15  C   UNL     1       7.047   5.280  15.314  0.00  0.00    +0.000 A 
ATOM     16  C   UNL     1       6.032   4.352  15.474  0.00  0.00    +0.000 A 
ATOM     17  C   UNL     1       5.656   3.588  14.370  0.00  0.00    +0.000 A 
ATOM     18  C   UNL     1       6.305   3.777  13.147  0.00  0.00    +0.000 A 
ATOM     19  C   UNL     1       7.319   4.722  13.096  0.00  0.00    +0.000 A 
ATOM     20  N   UNL     1       7.700   5.478  14.148  0.00  0.00    +0.000 NA
BRANCH  18  21
ATOM     21  C   UNL     1       5.949   3.023  11.904  0.00  0.00    +0.000 C 
ATOM     22  F   UNL     1       5.547   1.744  12.137  0.00  0.00    +0.000 F 
ATOM     23  F   UNL     1       4.933   3.614  11.216  0.00  0.00    +0.000 F 
ATOM     24  F   UNL     1       6.988   2.938  11.029  0.00  0.00    +0.000 F 
ENDBRANCH  18  21
ENDBRANCH  14  15
ENDBRANCH  13  14
ENDBRANCH   7  13
TORSDOF 5
ENDMDL
MODEL 5
REMARK VINA RESULT:      -7.3      4.336      5.607
REMARK  Name = 
REMARK  5 active torsions:
REMARK  status: ('A' for Active; 'I' for Inactive)
REMARK    1  A    between atoms: N_2  and  C_4
REMARK    2  A    between atoms: C_10  and  C_11
REMARK    3  A    between atoms: C_11  and  O_12
REMARK    4  A    between atoms: O_12  and  C_13
REMARK    5  A    between atoms: C_16  and  C_17
REMARK                            x       y       z     vdW  Elec       q    Type
REMARK                         _______ _______ _______ _____ _____    ______ ____
ROOT
ATOM      1  C   UNL     1       8.449   8.920  18.236  0.00  0.00    +0.000 A 
ATOM      2  C   UNL     1       8.495   7.852  19.112  0.00  0.00    +0.000 A 
ATOM      3  N   UNL     1       8.024   6.801  18.380  0.00  0.00    +0.000 N 
ATOM      4  C   UNL     1       7.719   7.247  17.133  0.00  0.00    +0.000 A 
ATOM      5  N   UNL     1       7.965   8.529  17.004  0.00  0.00    +0.000 NA
ATOM      6  O   UNL     1       7.195   6.513  16.170  0.00  0.00    +0.000 OA
ATOM      7  C   UNL     1       7.038   5.106  16.363  0.00  0.00    +0.000 C 
ATOM      8  C   UNL     1       7.315   4.516  17.761  0.00  0.00    +0.000 C 
ATOM      9  C   UNL     1       7.817   5.460  18.837  0.00  0.00    +0.000 C 
ENDROOT
BRANCH   1  11
ATOM     10  O   UNL     1       9.591  10.479  19.454  0.00  0.00    +0.000 OA
ATOM     11  N   UNL     1       8.819  10.290  18.502  0.00  0.00    +0.000 N 
ATOM     12  O   UNL     1       8.345  11.173  17.775  0.00  0.00    +0.000 OA
ENDBRANCH   1  11
BRANCH   7  13
ATOM     13  C   UNL     1       5.606   4.749  15.928  0.00  0.00    +0.000 C 
BRANCH  13  14
ATOM     14  O   UNL     1       4.691   5.758  16.373  0.00  0.00    +0.000 OA
BRANCH  14  15
ATOM     15  C   UNL     1       3.896   5.315  17.411  0.00  0.00    +0.000 A 
ATOM     16  C   UNL     1       3.244   4.107  17.232  0.00  0.00    +0.000 A 
ATOM     17  C   UNL     1       2.472   3.610  18.281  0.00  0.00    +0.000 A 
ATOM     18  C   UNL     1       2.377   4.338  19.472  0.00  0.00    +0.000 A 
ATOM     19  C   UNL     1       3.057   5.544  19.544  0.00  0.00    +0.000 A 
ATOM     20  N   UNL     1       3.815   6.045  18.544  0.00  0.00    +0.000 NA
BRANCH  18  21
ATOM     21  C   UNL     1       1.595   3.870  20.659  0.00  0.00    +0.000 C 
ATOM     22  F   UNL     1       1.349   2.532  20.658  0.00  0.00    +0.000 F 
ATOM     23  F   UNL     1       2.235   4.131  21.833  0.00  0.00    +0.000 F 
ATOM     24  F   UNL     1       0.381   4.477  20.756  0.00  0.00    +0.000 F 
ENDBRANCH  18  21
ENDBRANCH  14  15
ENDBRANCH  13  14
ENDBRANCH   7  13
TORSDOF 5
ENDMDL
MODEL 6
REMARK VINA RESULT:      -7.3      4.480      5.873
REMARK  Name = 
REMARK  5 active torsions:
REMARK  status: ('A' for Active; 'I' for Inactive)
REMARK    1  A    between atoms: N_2  and  C_4
REMARK    2  A    between atoms: C_10  and  C_11
REMARK    3  A    between atoms: C_11  and  O_12
REMARK    4  A    between atoms: O_12  and  C_13
REMARK    5  A    between atoms: C_16  and  C_17
REMARK                            x       y       z     vdW  Elec       q    Type
REMARK                         _______ _______ _______ _____ _____    ______ ____
ROOT
ATOM      1  C   UNL     1       8.326   8.636  18.255  0.00  0.00    +0.000 A 
ATOM      2  C   UNL     1       8.440   7.482  19.006  0.00  0.00    +0.000 A 
ATOM      3  N   UNL     1       7.898   6.514  18.209  0.00  0.00    +0.000 N 
ATOM      4  C   UNL     1       7.489   7.090  17.049  0.00  0.00    +0.000 A 
ATOM      5  N   UNL     1       7.733   8.379  17.036  0.00  0.00    +0.000 NA
ATOM      6  O   UNL     1       6.877   6.463  16.063  0.00  0.00    +0.000 OA
ATOM      7  C   UNL     1       6.726   5.043  16.118  0.00  0.00    +0.000 C 
ATOM      8  C   UNL     1       7.119   4.307  17.415  0.00  0.00    +0.000 C 
ATOM      9  C   UNL     1       7.721   5.131  18.538  0.00  0.00    +0.000 C 
ENDROOT
BRANCH   1  11
ATOM     10  O   UNL     1       9.319  10.084  19.718  0.00  0.00    +0.000 OA
ATOM     11  N   UNL     1       8.729   9.971  18.632  0.00  0.00    +0.000 N 
ATOM     12  O   UNL     1       8.461  10.900  17.860  0.00  0.00    +0.000 OA
ENDBRANCH   1  11
BRANCH   7  13
ATOM     13  C   UNL     1       5.259   4.732  15.775  0.00  0.00    +0.000 C 
BRANCH  13  14
ATOM     14  O   UNL     1       4.387   5.603  16.507  0.00  0.00    +0.000 OA
BRANCH  14  15
ATOM     15  C   UNL     1       3.908   5.010  17.658  0.00  0.00    +0.000 A 
ATOM     16  C   UNL     1       3.864   5.795  18.797  0.00  0.00    +0.000 A 
ATOM     17  C   UNL     1       3.341   5.238  19.963  0.00  0.00    +0.000 A 
ATOM     18  C   UNL     1       2.881   3.917  19.951  0.00  0.00    +0.000 A 
ATOM     19  C   UNL     1       2.984   3.212  18.761  0.00  0.00    +0.000 A 
ATOM     20  N   UNL     1       3.482   3.729  17.617  0.00  0.00    +0.000 NA
BRANCH  18  21
ATOM     21  C   UNL     1       2.279   3.247  21.145  0.00  0.00    +0.000 C 
ATOM     22  F   UNL     1       2.225   4.041  22.248  0.00  0.00    +0.000 F 
ATOM     23  F   UNL     1       1.001   2.838  20.916  0.00  0.00    +0.000 F 
ATOM     24  F   UNL     1       2.964   2.131  21.518  0.00  0.00    +0.000 F 
ENDBRANCH  18  21
ENDBRANCH  14  15
ENDBRANCH  13  14
ENDBRANCH   7  13
TORSDOF 5
ENDMDL
MODEL 7
REMARK VINA RESULT:      -7.3      1.146      1.720
REMARK  Name = 
REMARK  5 active torsions:
REMARK  status: ('A' for Active; 'I' for Inactive)
REMARK    1  A    between atoms: N_2  and  C_4
REMARK    2  A    between atoms: C_10  and  C_11
REMARK    3  A    between atoms: C_11  and  O_12
REMARK    4  A    between atoms: O_12  and  C_13
REMARK    5  A    between atoms: C_16  and  C_17
REMARK                            x       y       z     vdW  Elec       q    Type
REMARK                         _______ _______ _______ _____ _____    ______ ____
ROOT
ATOM      1  C   UNL     1       6.531   4.702  15.046  0.00  0.00    +0.000 A 
ATOM      2  C   UNL     1       7.122   4.833  16.288  0.00  0.00    +0.000 A 
ATOM      3  N   UNL     1       6.080   4.728  17.164  0.00  0.00    +0.000 N 
ATOM      4  C   UNL     1       4.937   4.545  16.453  0.00  0.00    +0.000 A 
ATOM      5  N   UNL     1       5.168   4.520  15.162  0.00  0.00    +0.000 NA
ATOM      6  O   UNL     1       3.727   4.448  16.971  0.00  0.00    +0.000 OA
ATOM      7  C   UNL     1       3.571   4.397  18.390  0.00  0.00    +0.000 C 
ATOM      8  C   UNL     1       4.807   4.643  19.280  0.00  0.00    +0.000 C 
ATOM      9  C   UNL     1       6.142   4.848  18.589  0.00  0.00    +0.000 C 
ENDROOT
BRANCH   1  11
ATOM     10  O   UNL     1       8.097   5.580  13.633  0.00  0.00    +0.000 OA
ATOM     11  N   UNL     1       7.177   4.756  13.756  0.00  0.00    +0.000 N 
ATOM     12  O   UNL     1       6.776   3.990  12.870  0.00  0.00    +0.000 OA
ENDBRANCH   1  11
BRANCH   7  13
ATOM     13  C   UNL     1       2.465   5.402  18.758  0.00  0.00    +0.000 C 
BRANCH  13  14
ATOM     14  O   UNL     1       2.895   6.736  18.465  0.00  0.00    +0.000 OA
BRANCH  14  15
ATOM     15  C   UNL     1       2.161   7.681  19.153  0.00  0.00    +0.000 A 
ATOM     16  C   UNL     1       1.898   7.423  20.487  0.00  0.00    +0.000 A 
ATOM     17  C   UNL     1       1.199   8.380  21.220  0.00  0.00    +0.000 A 
ATOM     18  C   UNL     1       0.786   9.561  20.596  0.00  0.00    +0.000 A 
ATOM     19  C   UNL     1       1.088   9.716  19.251  0.00  0.00    +0.000 A 
ATOM     20  N   UNL     1       1.767   8.807  18.519  0.00  0.00    +0.000 NA
BRANCH  18  21
ATOM     21  C   UNL     1       0.057  10.655  21.310  0.00  0.00    +0.000 C 
ATOM     22  F   UNL     1      -0.164  10.396  22.627  0.00  0.00    +0.000 F 
ATOM     23  F   UNL     1       0.734  11.837  21.271  0.00  0.00    +0.000 F 
ATOM     24  F   UNL     1      -1.164  10.910  20.766  0.00  0.00    +0.000 F 
ENDBRANCH  18  21
ENDBRANCH  14  15
ENDBRANCH  13  14
ENDBRANCH   7  13
TORSDOF 5
ENDMDL
MODEL 8
REMARK VINA RESULT:      -7.2      4.219      5.169
REMARK  Name = 
REMARK  5 active torsions:
REMARK  status: ('A' for Active; 'I' for Inactive)
REMARK    1  A    between atoms: N_2  and  C_4
REMARK    2  A    between atoms: C_10  and  C_11
REMARK    3  A    between atoms: C_11  and  O_12
REMARK    4  A    between atoms: O_12  and  C_13
REMARK    5  A    between atoms: C_16  and  C_17
REMARK                            x       y       z     vdW  Elec       q    Type
REMARK                         _______ _______ _______ _____ _____    ______ ____
ROOT
ATOM      1  C   UNL     1       5.857   4.031  13.499  0.00  0.00    +0.000 A 
ATOM      2  C   UNL     1       5.118   5.121  13.918  0.00  0.00    +0.000 A 
ATOM      3  N   UNL     1       5.700   5.482  15.099  0.00  0.00    +0.000 N 
ATOM      4  C   UNL     1       6.731   4.633  15.349  0.00  0.00    +0.000 A 
ATOM      5  N   UNL     1       6.862   3.738  14.399  0.00  0.00    +0.000 NA
ATOM      6  O   UNL     1       7.491   4.656  16.427  0.00  0.00    +0.000 OA
ATOM      7  C   UNL     1       7.339   5.716  17.373  0.00  0.00    +0.000 C 
ATOM      8  C   UNL     1       6.165   6.701  17.197  0.00  0.00    +0.000 C 
ATOM      9  C   UNL     1       5.280   6.532  15.977  0.00  0.00    +0.000 C 
ENDROOT
BRANCH   1  11
ATOM     10  O   UNL     1       4.513   3.243  11.829  0.00  0.00    +0.000 OA
ATOM     11  N   UNL     1       5.657   3.241  12.307  0.00  0.00    +0.000 N 
ATOM     12  O   UNL     1       6.626   2.621  11.850  0.00  0.00    +0.000 OA
ENDBRANCH   1  11
BRANCH   7  13
ATOM     13  C   UNL     1       7.263   5.069  18.767  0.00  0.00    +0.000 C 
BRANCH  13  14
ATOM     14  O   UNL     1       6.213   5.672  19.532  0.00  0.00    +0.000 OA
BRANCH  14  15
ATOM     15  C   UNL     1       5.058   4.917  19.512  0.00  0.00    +0.000 A 
ATOM     16  C   UNL     1       3.859   5.601  19.615  0.00  0.00    +0.000 A 
ATOM     17  C   UNL     1       2.674   4.869  19.549  0.00  0.00    +0.000 A 
ATOM     18  C   UNL     1       2.727   3.482  19.385  0.00  0.00    +0.000 A 
ATOM     19  C   UNL     1       3.980   2.892  19.307  0.00  0.00    +0.000 A 
ATOM     20  N   UNL     1       5.143   3.578  19.363  0.00  0.00    +0.000 NA
BRANCH  18  21
ATOM     21  C   UNL     1       1.508   2.621  19.277  0.00  0.00    +0.000 C 
ATOM     22  F   UNL     1       0.742   2.614  20.401  0.00  0.00    +0.000 F 
ATOM     23  F   UNL     1       0.685   3.018  18.266  0.00  0.00    +0.000 F 
ATOM     24  F   UNL     1       1.810   1.320  19.018  0.00  0.00    +0.000 F 
ENDBRANCH  18  21
ENDBRANCH  14  15
ENDBRANCH  13  14
ENDBRANCH   7  13
TORSDOF 5
ENDMDL
MODEL 9
REMARK VINA RESULT:      -7.2      3.972      4.845
REMARK  Name = 
REMARK  5 active torsions:
REMARK  status: ('A' for Active; 'I' for Inactive)
REMARK    1  A    between atoms: N_2  and  C_4
REMARK    2  A    between atoms: C_10  and  C_11
REMARK    3  A    between atoms: C_11  and  O_12
REMARK    4  A    between atoms: O_12  and  C_13
REMARK    5  A    between atoms: C_16  and  C_17
REMARK                            x       y       z     vdW  Elec       q    Type
REMARK                         _______ _______ _______ _____ _____    ______ ____
ROOT
ATOM      1  C   UNL     1       6.386   4.430  13.687  0.00  0.00    +0.000 A 
ATOM      2  C   UNL     1       5.338   5.264  14.029  0.00  0.00    +0.000 A 
ATOM      3  N   UNL     1       5.666   5.714  15.275  0.00  0.00    +0.000 N 
ATOM      4  C   UNL     1       6.854   5.161  15.634  0.00  0.00    +0.000 A 
ATOM      5  N   UNL     1       7.326   4.376  14.695  0.00  0.00    +0.000 NA
ATOM      6  O   UNL     1       7.455   5.338  16.796  0.00  0.00    +0.000 OA
ATOM      7  C   UNL     1       6.919   6.276  17.730  0.00  0.00    +0.000 C 
ATOM      8  C   UNL     1       5.550   6.919  17.429  0.00  0.00    +0.000 C 
ATOM      9  C   UNL     1       4.884   6.574  16.111  0.00  0.00    +0.000 C 
ENDROOT
BRANCH   1  11
ATOM     10  O   UNL     1       7.484   3.990  11.733  0.00  0.00    +0.000 OA
ATOM     11  N   UNL     1       6.539   3.669  12.470  0.00  0.00    +0.000 N 
ATOM     12  O   UNL     1       5.729   2.761  12.244  0.00  0.00    +0.000 OA
ENDBRANCH   1  11
BRANCH   7  13
ATOM     13  C   UNL     1       6.868   5.572  19.097  0.00  0.00    +0.000 C 
BRANCH  13  14
ATOM     14  O   UNL     1       6.482   4.202  18.930  0.00  0.00    +0.000 OA
BRANCH  14  15
ATOM     15  C   UNL     1       5.132   4.013  19.150  0.00  0.00    +0.000 A 
ATOM     16  C   UNL     1       4.443   3.259  18.216  0.00  0.00    +0.000 A 
ATOM     17  C   UNL     1       3.089   3.011  18.437  0.00  0.00    +0.000 A 
ATOM     18  C   UNL     1       2.470   3.526  19.580  0.00  0.00    +0.000 A 
ATOM     19  C   UNL     1       3.247   4.282  20.446  0.00  0.00    +0.000 A 
ATOM     20  N   UNL     1       4.561   4.532  20.258  0.00  0.00    +0.000 NA
BRANCH  18  21
ATOM     21  C   UNL     1       1.031   3.288  19.912  0.00  0.00    +0.000 C 
ATOM     22  F   UNL     1       0.364   2.569  18.969  0.00  0.00    +0.000 F 
ATOM     23  F   UNL     1       0.878   2.603  21.080  0.00  0.00    +0.000 F 
ATOM     24  F   UNL     1       0.333   4.445  20.068  0.00  0.00    +0.000 F 
ENDBRANCH  18  21
ENDBRANCH  14  15
ENDBRANCH  13  14
ENDBRANCH   7  13
TORSDOF 5
ENDMDL
