MODEL 1
REMARK VINA RESULT:      -7.2      0.000      0.000
REMARK  Name = 
REMARK  4 active torsions:
REMARK  status: ('A' for Active; 'I' for Inactive)
REMARK    1  A    between atoms: C_2  and  C_3
REMARK    2  A    between atoms: C_7  and  C_8
REMARK    3  A    between atoms: C_8  and  N_9
REMARK    4  A    between atoms: C_19  and  C_20
REMARK                            x       y       z     vdW  Elec       q    Type
REMARK                         _______ _______ _______ _____ _____    ______ ____
ROOT
ATOM      1  N   UNL     1      -3.931  12.892  22.436  0.00  0.00    +0.000 NA
ATOM      2  C   UNL     1      -4.371  12.434  21.087  0.00  0.00    +0.000 C 
ATOM      3  C   UNL     1      -4.678  13.592  20.147  0.00  0.00    +0.000 C 
ATOM      4  C   UNL     1      -5.891  14.416  20.619  0.00  0.00    +0.000 C 
ATOM      5  C   UNL     1      -5.952  14.550  22.169  0.00  0.00    +0.000 C 
ATOM      6  C   UNL     1      -5.139  13.513  23.021  0.00  0.00    +0.000 C 
ATOM      7  C   UNL     1      -5.729  15.813  20.002  0.00  0.00    +0.000 C 
ATOM      8  O   UNL     1      -4.872  16.638  20.274  0.00  0.00    +0.000 OA
ATOM      9  N   UNL     1      -6.664  15.992  19.011  0.00  0.00    +0.000 N 
ATOM     10  C   UNL     1      -7.437  14.823  18.743  0.00  0.00    +0.000 C 
ATOM     11  C   UNL     1      -7.274  13.963  20.002  0.00  0.00    +0.000 C 
ATOM     12  H   UNL     1      -6.612  16.812  18.415  0.00  0.00    +0.000 HD
ENDROOT
BRANCH  11  13
ATOM     13  C   UNL     1      -7.408  12.459  19.819  0.00  0.00    +0.000 A 
ATOM     14  C   UNL     1      -6.985  11.803  18.648  0.00  0.00    +0.000 A 
ATOM     15  C   UNL     1      -6.804  10.420  18.630  0.00  0.00    +0.000 A 
ATOM     16  C   UNL     1      -7.083   9.680  19.769  0.00  0.00    +0.000 A 
ATOM     17  F   UNL     1      -6.819   8.366  19.780  0.00  0.00    +0.000 F 
ATOM     18  C   UNL     1      -7.594  10.288  20.906  0.00  0.00    +0.000 A 
ATOM     19  C   UNL     1      -7.774  11.675  20.929  0.00  0.00    +0.000 A 
ENDBRANCH  11  13
BRANCH   1  20
ATOM     20  C   UNL     1      -2.532  13.511  22.365  0.00  0.00    +0.000 C 
ATOM     21  C   UNL     1      -1.056  13.834  23.233  0.00  0.00    +0.000 C 
ATOM     22  C   UNL     1      -0.162  14.912  22.507  0.00  0.00    +0.000 C 
ATOM     23  C   UNL     1      -0.816  16.277  22.404  0.00  0.00    +0.000 C 
ATOM     24  C   UNL     1      -2.193  16.074  21.854  0.00  0.00    +0.000 C 
ATOM     25  C   UNL     1      -2.864  15.018  22.697  0.00  0.00    +0.000 C 
BRANCH  20  30
ATOM     26  C   UNL     1      -0.416  10.688  20.718  0.00  0.00    +0.000 A 
ATOM     27  C   UNL     1      -0.215   9.821  21.796  0.00  0.00    +0.000 A 
ATOM     28  C   UNL     1      -0.816  10.084  23.031  0.00  0.00    +0.000 A 
ATOM     29  C   UNL     1      -1.607  11.228  23.232  0.00  0.00    +0.000 A 
ATOM     30  C   UNL     1      -1.808  12.131  22.181  0.00  0.00    +0.000 A 
ATOM     31  C   UNL     1      -1.186  11.834  20.915  0.00  0.00    +0.000 A 
BRANCH  26  33
ATOM     32  N   UNL     1       0.728  10.236  18.407  0.00  0.00    +0.000 NA
ATOM     33  C   UNL     1       0.220  10.430  19.431  0.00  0.00    +0.000 C 
ENDBRANCH  26  33
ENDBRANCH  20  30
ENDBRANCH   1  20
TORSDOF 4
ENDMDL
MODEL 2
REMARK VINA RESULT:      -6.8      2.025      3.064
REMARK  Name = 
REMARK  4 active torsions:
REMARK  status: ('A' for Active; 'I' for Inactive)
REMARK    1  A    between atoms: C_2  and  C_3
REMARK    2  A    between atoms: C_7  and  C_8
REMARK    3  A    between atoms: C_8  and  N_9
REMARK    4  A    between atoms: C_19  and  C_20
REMARK                            x       y       z     vdW  Elec       q    Type
REMARK                         _______ _______ _______ _____ _____    ______ ____
ROOT
ATOM      1  N   UNL     1      -5.166  12.927  21.971  0.00  0.00    +0.000 NA
ATOM      2  C   UNL     1      -4.705  13.001  20.555  0.00  0.00    +0.000 C 
ATOM      3  C   UNL     1      -5.369  14.133  19.782  0.00  0.00    +0.000 C 
ATOM      4  C   UNL     1      -6.884  13.910  19.616  0.00  0.00    +0.000 C 
ATOM      5  C   UNL     1      -7.529  13.256  20.873  0.00  0.00    +0.000 C 
ATOM      6  C   UNL     1      -6.580  12.506  21.872  0.00  0.00    +0.000 C 
ATOM      7  C   UNL     1      -7.503  15.300  19.403  0.00  0.00    +0.000 C 
ATOM      8  O   UNL     1      -7.572  16.204  20.220  0.00  0.00    +0.000 OA
ATOM      9  N   UNL     1      -7.916  15.427  18.099  0.00  0.00    +0.000 N 
ATOM     10  C   UNL     1      -7.563  14.312  17.281  0.00  0.00    +0.000 C 
ATOM     11  C   UNL     1      -7.300  13.177  18.279  0.00  0.00    +0.000 C 
ATOM     12  H   UNL     1      -8.230  16.330  17.758  0.00  0.00    +0.000 HD
ENDROOT
BRANCH  11  13
ATOM     13  C   UNL     1      -6.325  12.097  17.836  0.00  0.00    +0.000 A 
ATOM     14  C   UNL     1      -5.303  12.342  16.900  0.00  0.00    +0.000 A 
ATOM     15  C   UNL     1      -4.233  11.458  16.763  0.00  0.00    +0.000 A 
ATOM     16  C   UNL     1      -4.197  10.305  17.531  0.00  0.00    +0.000 A 
ATOM     17  F   UNL     1      -3.124   9.506  17.467  0.00  0.00    +0.000 F 
ATOM     18  C   UNL     1      -5.240   9.989  18.391  0.00  0.00    +0.000 A 
ATOM     19  C   UNL     1      -6.312  10.874  18.533  0.00  0.00    +0.000 A 
ENDBRANCH  11  13
BRANCH   1  20
ATOM     20  C   UNL     1      -4.621  14.110  22.777  0.00  0.00    +0.000 C 
ATOM     21  C   UNL     1      -3.932  14.621  24.293  0.00  0.00    +0.000 C 
ATOM     22  C   UNL     1      -3.982  16.188  24.473  0.00  0.00    +0.000 C 
ATOM     23  C   UNL     1      -5.390  16.751  24.518  0.00  0.00    +0.000 C 
ATOM     24  C   UNL     1      -6.136  16.190  23.348  0.00  0.00    +0.000 C 
ATOM     25  C   UNL     1      -5.961  14.692  23.378  0.00  0.00    +0.000 C 
BRANCH  20  30
ATOM     26  C   UNL     1      -1.364  11.983  22.626  0.00  0.00    +0.000 A 
ATOM     27  C   UNL     1      -0.524  12.807  21.872  0.00  0.00    +0.000 A 
ATOM     28  C   UNL     1      -0.956  14.077  21.476  0.00  0.00    +0.000 A 
ATOM     29  C   UNL     1      -2.241  14.545  21.795  0.00  0.00    +0.000 A 
ATOM     30  C   UNL     1      -3.119  13.736  22.526  0.00  0.00    +0.000 A 
ATOM     31  C   UNL     1      -2.647  12.435  22.932  0.00  0.00    +0.000 A 
BRANCH  26  33
ATOM     32  N   UNL     1      -0.592   9.589  23.351  0.00  0.00    +0.000 NA
ATOM     33  C   UNL     1      -0.928  10.651  23.030  0.00  0.00    +0.000 C 
ENDBRANCH  26  33
ENDBRANCH  20  30
ENDBRANCH   1  20
TORSDOF 4
ENDMDL
MODEL 3
REMARK VINA RESULT:      -6.5      2.822      6.030
REMARK  Name = 
REMARK  4 active torsions:
REMARK  status: ('A' for Active; 'I' for Inactive)
REMARK    1  A    between atoms: C_2  and  C_3
REMARK    2  A    between atoms: C_7  and  C_8
REMARK    3  A    between atoms: C_8  and  N_9
REMARK    4  A    between atoms: C_19  and  C_20
REMARK                            x       y       z     vdW  Elec       q    Type
REMARK                         _______ _______ _______ _____ _____    ______ ____
ROOT
ATOM      1  N   UNL     1      -2.608  14.407  20.786  0.00  0.00    +0.000 NA
ATOM      2  C   UNL     1      -3.113  13.064  20.378  0.00  0.00    +0.000 C 
ATOM      3  C   UNL     1      -2.386  11.927  21.083  0.00  0.00    +0.000 C 
ATOM      4  C   UNL     1      -0.902  11.849  20.677  0.00  0.00    +0.000 C 
ATOM      5  C   UNL     1      -0.268  13.256  20.472  0.00  0.00    +0.000 C 
ATOM      6  C   UNL     1      -1.238  14.464  20.230  0.00  0.00    +0.000 C 
ATOM      7  C   UNL     1      -0.178  11.137  21.829  0.00  0.00    +0.000 C 
ATOM      8  O   UNL     1      -0.003  11.564  22.959  0.00  0.00    +0.000 OA
ATOM      9  N   UNL     1       0.196   9.876  21.431  0.00  0.00    +0.000 N 
ATOM     10  C   UNL     1      -0.280   9.527  20.132  0.00  0.00    +0.000 C 
ATOM     11  C   UNL     1      -0.600  10.874  19.470  0.00  0.00    +0.000 C 
ATOM     12  H   UNL     1       0.571   9.225  22.114  0.00  0.00    +0.000 HD
ENDROOT
BRANCH  11  13
ATOM     13  C   UNL     1      -1.677  10.864  18.397  0.00  0.00    +0.000 A 
ATOM     14  C   UNL     1      -1.703  11.802  17.348  0.00  0.00    +0.000 A 
ATOM     15  C   UNL     1      -2.477  11.578  16.209  0.00  0.00    +0.000 A 
ATOM     16  C   UNL     1      -3.260  10.437  16.128  0.00  0.00    +0.000 A 
ATOM     17  F   UNL     1      -3.929  10.178  14.997  0.00  0.00    +0.000 F 
ATOM     18  C   UNL     1      -3.329   9.544  17.188  0.00  0.00    +0.000 A 
ATOM     19  C   UNL     1      -2.551   9.763  18.330  0.00  0.00    +0.000 A 
ENDBRANCH  11  13
BRANCH   1  20
ATOM     20  C   UNL     1      -3.021  14.723  22.226  0.00  0.00    +0.000 C 
ATOM     21  C   UNL     1      -3.655  15.933  23.308  0.00  0.00    +0.000 C 
ATOM     22  C   UNL     1      -3.433  15.553  24.823  0.00  0.00    +0.000 C 
ATOM     23  C   UNL     1      -1.972  15.457  25.219  0.00  0.00    +0.000 C 
ATOM     24  C   UNL     1      -1.288  14.591  24.208  0.00  0.00    +0.000 C 
ATOM     25  C   UNL     1      -1.628  15.137  22.843  0.00  0.00    +0.000 C 
BRANCH  20  30
ATOM     26  C   UNL     1      -6.661  13.369  22.509  0.00  0.00    +0.000 A 
ATOM     27  C   UNL     1      -7.371  14.315  21.765  0.00  0.00    +0.000 A 
ATOM     28  C   UNL     1      -6.693  15.342  21.101  0.00  0.00    +0.000 A 
ATOM     29  C   UNL     1      -5.296  15.469  21.184  0.00  0.00    +0.000 A 
ATOM     30  C   UNL     1      -4.555  14.556  21.943  0.00  0.00    +0.000 A 
ATOM     31  C   UNL     1      -5.276  13.500  22.610  0.00  0.00    +0.000 A 
BRANCH  26  33
ATOM     32  N   UNL     1      -7.916  11.463  23.791  0.00  0.00    +0.000 NA
ATOM     33  C   UNL     1      -7.361  12.304  23.218  0.00  0.00    +0.000 C 
ENDBRANCH  26  33
ENDBRANCH  20  30
ENDBRANCH   1  20
TORSDOF 4
ENDMDL
MODEL 4
REMARK VINA RESULT:      -6.5      4.364      7.689
REMARK  Name = 
REMARK  4 active torsions:
REMARK  status: ('A' for Active; 'I' for Inactive)
REMARK    1  A    between atoms: C_2  and  C_3
REMARK    2  A    between atoms: C_7  and  C_8
REMARK    3  A    between atoms: C_8  and  N_9
REMARK    4  A    between atoms: C_19  and  C_20
REMARK                            x       y       z     vdW  Elec       q    Type
REMARK                         _______ _______ _______ _____ _____    ______ ____
ROOT
ATOM      1  N   UNL     1      -0.399  13.031  19.649  0.00  0.00    +0.000 NA
ATOM      2  C   UNL     1      -0.466  14.186  18.708  0.00  0.00    +0.000 C 
ATOM      3  C   UNL     1       0.875  14.484  18.050  0.00  0.00    +0.000 C 
ATOM      4  C   UNL     1       1.926  14.961  19.070  0.00  0.00    +0.000 C 
ATOM      5  C   UNL     1       1.803  14.227  20.437  0.00  0.00    +0.000 C 
ATOM      6  C   UNL     1       0.442  13.519  20.764  0.00  0.00    +0.000 C 
ATOM      7  C   UNL     1       3.297  14.643  18.454  0.00  0.00    +0.000 C 
ATOM      8  O   UNL     1       3.771  13.537  18.254  0.00  0.00    +0.000 OA
ATOM      9  N   UNL     1       3.914  15.810  18.072  0.00  0.00    +0.000 N 
ATOM     10  C   UNL     1       3.091  16.965  18.232  0.00  0.00    +0.000 C 
ATOM     11  C   UNL     1       2.017  16.530  19.238  0.00  0.00    +0.000 C 
ATOM     12  H   UNL     1       4.771  15.770  17.530  0.00  0.00    +0.000 HD
ENDROOT
BRANCH  11  13
ATOM     13  C   UNL     1       0.676  17.241  19.149  0.00  0.00    +0.000 A 
ATOM     14  C   UNL     1       0.174  17.752  17.937  0.00  0.00    +0.000 A 
ATOM     15  C   UNL     1      -1.174  18.089  17.809  0.00  0.00    +0.000 A 
ATOM     16  C   UNL     1      -2.018  17.957  18.901  0.00  0.00    +0.000 A 
ATOM     17  F   UNL     1      -3.328  18.192  18.750  0.00  0.00    +0.000 F 
ATOM     18  C   UNL     1      -1.529  17.549  20.134  0.00  0.00    +0.000 A 
ATOM     19  C   UNL     1      -0.180  17.206  20.265  0.00  0.00    +0.000 A 
ENDBRANCH  11  13
BRANCH   1  20
ATOM     20  C   UNL     1      -0.220  11.719  18.879  0.00  0.00    +0.000 C 
ATOM     21  C   UNL     1      -0.512  10.002  18.878  0.00  0.00    +0.000 C 
ATOM     22  C   UNL     1       0.366   9.249  17.804  0.00  0.00    +0.000 C 
ATOM     23  C   UNL     1       1.858   9.353  18.056  0.00  0.00    +0.000 C 
ATOM     24  C   UNL     1       2.176  10.798  18.282  0.00  0.00    +0.000 C 
ATOM     25  C   UNL     1       1.231  11.307  19.343  0.00  0.00    +0.000 C 
BRANCH  20  30
ATOM     26  C   UNL     1      -3.228  11.121  16.480  0.00  0.00    +0.000 A 
ATOM     27  C   UNL     1      -4.315  11.329  17.334  0.00  0.00    +0.000 A 
ATOM     28  C   UNL     1      -4.104  11.739  18.654  0.00  0.00    +0.000 A 
ATOM     29  C   UNL     1      -2.808  11.925  19.164  0.00  0.00    +0.000 A 
ATOM     30  C   UNL     1      -1.695  11.700  18.345  0.00  0.00    +0.000 A 
ATOM     31  C   UNL     1      -1.939  11.287  16.986  0.00  0.00    +0.000 A 
BRANCH  26  33
ATOM     32  N   UNL     1      -3.597  10.317  14.016  0.00  0.00    +0.000 NA
ATOM     33  C   UNL     1      -3.438  10.677  15.107  0.00  0.00    +0.000 C 
ENDBRANCH  26  33
ENDBRANCH  20  30
ENDBRANCH   1  20
TORSDOF 4
ENDMDL
MODEL 5
REMARK VINA RESULT:      -6.2      2.874      6.163
REMARK  Name = 
REMARK  4 active torsions:
REMARK  status: ('A' for Active; 'I' for Inactive)
REMARK    1  A    between atoms: C_2  and  C_3
REMARK    2  A    between atoms: C_7  and  C_8
REMARK    3  A    between atoms: C_8  and  N_9
REMARK    4  A    between atoms: C_19  and  C_20
REMARK                            x       y       z     vdW  Elec       q    Type
REMARK                         _______ _______ _______ _____ _____    ______ ____
ROOT
ATOM      1  N   UNL     1      -5.783  13.522  19.566  0.00  0.00    +0.000 NA
ATOM      2  C   UNL     1      -4.395  13.788  20.042  0.00  0.00    +0.000 C 
ATOM      3  C   UNL     1      -4.200  13.425  21.509  0.00  0.00    +0.000 C 
ATOM      4  C   UNL     1      -5.037  14.320  22.443  0.00  0.00    +0.000 C 
ATOM      5  C   UNL     1      -6.429  14.671  21.839  0.00  0.00    +0.000 C 
ATOM      6  C   UNL     1      -6.611  14.513  20.289  0.00  0.00    +0.000 C 
ATOM      7  C   UNL     1      -5.241  13.519  23.737  0.00  0.00    +0.000 C 
ATOM      8  O   UNL     1      -5.901  12.501  23.871  0.00  0.00    +0.000 OA
ATOM      9  N   UNL     1      -4.494  14.074  24.747  0.00  0.00    +0.000 N 
ATOM     10  C   UNL     1      -3.656  15.144  24.310  0.00  0.00    +0.000 C 
ATOM     11  C   UNL     1      -4.280  15.598  22.984  0.00  0.00    +0.000 C 
ATOM     12  H   UNL     1      -4.414  13.591  25.636  0.00  0.00    +0.000 HD
ENDROOT
BRANCH  11  13
ATOM     13  C   UNL     1      -3.338  16.234  21.974  0.00  0.00    +0.000 A 
ATOM     14  C   UNL     1      -1.978  15.882  21.887  0.00  0.00    +0.000 A 
ATOM     15  C   UNL     1      -1.225  16.215  20.761  0.00  0.00    +0.000 A 
ATOM     16  C   UNL     1      -1.814  16.936  19.734  0.00  0.00    +0.000 A 
ATOM     17  F   UNL     1      -1.118  17.173  18.614  0.00  0.00    +0.000 F 
ATOM     18  C   UNL     1      -3.125  17.380  19.836  0.00  0.00    +0.000 A 
ATOM     19  C   UNL     1      -3.883  17.045  20.962  0.00  0.00    +0.000 A 
ENDBRANCH  11  13
BRANCH   1  20
ATOM     20  C   UNL     1      -6.041  12.016  19.470  0.00  0.00    +0.000 C 
ATOM     21  C   UNL     1      -6.779  10.740  18.542  0.00  0.00    +0.000 C 
ATOM     22  C   UNL     1      -6.909   9.401  19.368  0.00  0.00    +0.000 C 
ATOM     23  C   UNL     1      -7.808   9.520  20.584  0.00  0.00    +0.000 C 
ATOM     24  C   UNL     1      -7.376  10.733  21.346  0.00  0.00    +0.000 C 
ATOM     25  C   UNL     1      -7.330  11.884  20.371  0.00  0.00    +0.000 C 
BRANCH  20  30
ATOM     26  C   UNL     1      -2.620  10.950  17.946  0.00  0.00    +0.000 A 
ATOM     27  C   UNL     1      -2.889  11.018  16.576  0.00  0.00    +0.000 A 
ATOM     28  C   UNL     1      -4.130  11.480  16.125  0.00  0.00    +0.000 A 
ATOM     29  C   UNL     1      -5.141  11.858  17.024  0.00  0.00    +0.000 A 
ATOM     30  C   UNL     1      -4.916  11.777  18.403  0.00  0.00    +0.000 A 
ATOM     31  C   UNL     1      -3.626  11.308  18.843  0.00  0.00    +0.000 A 
BRANCH  26  33
ATOM     32  N   UNL     1      -0.313  10.070  18.814  0.00  0.00    +0.000 NA
ATOM     33  C   UNL     1      -1.335  10.455  18.426  0.00  0.00    +0.000 C 
ENDBRANCH  26  33
ENDBRANCH  20  30
ENDBRANCH   1  20
TORSDOF 4
ENDMDL
MODEL 6
REMARK VINA RESULT:      -6.2     11.014     13.706
REMARK  Name = 
REMARK  4 active torsions:
REMARK  status: ('A' for Active; 'I' for Inactive)
REMARK    1  A    between atoms: C_2  and  C_3
REMARK    2  A    between atoms: C_7  and  C_8
REMARK    3  A    between atoms: C_8  and  N_9
REMARK    4  A    between atoms: C_19  and  C_20
REMARK                            x       y       z     vdW  Elec       q    Type
REMARK                         _______ _______ _______ _____ _____    ______ ____
ROOT
ATOM      1  N   UNL     1       7.301  14.801  20.434  0.00  0.00    +0.000 NA
ATOM      2  C   UNL     1       8.791  14.867  20.456  0.00  0.00    +0.000 C 
ATOM      3  C   UNL     1       9.328  16.156  19.849  0.00  0.00    +0.000 C 
ATOM      4  C   UNL     1       9.025  16.257  18.342  0.00  0.00    +0.000 C 
ATOM      5  C   UNL     1       7.629  15.671  17.977  0.00  0.00    +0.000 C 
ATOM      6  C   UNL     1       6.963  14.684  18.999  0.00  0.00    +0.000 C 
ATOM      7  C   UNL     1       9.044  17.754  17.999  0.00  0.00    +0.000 C 
ATOM      8  O   UNL     1       8.248  18.600  18.370  0.00  0.00    +0.000 OA
ATOM      9  N   UNL     1      10.161  18.041  17.252  0.00  0.00    +0.000 N 
ATOM     10  C   UNL     1      11.044  16.931  17.100  0.00  0.00    +0.000 C 
ATOM     11  C   UNL     1      10.169  15.707  17.401  0.00  0.00    +0.000 C 
ATOM     12  H   UNL     1      10.393  19.009  17.050  0.00  0.00    +0.000 HD
ENDROOT
BRANCH  11  13
ATOM     13  C   UNL     1      10.884  14.480  17.946  0.00  0.00    +0.000 A 
ATOM     14  C   UNL     1      11.928  14.572  18.885  0.00  0.00    +0.000 A 
ATOM     15  C   UNL     1      12.333  13.454  19.614  0.00  0.00    +0.000 A 
ATOM     16  C   UNL     1      11.725  12.230  19.381  0.00  0.00    +0.000 A 
ATOM     17  F   UNL     1      12.050  11.179  20.146  0.00  0.00    +0.000 F 
ATOM     18  C   UNL     1      10.761  12.089  18.393  0.00  0.00    +0.000 A 
ATOM     19  C   UNL     1      10.350  13.209  17.663  0.00  0.00    +0.000 A 
ENDBRANCH  11  13
BRANCH   1  20
ATOM     20  C   UNL     1       6.703  15.797  21.433  0.00  0.00    +0.000 C 
ATOM     21  C   UNL     1       5.371  16.135  22.504  0.00  0.00    +0.000 C 
ATOM     22  C   UNL     1       5.327  17.651  22.939  0.00  0.00    +0.000 C 
ATOM     23  C   UNL     1       5.104  18.610  21.786  0.00  0.00    +0.000 C 
ATOM     24  C   UNL     1       6.082  18.254  20.710  0.00  0.00    +0.000 C 
ATOM     25  C   UNL     1       5.947  16.774  20.450  0.00  0.00    +0.000 C 
BRANCH  20  30
ATOM     26  C   UNL     1       6.873  12.933  24.065  0.00  0.00    +0.000 A 
ATOM     27  C   UNL     1       8.049  13.250  24.750  0.00  0.00    +0.000 A 
ATOM     28  C   UNL     1       8.753  14.418  24.437  0.00  0.00    +0.000 A 
ATOM     29  C   UNL     1       8.320  15.282  23.417  0.00  0.00    +0.000 A 
ATOM     30  C   UNL     1       7.161  14.981  22.692  0.00  0.00    +0.000 A 
ATOM     31  C   UNL     1       6.448  13.778  23.040  0.00  0.00    +0.000 A 
BRANCH  26  33
ATOM     32  N   UNL     1       5.554  10.742  24.625  0.00  0.00    +0.000 NA
ATOM     33  C   UNL     1       6.142  11.710  24.374  0.00  0.00    +0.000 C 
ENDBRANCH  26  33
ENDBRANCH  20  30
ENDBRANCH   1  20
TORSDOF 4
ENDMDL
MODEL 7
REMARK VINA RESULT:      -6.1      1.368      1.885
REMARK  Name = 
REMARK  4 active torsions:
REMARK  status: ('A' for Active; 'I' for Inactive)
REMARK    1  A    between atoms: C_2  and  C_3
REMARK    2  A    between atoms: C_7  and  C_8
REMARK    3  A    between atoms: C_8  and  N_9
REMARK    4  A    between atoms: C_19  and  C_20
REMARK                            x       y       z     vdW  Elec       q    Type
REMARK                         _______ _______ _______ _____ _____    ______ ____
ROOT
ATOM      1  N   UNL     1      -3.357  12.920  22.204  0.00  0.00    +0.000 NA
ATOM      2  C   UNL     1      -4.205  13.045  20.983  0.00  0.00    +0.000 C 
ATOM      3  C   UNL     1      -4.823  14.429  20.839  0.00  0.00    +0.000 C 
ATOM      4  C   UNL     1      -5.832  14.732  21.963  0.00  0.00    +0.000 C 
ATOM      5  C   UNL     1      -5.386  14.147  23.335  0.00  0.00    +0.000 C 
ATOM      6  C   UNL     1      -4.320  12.995  23.324  0.00  0.00    +0.000 C 
ATOM      7  C   UNL     1      -5.906  16.262  22.073  0.00  0.00    +0.000 C 
ATOM      8  O   UNL     1      -5.023  17.013  22.457  0.00  0.00    +0.000 OA
ATOM      9  N   UNL     1      -7.117  16.701  21.594  0.00  0.00    +0.000 N 
ATOM     10  C   UNL     1      -7.912  15.662  21.025  0.00  0.00    +0.000 C 
ATOM     11  C   UNL     1      -7.331  14.372  21.617  0.00  0.00    +0.000 C 
ATOM     12  H   UNL     1      -7.278  17.697  21.475  0.00  0.00    +0.000 HD
ENDROOT
BRANCH  11  13
ATOM     13  C   UNL     1      -7.489  13.111  20.782  0.00  0.00    +0.000 A 
ATOM     14  C   UNL     1      -7.363  13.116  19.380  0.00  0.00    +0.000 A 
ATOM     15  C   UNL     1      -7.176  11.926  18.676  0.00  0.00    +0.000 A 
ATOM     16  C   UNL     1      -7.153  10.722  19.363  0.00  0.00    +0.000 A 
ATOM     17  F   UNL     1      -6.880   9.592  18.698  0.00  0.00    +0.000 F 
ATOM     18  C   UNL     1      -7.372  10.679  20.733  0.00  0.00    +0.000 A 
ATOM     19  C   UNL     1      -7.557  11.870  21.442  0.00  0.00    +0.000 A 
ENDBRANCH  11  13
BRANCH   1  20
ATOM     20  C   UNL     1      -2.070  13.736  22.051  0.00  0.00    +0.000 C 
ATOM     21  C   UNL     1      -0.392  13.872  22.500  0.00  0.00    +0.000 C 
ATOM     22  C   UNL     1       0.195  15.302  22.185  0.00  0.00    +0.000 C 
ATOM     23  C   UNL     1      -0.470  16.419  22.965  0.00  0.00    +0.000 C 
ATOM     24  C   UNL     1      -1.950  16.257  22.809  0.00  0.00    +0.000 C 
ATOM     25  C   UNL     1      -2.287  14.831  23.167  0.00  0.00    +0.000 C 
BRANCH  20  30
ATOM     26  C   UNL     1      -0.533  10.480  20.569  0.00  0.00    +0.000 A 
ATOM     27  C   UNL     1      -0.547  10.760  19.200  0.00  0.00    +0.000 A 
ATOM     28  C   UNL     1      -0.968  12.013  18.742  0.00  0.00    +0.000 A 
ATOM     29  C   UNL     1      -1.410  13.006  19.632  0.00  0.00    +0.000 A 
ATOM     30  C   UNL     1      -1.435  12.751  21.008  0.00  0.00    +0.000 A 
ATOM     31  C   UNL     1      -0.987  11.456  21.456  0.00  0.00    +0.000 A 
BRANCH  26  33
ATOM     32  N   UNL     1       0.221   8.133  21.450  0.00  0.00    +0.000 NA
ATOM     33  C   UNL     1      -0.112   9.171  21.054  0.00  0.00    +0.000 C 
ENDBRANCH  26  33
ENDBRANCH  20  30
ENDBRANCH   1  20
TORSDOF 4
ENDMDL
MODEL 8
REMARK VINA RESULT:      -6.1      4.142      7.751
REMARK  Name = 
REMARK  4 active torsions:
REMARK  status: ('A' for Active; 'I' for Inactive)
REMARK    1  A    between atoms: C_2  and  C_3
REMARK    2  A    between atoms: C_7  and  C_8
REMARK    3  A    between atoms: C_8  and  N_9
REMARK    4  A    between atoms: C_19  and  C_20
REMARK                            x       y       z     vdW  Elec       q    Type
REMARK                         _______ _______ _______ _____ _____    ______ ____
ROOT
ATOM      1  N   UNL     1      -0.304  13.194  19.847  0.00  0.00    +0.000 NA
ATOM      2  C   UNL     1      -0.430  14.297  18.851  0.00  0.00    +0.000 C 
ATOM      3  C   UNL     1       0.859  14.536  18.076  0.00  0.00    +0.000 C 
ATOM      4  C   UNL     1       1.993  15.050  18.983  0.00  0.00    +0.000 C 
ATOM      5  C   UNL     1       1.968  14.393  20.394  0.00  0.00    +0.000 C 
ATOM      6  C   UNL     1       0.627  13.727  20.864  0.00  0.00    +0.000 C 
ATOM      7  C   UNL     1       3.307  14.676  18.281  0.00  0.00    +0.000 C 
ATOM      8  O   UNL     1       3.750  13.552  18.107  0.00  0.00    +0.000 OA
ATOM      9  N   UNL     1       3.906  15.809  17.788  0.00  0.00    +0.000 N 
ATOM     10  C   UNL     1       3.114  16.985  17.947  0.00  0.00    +0.000 C 
ATOM     11  C   UNL     1       2.117  16.624  19.056  0.00  0.00    +0.000 C 
ATOM     12  H   UNL     1       4.718  15.726  17.185  0.00  0.00    +0.000 HD
ENDROOT
BRANCH  11  13
ATOM     13  C   UNL     1       0.782  17.352  19.032  0.00  0.00    +0.000 A 
ATOM     14  C   UNL     1       0.183  17.787  17.835  0.00  0.00    +0.000 A 
ATOM     15  C   UNL     1      -1.166  18.140  17.799  0.00  0.00    +0.000 A 
ATOM     16  C   UNL     1      -1.914  18.098  18.965  0.00  0.00    +0.000 A 
ATOM     17  F   UNL     1      -3.230  18.347  18.911  0.00  0.00    +0.000 F 
ATOM     18  C   UNL     1      -1.326  17.767  20.178  0.00  0.00    +0.000 A 
ATOM     19  C   UNL     1       0.025  17.409  20.217  0.00  0.00    +0.000 A 
ENDBRANCH  11  13
BRANCH   1  20
ATOM     20  C   UNL     1      -0.203  11.839  19.139  0.00  0.00    +0.000 C 
ATOM     21  C   UNL     1      -0.419  10.118  19.292  0.00  0.00    +0.000 C 
ATOM     22  C   UNL     1       0.296   9.321  18.132  0.00  0.00    +0.000 C 
ATOM     23  C   UNL     1       1.804   9.488  18.120  0.00  0.00    +0.000 C 
ATOM     24  C   UNL     1       2.095  10.954  18.200  0.00  0.00    +0.000 C 
ATOM     25  C   UNL     1       1.322  11.503  19.373  0.00  0.00    +0.000 C 
BRANCH  20  30
ATOM     26  C   UNL     1      -4.040  12.196  19.694  0.00  0.00    +0.000 A 
ATOM     27  C   UNL     1      -4.537  11.899  18.422  0.00  0.00    +0.000 A 
ATOM     28  C   UNL     1      -3.667  11.504  17.401  0.00  0.00    +0.000 A 
ATOM     29  C   UNL     1      -2.280  11.423  17.612  0.00  0.00    +0.000 A 
ATOM     30  C   UNL     1      -1.745  11.739  18.866  0.00  0.00    +0.000 A 
ATOM     31  C   UNL     1      -2.663  12.134  19.905  0.00  0.00    +0.000 A 
BRANCH  26  33
ATOM     32  N   UNL     1      -5.646  12.961  21.615  0.00  0.00    +0.000 NA
ATOM     33  C   UNL     1      -4.939  12.624  20.760  0.00  0.00    +0.000 C 
ENDBRANCH  26  33
ENDBRANCH  20  30
ENDBRANCH   1  20
TORSDOF 4
ENDMDL
MODEL 9
REMARK VINA RESULT:      -6.1      3.353      6.621
REMARK  Name = 
REMARK  4 active torsions:
REMARK  status: ('A' for Active; 'I' for Inactive)
REMARK    1  A    between atoms: C_2  and  C_3
REMARK    2  A    between atoms: C_7  and  C_8
REMARK    3  A    between atoms: C_8  and  N_9
REMARK    4  A    between atoms: C_19  and  C_20
REMARK                            x       y       z     vdW  Elec       q    Type
REMARK                         _______ _______ _______ _____ _____    ______ ____
ROOT
ATOM      1  N   UNL     1      -5.360  15.180  20.871  0.00  0.00    +0.000 NA
ATOM      2  C   UNL     1      -3.919  14.923  20.585  0.00  0.00    +0.000 C 
ATOM      3  C   UNL     1      -3.168  14.390  21.799  0.00  0.00    +0.000 C 
ATOM      4  C   UNL     1      -3.090  15.429  22.933  0.00  0.00    +0.000 C 
ATOM      5  C   UNL     1      -4.390  16.277  23.052  0.00  0.00    +0.000 C 
ATOM      6  C   UNL     1      -5.346  16.324  21.809  0.00  0.00    +0.000 C 
ATOM      7  C   UNL     1      -2.891  14.634  24.232  0.00  0.00    +0.000 C 
ATOM      8  O   UNL     1      -3.697  13.889  24.765  0.00  0.00    +0.000 OA
ATOM      9  N   UNL     1      -1.610  14.817  24.694  0.00  0.00    +0.000 N 
ATOM     10  C   UNL     1      -0.790  15.578  23.807  0.00  0.00    +0.000 C 
ATOM     11  C   UNL     1      -1.789  16.327  22.916  0.00  0.00    +0.000 C 
ATOM     12  H   UNL     1      -1.273  14.260  25.473  0.00  0.00    +0.000 HD
ENDROOT
BRANCH  11  13
ATOM     13  C   UNL     1      -1.309  16.696  21.521  0.00  0.00    +0.000 A 
ATOM     14  C   UNL     1      -0.389  15.905  20.808  0.00  0.00    +0.000 A 
ATOM     15  C   UNL     1      -0.223  16.069  19.432  0.00  0.00    +0.000 A 
ATOM     16  C   UNL     1      -0.945  17.048  18.768  0.00  0.00    +0.000 A 
ATOM     17  F   UNL     1      -0.854  17.141  17.435  0.00  0.00    +0.000 F 
ATOM     18  C   UNL     1      -1.786  17.907  19.462  0.00  0.00    +0.000 A 
ATOM     19  C   UNL     1      -1.957  17.743  20.841  0.00  0.00    +0.000 A 
ENDBRANCH  11  13
BRANCH   1  20
ATOM     20  C   UNL     1      -6.117  13.861  21.054  0.00  0.00    +0.000 C 
ATOM     21  C   UNL     1      -7.613  13.012  20.780  0.00  0.00    +0.000 C 
ATOM     22  C   UNL     1      -7.723  11.701  21.652  0.00  0.00    +0.000 C 
ATOM     23  C   UNL     1      -7.733  11.963  23.146  0.00  0.00    +0.000 C 
ATOM     24  C   UNL     1      -6.584  12.872  23.452  0.00  0.00    +0.000 C 
ATOM     25  C   UNL     1      -6.682  14.051  22.516  0.00  0.00    +0.000 C 
BRANCH  20  30
ATOM     26  C   UNL     1      -4.898  11.709  18.046  0.00  0.00    +0.000 A 
ATOM     27  C   UNL     1      -5.631  12.261  16.991  0.00  0.00    +0.000 A 
ATOM     28  C   UNL     1      -6.454  13.370  17.210  0.00  0.00    +0.000 A 
ATOM     29  C   UNL     1      -6.590  13.939  18.487  0.00  0.00    +0.000 A 
ATOM     30  C   UNL     1      -5.893  13.397  19.572  0.00  0.00    +0.000 A 
ATOM     31  C   UNL     1      -5.043  12.260  19.320  0.00  0.00    +0.000 A 
BRANCH  26  33
ATOM     32  N   UNL     1      -3.368   9.620  17.665  0.00  0.00    +0.000 NA
ATOM     33  C   UNL     1      -4.050  10.543  17.831  0.00  0.00    +0.000 C 
ENDBRANCH  26  33
ENDBRANCH  20  30
ENDBRANCH   1  20
TORSDOF 4
ENDMDL
