MODEL 1
REMARK VINA RESULT:      -8.5      0.000      0.000
REMARK  Name = 
REMARK  3 active torsions:
REMARK  status: ('A' for Active; 'I' for Inactive)
REMARK    1  A    between atoms: C_3  and  C_4
REMARK    2  A    between atoms: C_9  and  C_10
REMARK    3  A    between atoms: C_20  and  C_21
REMARK                            x       y       z     vdW  Elec       q    Type
REMARK                         _______ _______ _______ _____ _____    ______ ____
ROOT
ATOM      1  C   UNL     1       1.312   8.012  20.574  0.00  0.00    +0.000 A 
ATOM      2  C   UNL     1       1.490   6.694  20.935  0.00  0.00    +0.000 A 
ATOM      3  C   UNL     1       2.319   6.095  19.972  0.00  0.00    +0.000 A 
ATOM      4  C   UNL     1       2.842   4.809  19.837  0.00  0.00    +0.000 A 
ATOM      5  C   UNL     1       3.665   4.544  18.748  0.00  0.00    +0.000 A 
ATOM      6  C   UNL     1       3.976   5.522  17.787  0.00  0.00    +0.000 A 
ATOM      7  C   UNL     1       3.446   6.833  17.903  0.00  0.00    +0.000 A 
ATOM      8  C   UNL     1       2.620   7.072  19.026  0.00  0.00    +0.000 A 
ATOM      9  O   UNL     1       1.996   8.255  19.396  0.00  0.00    +0.000 OA
ENDROOT
BRANCH   1  12
ATOM     10  C   UNL     1      -0.604  11.252  21.099  0.00  0.00    +0.000 A 
ATOM     11  C   UNL     1       0.189  10.243  20.528  0.00  0.00    +0.000 A 
ATOM     12  C   UNL     1       0.607   9.107  21.263  0.00  0.00    +0.000 A 
ATOM     13  C   UNL     1       0.263   9.056  22.613  0.00  0.00    +0.000 A 
ATOM     14  C   UNL     1      -0.529  10.063  23.187  0.00  0.00    +0.000 A 
ATOM     15  C   UNL     1      -0.995  11.149  22.432  0.00  0.00    +0.000 A 
BRANCH  15  16
ATOM     16  C   UNL     1      -1.908  12.145  23.072  0.00  0.00    +0.000 C 
ATOM     17  N   UNL     1      -1.516  13.379  23.242  0.00  0.00    +0.000 NA
ATOM     18  C   UNL     1      -2.615  14.052  23.985  0.00  0.00    +0.000 C 
ATOM     19  C   UNL     1      -3.726  13.021  24.170  0.00  0.00    +0.000 C 
ATOM     20  N   UNL     1      -3.169  11.841  23.534  0.00  0.00    +0.000 N 
ATOM     21  H   UNL     1      -3.275  10.972  24.041  0.00  0.00    +0.000 HD
ENDBRANCH  15  16
ENDBRANCH   1  12
BRANCH   6  22
ATOM     22  C   UNL     1       4.887   5.047  16.693  0.00  0.00    +0.000 C 
ATOM     23  N   UNL     1       5.269   5.896  15.767  0.00  0.00    +0.000 NA
ATOM     24  C   UNL     1       6.042   5.125  14.775  0.00  0.00    +0.000 C 
ATOM     25  C   UNL     1       6.132   3.697  15.311  0.00  0.00    +0.000 C 
ATOM     26  N   UNL     1       5.364   3.768  16.547  0.00  0.00    +0.000 N 
ATOM     27  H   UNL     1       4.709   3.012  16.711  0.00  0.00    +0.000 HD
ENDBRANCH   6  22
TORSDOF 3
ENDMDL
MODEL 2
REMARK VINA RESULT:      -8.4      0.256      1.097
REMARK  Name = 
REMARK  3 active torsions:
REMARK  status: ('A' for Active; 'I' for Inactive)
REMARK    1  A    between atoms: C_3  and  C_4
REMARK    2  A    between atoms: C_9  and  C_10
REMARK    3  A    between atoms: C_20  and  C_21
REMARK                            x       y       z     vdW  Elec       q    Type
REMARK                         _______ _______ _______ _____ _____    ______ ____
ROOT
ATOM      1  C   UNL     1       1.304   8.123  20.548  0.00  0.00    +0.000 A 
ATOM      2  C   UNL     1       1.508   6.802  20.881  0.00  0.00    +0.000 A 
ATOM      3  C   UNL     1       2.329   6.234  19.893  0.00  0.00    +0.000 A 
ATOM      4  C   UNL     1       2.869   4.958  19.725  0.00  0.00    +0.000 A 
ATOM      5  C   UNL     1       3.677   4.727  18.616  0.00  0.00    +0.000 A 
ATOM      6  C   UNL     1       3.956   5.727  17.668  0.00  0.00    +0.000 A 
ATOM      7  C   UNL     1       3.408   7.027  17.818  0.00  0.00    +0.000 A 
ATOM      8  C   UNL     1       2.599   7.233  18.959  0.00  0.00    +0.000 A 
ATOM      9  O   UNL     1       1.964   8.399  19.362  0.00  0.00    +0.000 OA
ENDROOT
BRANCH   1  12
ATOM     10  C   UNL     1      -0.465  11.423  21.201  0.00  0.00    +0.000 A 
ATOM     11  C   UNL     1       0.324  10.420  20.614  0.00  0.00    +0.000 A 
ATOM     12  C   UNL     1       0.595   9.195  21.269  0.00  0.00    +0.000 A 
ATOM     13  C   UNL     1       0.108   9.041  22.567  0.00  0.00    +0.000 A 
ATOM     14  C   UNL     1      -0.681  10.042  23.157  0.00  0.00    +0.000 A 
ATOM     15  C   UNL     1      -1.000  11.223  22.472  0.00  0.00    +0.000 A 
BRANCH  15  16
ATOM     16  C   UNL     1      -1.917  12.214  23.114  0.00  0.00    +0.000 C 
ATOM     17  N   UNL     1      -3.079  11.833  23.570  0.00  0.00    +0.000 NA
ATOM     18  C   UNL     1      -3.754  13.072  24.039  0.00  0.00    +0.000 C 
ATOM     19  C   UNL     1      -2.773  14.222  23.828  0.00  0.00    +0.000 C 
ATOM     20  N   UNL     1      -1.626  13.554  23.242  0.00  0.00    +0.000 N 
ATOM     21  H   UNL     1      -1.206  14.012  22.444  0.00  0.00    +0.000 HD
ENDBRANCH  15  16
ENDBRANCH   1  12
BRANCH   6  22
ATOM     22  C   UNL     1       4.854   5.287  16.550  0.00  0.00    +0.000 C 
ATOM     23  N   UNL     1       4.885   4.017  16.217  0.00  0.00    +0.000 NA
ATOM     24  C   UNL     1       5.933   3.871  15.190  0.00  0.00    +0.000 C 
ATOM     25  C   UNL     1       6.459   5.277  14.904  0.00  0.00    +0.000 C 
ATOM     26  N   UNL     1       5.690   6.102  15.826  0.00  0.00    +0.000 N 
ATOM     27  H   UNL     1       6.210   6.801  16.343  0.00  0.00    +0.000 HD
ENDBRANCH   6  22
TORSDOF 3
ENDMDL
MODEL 3
REMARK VINA RESULT:      -8.2      0.470      1.091
REMARK  Name = 
REMARK  3 active torsions:
REMARK  status: ('A' for Active; 'I' for Inactive)
REMARK    1  A    between atoms: C_3  and  C_4
REMARK    2  A    between atoms: C_9  and  C_10
REMARK    3  A    between atoms: C_20  and  C_21
REMARK                            x       y       z     vdW  Elec       q    Type
REMARK                         _______ _______ _______ _____ _____    ______ ____
ROOT
ATOM      1  C   UNL     1       1.191   8.195  20.453  0.00  0.00    +0.000 A 
ATOM      2  C   UNL     1       1.467   6.932  20.929  0.00  0.00    +0.000 A 
ATOM      3  C   UNL     1       2.322   6.305  20.008  0.00  0.00    +0.000 A 
ATOM      4  C   UNL     1       2.932   5.051  19.981  0.00  0.00    +0.000 A 
ATOM      5  C   UNL     1       3.757   4.744  18.903  0.00  0.00    +0.000 A 
ATOM      6  C   UNL     1       3.985   5.647  17.851  0.00  0.00    +0.000 A 
ATOM      7  C   UNL     1       3.366   6.923  17.857  0.00  0.00    +0.000 A 
ATOM      8  C   UNL     1       2.541   7.208  18.970  0.00  0.00    +0.000 A 
ATOM      9  O   UNL     1       1.841   8.375  19.243  0.00  0.00    +0.000 OA
ENDROOT
BRANCH   1  12
ATOM     10  C   UNL     1      -0.696  10.238  23.043  0.00  0.00    +0.000 A 
ATOM     11  C   UNL     1      -0.075   9.171  22.373  0.00  0.00    +0.000 A 
ATOM     12  C   UNL     1       0.421   9.299  21.052  0.00  0.00    +0.000 A 
ATOM     13  C   UNL     1       0.205  10.513  20.401  0.00  0.00    +0.000 A 
ATOM     14  C   UNL     1      -0.417  11.581  21.069  0.00  0.00    +0.000 A 
ATOM     15  C   UNL     1      -0.842  11.465  22.400  0.00  0.00    +0.000 A 
BRANCH  15  16
ATOM     16  C   UNL     1      -1.416  12.662  23.090  0.00  0.00    +0.000 C 
ATOM     17  N   UNL     1      -0.647  13.669  23.402  0.00  0.00    +0.000 NA
ATOM     18  C   UNL     1      -1.511  14.619  24.152  0.00  0.00    +0.000 C 
ATOM     19  C   UNL     1      -2.915  14.019  24.178  0.00  0.00    +0.000 C 
ATOM     20  N   UNL     1      -2.738  12.772  23.456  0.00  0.00    +0.000 N 
ATOM     21  H   UNL     1      -3.171  11.956  23.869  0.00  0.00    +0.000 HD
ENDBRANCH  15  16
ENDBRANCH   1  12
BRANCH   6  22
ATOM     22  C   UNL     1       4.912   5.137  16.787  0.00  0.00    +0.000 C 
ATOM     23  N   UNL     1       5.245   5.931  15.796  0.00  0.00    +0.000 NA
ATOM     24  C   UNL     1       6.050   5.127  14.857  0.00  0.00    +0.000 C 
ATOM     25  C   UNL     1       6.214   3.749  15.498  0.00  0.00    +0.000 C 
ATOM     26  N   UNL     1       5.451   3.875  16.732  0.00  0.00    +0.000 N 
ATOM     27  H   UNL     1       4.836   3.103  16.959  0.00  0.00    +0.000 HD
ENDBRANCH   6  22
TORSDOF 3
ENDMDL
MODEL 4
REMARK VINA RESULT:      -8.2      1.036     10.019
REMARK  Name = 
REMARK  3 active torsions:
REMARK  status: ('A' for Active; 'I' for Inactive)
REMARK    1  A    between atoms: C_3  and  C_4
REMARK    2  A    between atoms: C_9  and  C_10
REMARK    3  A    between atoms: C_20  and  C_21
REMARK                            x       y       z     vdW  Elec       q    Type
REMARK                         _______ _______ _______ _____ _____    ______ ____
ROOT
ATOM      1  C   UNL     1       1.485   8.444  20.147  0.00  0.00    +0.000 A 
ATOM      2  C   UNL     1       1.249   8.277  21.494  0.00  0.00    +0.000 A 
ATOM      3  C   UNL     1       0.360   9.286  21.900  0.00  0.00    +0.000 A 
ATOM      4  C   UNL     1      -0.234   9.591  23.126  0.00  0.00    +0.000 A 
ATOM      5  C   UNL     1      -1.104  10.674  23.183  0.00  0.00    +0.000 A 
ATOM      6  C   UNL     1      -1.394  11.466  22.058  0.00  0.00    +0.000 A 
ATOM      7  C   UNL     1      -0.792  11.176  20.806  0.00  0.00    +0.000 A 
ATOM      8  C   UNL     1       0.080  10.063  20.779  0.00  0.00    +0.000 A 
ATOM      9  O   UNL     1       0.777   9.546  19.696  0.00  0.00    +0.000 OA
ENDROOT
BRANCH   1  12
ATOM     10  C   UNL     1       3.595   7.519  17.124  0.00  0.00    +0.000 A 
ATOM     11  C   UNL     1       2.732   8.204  17.995  0.00  0.00    +0.000 A 
ATOM     12  C   UNL     1       2.268   7.628  19.203  0.00  0.00    +0.000 A 
ATOM     13  C   UNL     1       2.641   6.311  19.468  0.00  0.00    +0.000 A 
ATOM     14  C   UNL     1       3.503   5.623  18.599  0.00  0.00    +0.000 A 
ATOM     15  C   UNL     1       4.012   6.229  17.440  0.00  0.00    +0.000 A 
BRANCH  15  16
ATOM     16  C   UNL     1       4.996   5.482  16.598  0.00  0.00    +0.000 C 
ATOM     17  N   UNL     1       4.880   4.191  16.445  0.00  0.00    +0.000 NA
ATOM     18  C   UNL     1       6.064   3.772  15.647  0.00  0.00    +0.000 C 
ATOM     19  C   UNL     1       6.853   5.038  15.321  0.00  0.00    +0.000 C 
ATOM     20  N   UNL     1       6.069   6.073  15.970  0.00  0.00    +0.000 N 
ATOM     21  H   UNL     1       6.591   6.758  16.499  0.00  0.00    +0.000 HD
ENDBRANCH  15  16
ENDBRANCH   1  12
BRANCH   6  22
ATOM     22  C   UNL     1      -2.362  12.582  22.318  0.00  0.00    +0.000 C 
ATOM     23  N   UNL     1      -3.546  12.298  22.808  0.00  0.00    +0.000 NA
ATOM     24  C   UNL     1      -4.309  13.560  22.838  0.00  0.00    +0.000 C 
ATOM     25  C   UNL     1      -3.353  14.655  22.366  0.00  0.00    +0.000 C 
ATOM     26  N   UNL     1      -2.135  13.913  22.070  0.00  0.00    +0.000 N 
ATOM     27  H   UNL     1      -1.670  14.145  21.200  0.00  0.00    +0.000 HD
ENDBRANCH   6  22
TORSDOF 3
ENDMDL
MODEL 5
REMARK VINA RESULT:      -8.1      0.994      9.986
REMARK  Name = 
REMARK  3 active torsions:
REMARK  status: ('A' for Active; 'I' for Inactive)
REMARK    1  A    between atoms: C_3  and  C_4
REMARK    2  A    between atoms: C_9  and  C_10
REMARK    3  A    between atoms: C_20  and  C_21
REMARK                            x       y       z     vdW  Elec       q    Type
REMARK                         _______ _______ _______ _____ _____    ______ ____
ROOT
ATOM      1  C   UNL     1       1.487   8.441  20.168  0.00  0.00    +0.000 A 
ATOM      2  C   UNL     1       1.219   8.252  21.506  0.00  0.00    +0.000 A 
ATOM      3  C   UNL     1       0.350   9.276  21.917  0.00  0.00    +0.000 A 
ATOM      4  C   UNL     1      -0.259   9.572  23.137  0.00  0.00    +0.000 A 
ATOM      5  C   UNL     1      -1.099  10.678  23.202  0.00  0.00    +0.000 A 
ATOM      6  C   UNL     1      -1.344  11.501  22.089  0.00  0.00    +0.000 A 
ATOM      7  C   UNL     1      -0.725  11.222  20.843  0.00  0.00    +0.000 A 
ATOM      8  C   UNL     1       0.116  10.086  20.808  0.00  0.00    +0.000 A 
ATOM      9  O   UNL     1       0.819   9.572  19.728  0.00  0.00    +0.000 OA
ENDROOT
BRANCH   1  12
ATOM     10  C   UNL     1       3.559   7.505  17.122  0.00  0.00    +0.000 A 
ATOM     11  C   UNL     1       2.701   8.190  17.999  0.00  0.00    +0.000 A 
ATOM     12  C   UNL     1       2.265   7.623  19.221  0.00  0.00    +0.000 A 
ATOM     13  C   UNL     1       2.661   6.315  19.498  0.00  0.00    +0.000 A 
ATOM     14  C   UNL     1       3.519   5.628  18.623  0.00  0.00    +0.000 A 
ATOM     15  C   UNL     1       3.999   6.225  17.449  0.00  0.00    +0.000 A 
BRANCH  15  16
ATOM     16  C   UNL     1       4.980   5.481  16.600  0.00  0.00    +0.000 C 
ATOM     17  N   UNL     1       5.812   6.134  15.835  0.00  0.00    +0.000 NA
ATOM     18  C   UNL     1       6.556   5.096  15.071  0.00  0.00    +0.000 C 
ATOM     19  C   UNL     1       6.053   3.739  15.556  0.00  0.00    +0.000 C 
ATOM     20  N   UNL     1       5.055   4.107  16.544  0.00  0.00    +0.000 N 
ATOM     21  H   UNL     1       4.181   3.600  16.501  0.00  0.00    +0.000 HD
ENDBRANCH  15  16
ENDBRANCH   1  12
BRANCH   6  22
ATOM     22  C   UNL     1      -2.286  12.639  22.355  0.00  0.00    +0.000 C 
ATOM     23  N   UNL     1      -1.915  13.597  23.171  0.00  0.00    +0.000 NA
ATOM     24  C   UNL     1      -3.076  14.494  23.331  0.00  0.00    +0.000 C 
ATOM     25  C   UNL     1      -4.167  13.958  22.406  0.00  0.00    +0.000 C 
ATOM     26  N   UNL     1      -3.546  12.775  21.826  0.00  0.00    +0.000 N 
ATOM     27  H   UNL     1      -4.120  11.941  21.788  0.00  0.00    +0.000 HD
ENDBRANCH   6  22
TORSDOF 3
ENDMDL
MODEL 6
REMARK VINA RESULT:      -8.1      1.653      2.531
REMARK  Name = 
REMARK  3 active torsions:
REMARK  status: ('A' for Active; 'I' for Inactive)
REMARK    1  A    between atoms: C_3  and  C_4
REMARK    2  A    between atoms: C_9  and  C_10
REMARK    3  A    between atoms: C_20  and  C_21
REMARK                            x       y       z     vdW  Elec       q    Type
REMARK                         _______ _______ _______ _____ _____    ______ ____
ROOT
ATOM      1  C   UNL     1       2.599   7.187  18.710  0.00  0.00    +0.000 A 
ATOM      2  C   UNL     1       2.760   5.828  18.867  0.00  0.00    +0.000 A 
ATOM      3  C   UNL     1       3.616   5.378  17.848  0.00  0.00    +0.000 A 
ATOM      4  C   UNL     1       4.137   4.122  17.531  0.00  0.00    +0.000 A 
ATOM      5  C   UNL     1       4.992   4.022  16.438  0.00  0.00    +0.000 A 
ATOM      6  C   UNL     1       5.337   5.134  15.650  0.00  0.00    +0.000 A 
ATOM      7  C   UNL     1       4.809   6.415  15.952  0.00  0.00    +0.000 A 
ATOM      8  C   UNL     1       3.950   6.486  17.073  0.00  0.00    +0.000 A 
ATOM      9  O   UNL     1       3.321   7.603  17.603  0.00  0.00    +0.000 OA
ENDROOT
BRANCH   1  12
ATOM     10  C   UNL     1       0.641  10.301  19.664  0.00  0.00    +0.000 A 
ATOM     11  C   UNL     1       1.449   9.390  18.963  0.00  0.00    +0.000 A 
ATOM     12  C   UNL     1       1.879   8.169  19.538  0.00  0.00    +0.000 A 
ATOM     13  C   UNL     1       1.533   7.930  20.867  0.00  0.00    +0.000 A 
ATOM     14  C   UNL     1       0.726   8.840  21.571  0.00  0.00    +0.000 A 
ATOM     15  C   UNL     1       0.249  10.012  20.969  0.00  0.00    +0.000 A 
BRANCH  15  16
ATOM     16  C   UNL     1      -0.680  10.901  21.735  0.00  0.00    +0.000 C 
ATOM     17  N   UNL     1      -0.775  10.785  23.031  0.00  0.00    +0.000 NA
ATOM     18  C   UNL     1      -1.843  11.735  23.443  0.00  0.00    +0.000 C 
ATOM     19  C   UNL     1      -2.312  12.454  22.180  0.00  0.00    +0.000 C 
ATOM     20  N   UNL     1      -1.488  11.848  21.150  0.00  0.00    +0.000 N 
ATOM     21  H   UNL     1      -1.967  11.582  20.299  0.00  0.00    +0.000 HD
ENDBRANCH  15  16
ENDBRANCH   1  12
BRANCH   6  22
ATOM     22  C   UNL     1       6.278   4.826  14.523  0.00  0.00    +0.000 C 
ATOM     23  N   UNL     1       7.396   5.506  14.420  0.00  0.00    +0.000 NA
ATOM     24  C   UNL     1       8.044   5.076  13.167  0.00  0.00    +0.000 C 
ATOM     25  C   UNL     1       7.171   3.964  12.588  0.00  0.00    +0.000 C 
ATOM     26  N   UNL     1       6.075   3.884  13.544  0.00  0.00    +0.000 N 
ATOM     27  H   UNL     1       5.142   3.823  13.152  0.00  0.00    +0.000 HD
ENDBRANCH   6  22
TORSDOF 3
ENDMDL
MODEL 7
REMARK VINA RESULT:      -8.0      7.514     10.850
REMARK  Name = 
REMARK  3 active torsions:
REMARK  status: ('A' for Active; 'I' for Inactive)
REMARK    1  A    between atoms: C_3  and  C_4
REMARK    2  A    between atoms: C_9  and  C_10
REMARK    3  A    between atoms: C_20  and  C_21
REMARK                            x       y       z     vdW  Elec       q    Type
REMARK                         _______ _______ _______ _____ _____    ______ ____
ROOT
ATOM      1  C   UNL     1       8.604   9.342  18.378  0.00  0.00    +0.000 A 
ATOM      2  C   UNL     1       9.399   9.727  19.436  0.00  0.00    +0.000 A 
ATOM      3  C   UNL     1       9.807  11.052  19.203  0.00  0.00    +0.000 A 
ATOM      4  C   UNL     1      10.590  11.946  19.934  0.00  0.00    +0.000 A 
ATOM      5  C   UNL     1      10.789  13.221  19.415  0.00  0.00    +0.000 A 
ATOM      6  C   UNL     1      10.237  13.627  18.188  0.00  0.00    +0.000 A 
ATOM      7  C   UNL     1       9.446  12.729  17.427  0.00  0.00    +0.000 A 
ATOM      8  C   UNL     1       9.255  11.443  17.986  0.00  0.00    +0.000 A 
ATOM      9  O   UNL     1       8.514  10.387  17.475  0.00  0.00    +0.000 OA
ENDROOT
BRANCH   1  12
ATOM     10  C   UNL     1       7.480   5.730  18.748  0.00  0.00    +0.000 A 
ATOM     11  C   UNL     1       8.238   6.910  18.821  0.00  0.00    +0.000 A 
ATOM     12  C   UNL     1       7.853   8.095  18.149  0.00  0.00    +0.000 A 
ATOM     13  C   UNL     1       6.719   8.033  17.340  0.00  0.00    +0.000 A 
ATOM     14  C   UNL     1       5.959   6.854  17.264  0.00  0.00    +0.000 A 
ATOM     15  C   UNL     1       6.313   5.707  17.989  0.00  0.00    +0.000 A 
BRANCH  15  16
ATOM     16  C   UNL     1       5.419   4.509  17.942  0.00  0.00    +0.000 C 
ATOM     17  N   UNL     1       4.674   4.289  16.893  0.00  0.00    +0.000 NA
ATOM     18  C   UNL     1       3.854   3.093  17.224  0.00  0.00    +0.000 C 
ATOM     19  C   UNL     1       4.285   2.628  18.614  0.00  0.00    +0.000 C 
ATOM     20  N   UNL     1       5.300   3.601  18.970  0.00  0.00    +0.000 N 
ATOM     21  H   UNL     1       5.247   3.975  19.909  0.00  0.00    +0.000 HD
ENDBRANCH  15  16
ENDBRANCH   1  12
BRANCH   6  22
ATOM     22  C   UNL     1      10.556  15.042  17.803  0.00  0.00    +0.000 C 
ATOM     23  N   UNL     1      11.780  15.488  17.967  0.00  0.00    +0.000 NA
ATOM     24  C   UNL     1      11.760  16.922  17.626  0.00  0.00    +0.000 C 
ATOM     25  C   UNL     1      10.343  17.234  17.146  0.00  0.00    +0.000 C 
ATOM     26  N   UNL     1       9.664  15.955  17.295  0.00  0.00    +0.000 N 
ATOM     27  H   UNL     1       8.744  15.982  17.719  0.00  0.00    +0.000 HD
ENDBRANCH   6  22
TORSDOF 3
ENDMDL
MODEL 8
REMARK VINA RESULT:      -7.9      1.836      2.390
REMARK  Name = 
REMARK  3 active torsions:
REMARK  status: ('A' for Active; 'I' for Inactive)
REMARK    1  A    between atoms: C_3  and  C_4
REMARK    2  A    between atoms: C_9  and  C_10
REMARK    3  A    between atoms: C_20  and  C_21
REMARK                            x       y       z     vdW  Elec       q    Type
REMARK                         _______ _______ _______ _____ _____    ______ ____
ROOT
ATOM      1  C   UNL     1       1.026   8.832  20.604  0.00  0.00    +0.000 A 
ATOM      2  C   UNL     1       1.642   8.901  19.374  0.00  0.00    +0.000 A 
ATOM      3  C   UNL     1       2.190   7.637  19.099  0.00  0.00    +0.000 A 
ATOM      4  C   UNL     1       2.896   7.125  18.009  0.00  0.00    +0.000 A 
ATOM      5  C   UNL     1       3.287   5.790  18.048  0.00  0.00    +0.000 A 
ATOM      6  C   UNL     1       3.002   4.956  19.142  0.00  0.00    +0.000 A 
ATOM      7  C   UNL     1       2.294   5.462  20.263  0.00  0.00    +0.000 A 
ATOM      8  C   UNL     1       1.902   6.819  20.189  0.00  0.00    +0.000 A 
ATOM      9  O   UNL     1       1.186   7.557  21.119  0.00  0.00    +0.000 OA
ENDROOT
BRANCH   1  12
ATOM     10  C   UNL     1      -1.049  11.944  21.279  0.00  0.00    +0.000 A 
ATOM     11  C   UNL     1      -0.178  11.020  20.678  0.00  0.00    +0.000 A 
ATOM     12  C   UNL     1       0.231   9.834  21.335  0.00  0.00    +0.000 A 
ATOM     13  C   UNL     1      -0.203   9.646  22.646  0.00  0.00    +0.000 A 
ATOM     14  C   UNL     1      -1.073  10.569  23.250  0.00  0.00    +0.000 A 
ATOM     15  C   UNL     1      -1.527  11.705  22.565  0.00  0.00    +0.000 A 
BRANCH  15  16
ATOM     16  C   UNL     1      -2.522  12.606  23.224  0.00  0.00    +0.000 C 
ATOM     17  N   UNL     1      -2.152  13.776  23.669  0.00  0.00    +0.000 NA
ATOM     18  C   UNL     1      -3.348  14.348  24.342  0.00  0.00    +0.000 C 
ATOM     19  C   UNL     1      -4.483  13.341  24.168  0.00  0.00    +0.000 C 
ATOM     20  N   UNL     1      -3.842  12.271  23.425  0.00  0.00    +0.000 N 
ATOM     21  H   UNL     1      -4.034  11.331  23.748  0.00  0.00    +0.000 HD
ENDBRANCH  15  16
ENDBRANCH   1  12
BRANCH   6  22
ATOM     22  C   UNL     1       3.499   3.547  18.993  0.00  0.00    +0.000 C 
ATOM     23  N   UNL     1       3.161   2.861  17.927  0.00  0.00    +0.000 NA
ATOM     24  C   UNL     1       3.682   1.494  18.116  0.00  0.00    +0.000 C 
ATOM     25  C   UNL     1       4.462   1.507  19.430  0.00  0.00    +0.000 C 
ATOM     26  N   UNL     1       4.282   2.875  19.899  0.00  0.00    +0.000 N 
ATOM     27  H   UNL     1       4.050   2.985  20.878  0.00  0.00    +0.000 HD
ENDBRANCH   6  22
TORSDOF 3
ENDMDL
MODEL 9
REMARK VINA RESULT:      -7.7      0.957      1.584
REMARK  Name = 
REMARK  3 active torsions:
REMARK  status: ('A' for Active; 'I' for Inactive)
REMARK    1  A    between atoms: C_3  and  C_4
REMARK    2  A    between atoms: C_9  and  C_10
REMARK    3  A    between atoms: C_20  and  C_21
REMARK                            x       y       z     vdW  Elec       q    Type
REMARK                         _______ _______ _______ _____ _____    ______ ____
ROOT
ATOM      1  C   UNL     1       1.764   7.895  19.848  0.00  0.00    +0.000 A 
ATOM      2  C   UNL     1       2.202   6.684  20.337  0.00  0.00    +0.000 A 
ATOM      3  C   UNL     1       3.044   6.111  19.370  0.00  0.00    +0.000 A 
ATOM      4  C   UNL     1       3.775   4.923  19.331  0.00  0.00    +0.000 A 
ATOM      5  C   UNL     1       4.542   4.660  18.200  0.00  0.00    +0.000 A 
ATOM      6  C   UNL     1       4.595   5.542  17.107  0.00  0.00    +0.000 A 
ATOM      7  C   UNL     1       3.851   6.749  17.125  0.00  0.00    +0.000 A 
ATOM      8  C   UNL     1       3.089   6.992  18.292  0.00  0.00    +0.000 A 
ATOM      9  O   UNL     1       2.297   8.092  18.585  0.00  0.00    +0.000 OA
ENDROOT
BRANCH   1  12
ATOM     10  C   UNL     1      -0.401   9.671  22.418  0.00  0.00    +0.000 A 
ATOM     11  C   UNL     1       0.290   8.674  21.708  0.00  0.00    +0.000 A 
ATOM     12  C   UNL     1       0.933   8.937  20.475  0.00  0.00    +0.000 A 
ATOM     13  C   UNL     1       0.795  10.218  19.940  0.00  0.00    +0.000 A 
ATOM     14  C   UNL     1       0.104  11.216  20.647  0.00  0.00    +0.000 A 
ATOM     15  C   UNL     1      -0.469  10.962  21.901  0.00  0.00    +0.000 A 
BRANCH  15  16
ATOM     16  C   UNL     1      -1.115  12.085  22.650  0.00  0.00    +0.000 C 
ATOM     17  N   UNL     1      -2.253  11.896  23.260  0.00  0.00    +0.000 NA
ATOM     18  C   UNL     1      -2.644  13.225  23.803  0.00  0.00    +0.000 C 
ATOM     19  C   UNL     1      -1.523  14.199  23.450  0.00  0.00    +0.000 C 
ATOM     20  N   UNL     1      -0.591  13.356  22.724  0.00  0.00    +0.000 N 
ATOM     21  H   UNL     1      -0.211  13.747  21.872  0.00  0.00    +0.000 HD
ENDBRANCH  15  16
ENDBRANCH   1  12
BRANCH   6  22
ATOM     22  C   UNL     1       5.484   5.087  15.987  0.00  0.00    +0.000 C 
ATOM     23  N   UNL     1       6.614   5.720  15.771  0.00  0.00    +0.000 NA
ATOM     24  C   UNL     1       7.202   5.139  14.550  0.00  0.00    +0.000 C 
ATOM     25  C   UNL     1       6.279   3.996  14.126  0.00  0.00    +0.000 C 
ATOM     26  N   UNL     1       5.219   4.051  15.124  0.00  0.00    +0.000 N 
ATOM     27  H   UNL     1       4.272   3.976  14.775  0.00  0.00    +0.000 HD
ENDBRANCH   6  22
TORSDOF 3
ENDMDL
