MODEL 1
REMARK VINA RESULT:      -8.0      0.000      0.000
REMARK  Name = 
REMARK  5 active torsions:
REMARK  status: ('A' for Active; 'I' for Inactive)
REMARK    1  A    between atoms: C_1  and  C_2
REMARK    2  A    between atoms: C_13  and  C_15
REMARK    3  A    between atoms: C_15  and  C_16
REMARK    4  A    between atoms: C_18  and  N_19
REMARK    5  A    between atoms: N_29  and  C_30
REMARK                            x       y       z     vdW  Elec       q    Type
REMARK                         _______ _______ _______ _____ _____    ______ ____
ROOT
ATOM      1  C   UNL     1       1.820   7.812  17.955  0.00  0.00    +0.000 C 
ENDROOT
BRANCH   1  14
ATOM      2  C   UNL     1       6.334   6.895  17.247  0.00  0.00    +0.000 C 
ATOM      3  C   UNL     1       5.289   6.065  17.985  0.00  0.00    +0.000 C 
ATOM      4  C   UNL     1       5.554   4.571  17.739  0.00  0.00    +0.000 C 
ATOM      5  C   UNL     1       4.196   4.008  17.998  0.00  0.00    +0.000 A 
ATOM      6  C   UNL     1       3.907   2.673  18.249  0.00  0.00    +0.000 A 
ATOM      7  C   UNL     1       2.584   2.338  18.495  0.00  0.00    +0.000 A 
ATOM      8  F   UNL     1       2.275   1.073  18.808  0.00  0.00    +0.000 F 
ATOM      9  C   UNL     1       1.589   3.311  18.425  0.00  0.00    +0.000 A 
ATOM     10  F   UNL     1       0.319   2.981  18.699  0.00  0.00    +0.000 F 
ATOM     11  C   UNL     1       1.882   4.641  18.100  0.00  0.00    +0.000 A 
ATOM     12  C   UNL     1       3.207   5.006  17.931  0.00  0.00    +0.000 A 
ATOM     13  N   UNL     1       3.823   6.272  17.725  0.00  0.00    +0.000 N 
ATOM     14  C   UNL     1       3.280   7.549  17.663  0.00  0.00    +0.000 C 
ATOM     15  O   UNL     1       3.999   8.538  17.475  0.00  0.00    +0.000 OA
ENDBRANCH   1  14
BRANCH   1  16
ATOM     16  C   UNL     1       1.460   8.967  18.875  0.00  0.00    +0.000 A 
ATOM     17  N   UNL     1       1.282  10.160  18.390  0.00  0.00    +0.000 NA
ATOM     18  C   UNL     1       1.056  11.225  19.243  0.00  0.00    +0.000 A 
ATOM     19  C   UNL     1       0.846  11.009  20.558  0.00  0.00    +0.000 A 
ATOM     20  F   UNL     1       0.553  11.983  21.435  0.00  0.00    +0.000 F 
ATOM     21  C   UNL     1       0.948   9.662  21.121  0.00  0.00    +0.000 A 
ATOM     22  O   UNL     1       0.708   9.465  22.310  0.00  0.00    +0.000 OA
ATOM     23  N   UNL     1       1.347   8.681  20.231  0.00  0.00    +0.000 N 
ATOM     24  C   UNL     1       1.602   7.360  20.794  0.00  0.00    +0.000 C 
BRANCH  18  25
ATOM     25  N   UNL     1       1.074  12.533  18.738  0.00  0.00    +0.000 N 
ATOM     26  C   UNL     1       2.317  13.253  18.408  0.00  0.00    +0.000 C 
ATOM     27  C   UNL     1       2.305  14.662  19.011  0.00  0.00    +0.000 C 
ATOM     28  O   UNL     1       1.137  15.402  18.618  0.00  0.00    +0.000 OA
ATOM     29  C   UNL     1      -0.046  14.711  19.048  0.00  0.00    +0.000 C 
ATOM     30  C   UNL     1      -0.137  13.316  18.414  0.00  0.00    +0.000 C 
ENDBRANCH  18  25
ENDBRANCH   1  16
TORSDOF 3
ENDMDL
MODEL 2
REMARK VINA RESULT:      -8.0      2.527      7.979
REMARK  Name = 
REMARK  5 active torsions:
REMARK  status: ('A' for Active; 'I' for Inactive)
REMARK    1  A    between atoms: C_1  and  C_2
REMARK    2  A    between atoms: C_13  and  C_15
REMARK    3  A    between atoms: C_15  and  C_16
REMARK    4  A    between atoms: C_18  and  N_19
REMARK    5  A    between atoms: N_29  and  C_30
REMARK                            x       y       z     vdW  Elec       q    Type
REMARK                         _______ _______ _______ _____ _____    ______ ____
ROOT
ATOM      1  C   UNL     1       2.096   6.815  20.035  0.00  0.00    +0.000 C 
ENDROOT
BRANCH   1  14
ATOM      2  C   UNL     1       2.164  10.689  17.446  0.00  0.00    +0.000 C 
ATOM      3  C   UNL     1       1.192  10.289  18.550  0.00  0.00    +0.000 C 
ATOM      4  C   UNL     1       0.781  11.537  19.349  0.00  0.00    +0.000 C 
ATOM      5  C   UNL     1       0.368  10.910  20.639  0.00  0.00    +0.000 A 
ATOM      6  C   UNL     1      -0.404  11.514  21.623  0.00  0.00    +0.000 A 
ATOM      7  C   UNL     1      -0.711  10.764  22.748  0.00  0.00    +0.000 A 
ATOM      8  F   UNL     1      -1.510  11.288  23.687  0.00  0.00    +0.000 F 
ATOM      9  C   UNL     1      -0.200   9.476  22.894  0.00  0.00    +0.000 A 
ATOM     10  F   UNL     1      -0.532   8.750  23.972  0.00  0.00    +0.000 F 
ATOM     11  C   UNL     1       0.638   8.904  21.930  0.00  0.00    +0.000 A 
ATOM     12  C   UNL     1       0.887   9.609  20.765  0.00  0.00    +0.000 A 
ATOM     13  N   UNL     1       1.577   9.255  19.572  0.00  0.00    +0.000 N 
ATOM     14  C   UNL     1       2.189   8.067  19.193  0.00  0.00    +0.000 C 
ATOM     15  O   UNL     1       2.741   7.960  18.091  0.00  0.00    +0.000 OA
ENDBRANCH   1  14
BRANCH   1  16
ATOM     16  C   UNL     1       2.701   5.529  19.495  0.00  0.00    +0.000 A 
ATOM     17  N   UNL     1       3.820   5.560  18.833  0.00  0.00    +0.000 NA
ATOM     18  C   UNL     1       4.312   4.403  18.257  0.00  0.00    +0.000 A 
ATOM     19  C   UNL     1       3.733   3.213  18.522  0.00  0.00    +0.000 A 
ATOM     20  F   UNL     1       4.194   2.041  18.056  0.00  0.00    +0.000 F 
ATOM     21  C   UNL     1       2.523   3.135  19.342  0.00  0.00    +0.000 A 
ATOM     22  O   UNL     1       2.029   2.045  19.619  0.00  0.00    +0.000 OA
ATOM     23  N   UNL     1       1.999   4.353  19.735  0.00  0.00    +0.000 N 
ATOM     24  C   UNL     1       0.715   4.315  20.424  0.00  0.00    +0.000 C 
BRANCH  18  25
ATOM     25  N   UNL     1       5.398   4.476  17.374  0.00  0.00    +0.000 N 
ATOM     26  C   UNL     1       6.762   4.836  17.800  0.00  0.00    +0.000 C 
ATOM     27  C   UNL     1       7.356   5.905  16.876  0.00  0.00    +0.000 C 
ATOM     28  O   UNL     1       7.314   5.503  15.497  0.00  0.00    +0.000 OA
ATOM     29  C   UNL     1       5.956   5.259  15.100  0.00  0.00    +0.000 C 
ATOM     30  C   UNL     1       5.325   4.137  15.936  0.00  0.00    +0.000 C 
ENDBRANCH  18  25
ENDBRANCH   1  16
TORSDOF 3
ENDMDL
MODEL 3
REMARK VINA RESULT:      -7.6      3.086      4.001
REMARK  Name = 
REMARK  5 active torsions:
REMARK  status: ('A' for Active; 'I' for Inactive)
REMARK    1  A    between atoms: C_1  and  C_2
REMARK    2  A    between atoms: C_13  and  C_15
REMARK    3  A    between atoms: C_15  and  C_16
REMARK    4  A    between atoms: C_18  and  N_19
REMARK    5  A    between atoms: N_29  and  C_30
REMARK                            x       y       z     vdW  Elec       q    Type
REMARK                         _______ _______ _______ _____ _____    ______ ____
ROOT
ATOM      1  C   UNL     1       2.134   7.817  19.953  0.00  0.00    +0.000 C 
ENDROOT
BRANCH   1  14
ATOM      2  C   UNL     1       1.124   3.296  20.463  0.00  0.00    +0.000 C 
ATOM      3  C   UNL     1       1.677   4.025  19.243  0.00  0.00    +0.000 C 
ATOM      4  C   UNL     1       2.674   3.114  18.509  0.00  0.00    +0.000 C 
ATOM      5  C   UNL     1       3.490   4.132  17.784  0.00  0.00    +0.000 A 
ATOM      6  C   UNL     1       4.328   3.880  16.706  0.00  0.00    +0.000 A 
ATOM      7  C   UNL     1       4.990   4.960  16.142  0.00  0.00    +0.000 A 
ATOM      8  F   UNL     1       5.754   4.769  15.058  0.00  0.00    +0.000 F 
ATOM      9  C   UNL     1       4.854   6.233  16.694  0.00  0.00    +0.000 A 
ATOM     10  F   UNL     1       5.473   7.274  16.117  0.00  0.00    +0.000 F 
ATOM     11  C   UNL     1       4.064   6.463  17.826  0.00  0.00    +0.000 A 
ATOM     12  C   UNL     1       3.334   5.410  18.351  0.00  0.00    +0.000 A 
ATOM     13  N   UNL     1       2.366   5.353  19.392  0.00  0.00    +0.000 N 
ATOM     14  C   UNL     1       1.825   6.356  20.187  0.00  0.00    +0.000 C 
ATOM     15  O   UNL     1       0.977   6.096  21.049  0.00  0.00    +0.000 OA
ENDBRANCH   1  14
BRANCH   1  16
ATOM     16  C   UNL     1       1.054   8.845  20.247  0.00  0.00    +0.000 A 
ATOM     17  N   UNL     1       0.191   9.169  19.329  0.00  0.00    +0.000 NA
ATOM     18  C   UNL     1      -0.724  10.178  19.569  0.00  0.00    +0.000 A 
ATOM     19  C   UNL     1      -0.842  10.708  20.804  0.00  0.00    +0.000 A 
ATOM     20  F   UNL     1      -1.752  11.640  21.129  0.00  0.00    +0.000 F 
ATOM     21  C   UNL     1       0.055  10.297  21.884  0.00  0.00    +0.000 A 
ATOM     22  O   UNL     1      -0.089  10.748  23.018  0.00  0.00    +0.000 OA
ATOM     23  N   UNL     1       1.051   9.411  21.516  0.00  0.00    +0.000 N 
ATOM     24  C   UNL     1       2.050   9.099  22.533  0.00  0.00    +0.000 C 
BRANCH  18  25
ATOM     25  N   UNL     1      -1.508  10.666  18.514  0.00  0.00    +0.000 N 
ATOM     26  C   UNL     1      -2.274  11.923  18.594  0.00  0.00    +0.000 C 
ATOM     27  C   UNL     1      -3.713  11.715  18.107  0.00  0.00    +0.000 C 
ATOM     28  O   UNL     1      -3.754  11.145  16.789  0.00  0.00    +0.000 OA
ATOM     29  C   UNL     1      -3.082   9.876  16.784  0.00  0.00    +0.000 C 
ATOM     30  C   UNL     1      -1.608  10.026  17.185  0.00  0.00    +0.000 C 
ENDBRANCH  18  25
ENDBRANCH   1  16
TORSDOF 3
ENDMDL
MODEL 4
REMARK VINA RESULT:      -7.6      2.512      8.145
REMARK  Name = 
REMARK  5 active torsions:
REMARK  status: ('A' for Active; 'I' for Inactive)
REMARK    1  A    between atoms: C_1  and  C_2
REMARK    2  A    between atoms: C_13  and  C_15
REMARK    3  A    between atoms: C_15  and  C_16
REMARK    4  A    between atoms: C_18  and  N_19
REMARK    5  A    between atoms: N_29  and  C_30
REMARK                            x       y       z     vdW  Elec       q    Type
REMARK                         _______ _______ _______ _____ _____    ______ ____
ROOT
ATOM      1  C   UNL     1       1.822   7.184  19.959  0.00  0.00    +0.000 C 
ENDROOT
BRANCH   1  14
ATOM      2  C   UNL     1       2.227  11.196  17.625  0.00  0.00    +0.000 C 
ATOM      3  C   UNL     1       1.179  10.784  18.652  0.00  0.00    +0.000 C 
ATOM      4  C   UNL     1       0.790  12.002  19.506  0.00  0.00    +0.000 C 
ATOM      5  C   UNL     1       0.277  11.323  20.731  0.00  0.00    +0.000 A 
ATOM      6  C   UNL     1      -0.514  11.908  21.711  0.00  0.00    +0.000 A 
ATOM      7  C   UNL     1      -0.919  11.110  22.771  0.00  0.00    +0.000 A 
ATOM      8  F   UNL     1      -1.739  11.619  23.700  0.00  0.00    +0.000 F 
ATOM      9  C   UNL     1      -0.483   9.789  22.861  0.00  0.00    +0.000 A 
ATOM     10  F   UNL     1      -0.909   9.019  23.873  0.00  0.00    +0.000 F 
ATOM     11  C   UNL     1       0.375   9.231  21.906  0.00  0.00    +0.000 A 
ATOM     12  C   UNL     1       0.722   9.990  20.802  0.00  0.00    +0.000 A 
ATOM     13  N   UNL     1       1.455   9.671  19.624  0.00  0.00    +0.000 N 
ATOM     14  C   UNL     1       2.025   8.477  19.203  0.00  0.00    +0.000 C 
ATOM     15  O   UNL     1       2.629   8.405  18.126  0.00  0.00    +0.000 OA
ENDBRANCH   1  14
BRANCH   1  16
ATOM     16  C   UNL     1       2.588   5.950  19.508  0.00  0.00    +0.000 A 
ATOM     17  N   UNL     1       3.732   6.075  18.902  0.00  0.00    +0.000 NA
ATOM     18  C   UNL     1       4.373   4.956  18.404  0.00  0.00    +0.000 A 
ATOM     19  C   UNL     1       3.909   3.722  18.692  0.00  0.00    +0.000 A 
ATOM     20  F   UNL     1       4.516   2.589  18.302  0.00  0.00    +0.000 F 
ATOM     21  C   UNL     1       2.672   3.547  19.452  0.00  0.00    +0.000 A 
ATOM     22  O   UNL     1       2.280   2.421  19.752  0.00  0.00    +0.000 OA
ATOM     23  N   UNL     1       2.002   4.716  19.764  0.00  0.00    +0.000 N 
ATOM     24  C   UNL     1       0.693   4.567  20.389  0.00  0.00    +0.000 C 
BRANCH  18  25
ATOM     25  N   UNL     1       5.493   5.111  17.573  0.00  0.00    +0.000 N 
ATOM     26  C   UNL     1       5.425   5.023  16.103  0.00  0.00    +0.000 C 
ATOM     27  C   UNL     1       6.527   4.105  15.563  0.00  0.00    +0.000 C 
ATOM     28  O   UNL     1       7.830   4.508  16.016  0.00  0.00    +0.000 OA
ATOM     29  C   UNL     1       7.877   4.483  17.451  0.00  0.00    +0.000 C 
ATOM     30  C   UNL     1       6.849   5.446  18.059  0.00  0.00    +0.000 C 
ENDBRANCH  18  25
ENDBRANCH   1  16
TORSDOF 3
ENDMDL
MODEL 5
REMARK VINA RESULT:      -7.5      1.205      1.205
REMARK  Name = 
REMARK  5 active torsions:
REMARK  status: ('A' for Active; 'I' for Inactive)
REMARK    1  A    between atoms: C_1  and  C_2
REMARK    2  A    between atoms: C_13  and  C_15
REMARK    3  A    between atoms: C_15  and  C_16
REMARK    4  A    between atoms: C_18  and  N_19
REMARK    5  A    between atoms: N_29  and  C_30
REMARK                            x       y       z     vdW  Elec       q    Type
REMARK                         _______ _______ _______ _____ _____    ______ ____
ROOT
ATOM      1  C   UNL     1       1.324   7.983  18.571  0.00  0.00    +0.000 C 
ENDROOT
BRANCH   1  14
ATOM      2  C   UNL     1       5.457   7.049  16.633  0.00  0.00    +0.000 C 
ATOM      3  C   UNL     1       4.842   6.478  17.905  0.00  0.00    +0.000 C 
ATOM      4  C   UNL     1       5.236   4.998  18.047  0.00  0.00    +0.000 C 
ATOM      5  C   UNL     1       4.135   4.506  18.924  0.00  0.00    +0.000 A 
ATOM      6  C   UNL     1       4.145   3.323  19.652  0.00  0.00    +0.000 A 
ATOM      7  C   UNL     1       3.037   3.041  20.437  0.00  0.00    +0.000 A 
ATOM      8  F   UNL     1       3.039   1.945  21.206  0.00  0.00    +0.000 F 
ATOM      9  C   UNL     1       1.938   3.897  20.431  0.00  0.00    +0.000 A 
ATOM     10  F   UNL     1       0.887   3.631  21.220  0.00  0.00    +0.000 F 
ATOM     11  C   UNL     1       1.907   5.050  19.637  0.00  0.00    +0.000 A 
ATOM     12  C   UNL     1       3.037   5.385  18.911  0.00  0.00    +0.000 A 
ATOM     13  N   UNL     1       3.356   6.531  18.128  0.00  0.00    +0.000 N 
ATOM     14  C   UNL     1       2.635   7.691  17.878  0.00  0.00    +0.000 C 
ATOM     15  O   UNL     1       3.098   8.586  17.160  0.00  0.00    +0.000 OA
ENDBRANCH   1  14
BRANCH   1  16
ATOM     16  C   UNL     1       1.182   9.287  19.340  0.00  0.00    +0.000 A 
ATOM     17  N   UNL     1       1.204  10.424  18.710  0.00  0.00    +0.000 NA
ATOM     18  C   UNL     1       1.178  11.608  19.424  0.00  0.00    +0.000 A 
ATOM     19  C   UNL     1       0.956  11.594  20.754  0.00  0.00    +0.000 A 
ATOM     20  F   UNL     1       0.849  12.704  21.503  0.00  0.00    +0.000 F 
ATOM     21  C   UNL     1       0.833  10.329  21.479  0.00  0.00    +0.000 A 
ATOM     22  O   UNL     1       0.583  10.324  22.683  0.00  0.00    +0.000 OA
ATOM     23  N   UNL     1       1.043   9.193  20.720  0.00  0.00    +0.000 N 
ATOM     24  C   UNL     1       1.077   7.926  21.442  0.00  0.00    +0.000 C 
BRANCH  18  25
ATOM     25  N   UNL     1       1.413  12.822  18.762  0.00  0.00    +0.000 N 
ATOM     26  C   UNL     1       2.723  13.193  18.198  0.00  0.00    +0.000 C 
ATOM     27  C   UNL     1       3.111  14.616  18.618  0.00  0.00    +0.000 C 
ATOM     28  O   UNL     1       2.092  15.570  18.279  0.00  0.00    +0.000 OA
ATOM     29  C   UNL     1       0.861  15.222  18.929  0.00  0.00    +0.000 C 
ATOM     30  C   UNL     1       0.372  13.836  18.489  0.00  0.00    +0.000 C 
ENDBRANCH  18  25
ENDBRANCH   1  16
TORSDOF 3
ENDMDL
MODEL 6
REMARK VINA RESULT:      -7.4      2.596      7.601
REMARK  Name = 
REMARK  5 active torsions:
REMARK  status: ('A' for Active; 'I' for Inactive)
REMARK    1  A    between atoms: C_1  and  C_2
REMARK    2  A    between atoms: C_13  and  C_15
REMARK    3  A    between atoms: C_15  and  C_16
REMARK    4  A    between atoms: C_18  and  N_19
REMARK    5  A    between atoms: N_29  and  C_30
REMARK                            x       y       z     vdW  Elec       q    Type
REMARK                         _______ _______ _______ _____ _____    ______ ____
ROOT
ATOM      1  C   UNL     1       1.453   7.437  18.520  0.00  0.00    +0.000 C 
ENDROOT
BRANCH   1  14
ATOM      2  C   UNL     1       2.695  11.856  17.718  0.00  0.00    +0.000 C 
ATOM      3  C   UNL     1       1.535  11.320  18.548  0.00  0.00    +0.000 C 
ATOM      4  C   UNL     1       1.321  12.222  19.774  0.00  0.00    +0.000 C 
ATOM      5  C   UNL     1       0.628  11.273  20.693  0.00  0.00    +0.000 A 
ATOM      6  C   UNL     1      -0.100  11.623  21.822  0.00  0.00    +0.000 A 
ATOM      7  C   UNL     1      -0.699  10.601  22.543  0.00  0.00    +0.000 A 
ATOM      8  F   UNL     1      -1.466  10.905  23.599  0.00  0.00    +0.000 F 
ATOM      9  C   UNL     1      -0.510   9.273  22.167  0.00  0.00    +0.000 A 
ATOM     10  F   UNL     1      -1.123   8.297  22.852  0.00  0.00    +0.000 F 
ATOM     11  C   UNL     1       0.286   8.926  21.069  0.00  0.00    +0.000 A 
ATOM     12  C   UNL     1       0.824   9.938  20.293  0.00  0.00    +0.000 A 
ATOM     13  N   UNL     1       1.553   9.911  19.071  0.00  0.00    +0.000 N 
ATOM     14  C   UNL     1       1.924   8.849  18.257  0.00  0.00    +0.000 C 
ATOM     15  O   UNL     1       2.565   9.039  17.216  0.00  0.00    +0.000 OA
ENDBRANCH   1  14
BRANCH   1  16
ATOM     16  C   UNL     1       2.491   6.370  18.828  0.00  0.00    +0.000 A 
ATOM     17  N   UNL     1       3.650   6.394  18.238  0.00  0.00    +0.000 NA
ATOM     18  C   UNL     1       4.550   5.364  18.444  0.00  0.00    +0.000 A 
ATOM     19  C   UNL     1       4.306   4.427  19.384  0.00  0.00    +0.000 A 
ATOM     20  F   UNL     1       5.162   3.438  19.689  0.00  0.00    +0.000 F 
ATOM     21  C   UNL     1       3.048   4.427  20.132  0.00  0.00    +0.000 A 
ATOM     22  O   UNL     1       2.853   3.599  21.019  0.00  0.00    +0.000 OA
ATOM     23  N   UNL     1       2.132   5.387  19.743  0.00  0.00    +0.000 N 
ATOM     24  C   UNL     1       0.815   5.317  20.365  0.00  0.00    +0.000 C 
BRANCH  18  25
ATOM     25  N   UNL     1       5.704   5.283  17.652  0.00  0.00    +0.000 N 
ATOM     26  C   UNL     1       6.980   5.923  18.018  0.00  0.00    +0.000 C 
ATOM     27  C   UNL     1       7.555   6.706  16.832  0.00  0.00    +0.000 C 
ATOM     28  O   UNL     1       7.684   5.883  15.661  0.00  0.00    +0.000 OA
ATOM     29  C   UNL     1       6.400   5.362  15.285  0.00  0.00    +0.000 C 
ATOM     30  C   UNL     1       5.802   4.497  16.403  0.00  0.00    +0.000 C 
ENDBRANCH  18  25
ENDBRANCH   1  16
TORSDOF 3
ENDMDL
MODEL 7
REMARK VINA RESULT:      -7.2      7.858      9.887
REMARK  Name = 
REMARK  5 active torsions:
REMARK  status: ('A' for Active; 'I' for Inactive)
REMARK    1  A    between atoms: C_1  and  C_2
REMARK    2  A    between atoms: C_13  and  C_15
REMARK    3  A    between atoms: C_15  and  C_16
REMARK    4  A    between atoms: C_18  and  N_19
REMARK    5  A    between atoms: N_29  and  C_30
REMARK                            x       y       z     vdW  Elec       q    Type
REMARK                         _______ _______ _______ _____ _____    ______ ____
ROOT
ATOM      1  C   UNL     1       5.962  15.566  18.747  0.00  0.00    +0.000 C 
ENDROOT
BRANCH   1  14
ATOM      2  C   UNL     1       9.621  18.358  18.026  0.00  0.00    +0.000 C 
ATOM      3  C   UNL     1       9.600  16.886  18.421  0.00  0.00    +0.000 C 
ATOM      4  C   UNL     1      10.772  16.156  17.745  0.00  0.00    +0.000 C 
ATOM      5  C   UNL     1      10.259  14.755  17.751  0.00  0.00    +0.000 A 
ATOM      6  C   UNL     1      11.025  13.611  17.568  0.00  0.00    +0.000 A 
ATOM      7  C   UNL     1      10.376  12.387  17.632  0.00  0.00    +0.000 A 
ATOM      8  F   UNL     1      11.091  11.259  17.529  0.00  0.00    +0.000 F 
ATOM      9  C   UNL     1       8.995  12.333  17.812  0.00  0.00    +0.000 A 
ATOM     10  F   UNL     1       8.385  11.142  17.906  0.00  0.00    +0.000 F 
ATOM     11  C   UNL     1       8.222  13.495  17.922  0.00  0.00    +0.000 A 
ATOM     12  C   UNL     1       8.865  14.720  17.940  0.00  0.00    +0.000 A 
ATOM     13  N   UNL     1       8.384  16.041  18.162  0.00  0.00    +0.000 N 
ATOM     14  C   UNL     1       7.110  16.506  18.464  0.00  0.00    +0.000 C 
ATOM     15  O   UNL     1       6.896  17.714  18.624  0.00  0.00    +0.000 OA
ENDBRANCH   1  14
BRANCH   1  16
ATOM     16  C   UNL     1       5.686  15.168  20.188  0.00  0.00    +0.000 A 
ATOM     17  N   UNL     1       6.645  14.707  20.936  0.00  0.00    +0.000 NA
ATOM     18  C   UNL     1       6.366  14.252  22.211  0.00  0.00    +0.000 A 
ATOM     19  C   UNL     1       5.143  14.442  22.748  0.00  0.00    +0.000 A 
ATOM     20  F   UNL     1       4.818  14.090  24.003  0.00  0.00    +0.000 F 
ATOM     21  C   UNL     1       4.066  15.045  21.963  0.00  0.00    +0.000 A 
ATOM     22  O   UNL     1       2.969  15.259  22.473  0.00  0.00    +0.000 OA
ATOM     23  N   UNL     1       4.379  15.313  20.643  0.00  0.00    +0.000 N 
ATOM     24  C   UNL     1       3.285  15.773  19.796  0.00  0.00    +0.000 C 
BRANCH  18  25
ATOM     25  N   UNL     1       7.353  13.566  22.933  0.00  0.00    +0.000 N 
ATOM     26  C   UNL     1       7.461  12.096  22.956  0.00  0.00    +0.000 C 
ATOM     27  C   UNL     1       7.614  11.585  24.393  0.00  0.00    +0.000 C 
ATOM     28  O   UNL     1       8.716  12.213  25.069  0.00  0.00    +0.000 OA
ATOM     29  C   UNL     1       8.518  13.635  25.109  0.00  0.00    +0.000 C 
ATOM     30  C   UNL     1       8.436  14.225  23.694  0.00  0.00    +0.000 C 
ENDBRANCH  18  25
ENDBRANCH   1  16
TORSDOF 3
ENDMDL
MODEL 8
REMARK VINA RESULT:      -7.2      0.605      1.080
REMARK  Name = 
REMARK  5 active torsions:
REMARK  status: ('A' for Active; 'I' for Inactive)
REMARK    1  A    between atoms: C_1  and  C_2
REMARK    2  A    between atoms: C_13  and  C_15
REMARK    3  A    between atoms: C_15  and  C_16
REMARK    4  A    between atoms: C_18  and  N_19
REMARK    5  A    between atoms: N_29  and  C_30
REMARK                            x       y       z     vdW  Elec       q    Type
REMARK                         _______ _______ _______ _____ _____    ______ ____
ROOT
ATOM      1  C   UNL     1       1.809   7.863  18.020  0.00  0.00    +0.000 C 
ENDROOT
BRANCH   1  14
ATOM      2  C   UNL     1       6.336   7.082  17.238  0.00  0.00    +0.000 C 
ATOM      3  C   UNL     1       5.312   6.188  17.928  0.00  0.00    +0.000 C 
ATOM      4  C   UNL     1       5.604   4.717  17.591  0.00  0.00    +0.000 C 
ATOM      5  C   UNL     1       4.260   4.112  17.822  0.00  0.00    +0.000 A 
ATOM      6  C   UNL     1       3.998   2.759  17.992  0.00  0.00    +0.000 A 
ATOM      7  C   UNL     1       2.683   2.383  18.223  0.00  0.00    +0.000 A 
ATOM      8  F   UNL     1       2.401   1.096  18.460  0.00  0.00    +0.000 F 
ATOM      9  C   UNL     1       1.669   3.339  18.217  0.00  0.00    +0.000 A 
ATOM     10  F   UNL     1       0.407   2.967  18.476  0.00  0.00    +0.000 F 
ATOM     11  C   UNL     1       1.934   4.692  17.972  0.00  0.00    +0.000 A 
ATOM     12  C   UNL     1       3.250   5.092  17.820  0.00  0.00    +0.000 A 
ATOM     13  N   UNL     1       3.841   6.381  17.688  0.00  0.00    +0.000 N 
ATOM     14  C   UNL     1       3.272   7.648  17.706  0.00  0.00    +0.000 C 
ATOM     15  O   UNL     1       3.970   8.660  17.576  0.00  0.00    +0.000 OA
ENDBRANCH   1  14
BRANCH   1  16
ATOM     16  C   UNL     1       1.440   8.804  19.156  0.00  0.00    +0.000 A 
ATOM     17  N   UNL     1       1.246  10.068  18.923  0.00  0.00    +0.000 NA
ATOM     18  C   UNL     1       1.013  10.935  19.975  0.00  0.00    +0.000 A 
ATOM     19  C   UNL     1       0.813  10.455  21.219  0.00  0.00    +0.000 A 
ATOM     20  F   UNL     1       0.514  11.227  22.276  0.00  0.00    +0.000 F 
ATOM     21  C   UNL     1       0.933   9.023  21.498  0.00  0.00    +0.000 A 
ATOM     22  O   UNL     1       0.702   8.587  22.623  0.00  0.00    +0.000 OA
ATOM     23  N   UNL     1       1.338   8.248  20.427  0.00  0.00    +0.000 N 
ATOM     24  C   UNL     1       1.612   6.843  20.709  0.00  0.00    +0.000 C 
BRANCH  18  25
ATOM     25  N   UNL     1       1.013  12.319  19.746  0.00  0.00    +0.000 N 
ATOM     26  C   UNL     1      -0.219  13.122  19.657  0.00  0.00    +0.000 C 
ATOM     27  C   UNL     1      -0.187  14.030  18.423  0.00  0.00    +0.000 C 
ATOM     28  O   UNL     1       0.991  14.852  18.393  0.00  0.00    +0.000 OA
ATOM     29  C   UNL     1       2.164  14.024  18.381  0.00  0.00    +0.000 C 
ATOM     30  C   UNL     1       2.236  13.143  19.636  0.00  0.00    +0.000 C 
ENDBRANCH  18  25
ENDBRANCH   1  16
TORSDOF 3
ENDMDL
MODEL 9
REMARK VINA RESULT:      -7.1      2.458      3.002
REMARK  Name = 
REMARK  5 active torsions:
REMARK  status: ('A' for Active; 'I' for Inactive)
REMARK    1  A    between atoms: C_1  and  C_2
REMARK    2  A    between atoms: C_13  and  C_15
REMARK    3  A    between atoms: C_15  and  C_16
REMARK    4  A    between atoms: C_18  and  N_19
REMARK    5  A    between atoms: N_29  and  C_30
REMARK                            x       y       z     vdW  Elec       q    Type
REMARK                         _______ _______ _______ _____ _____    ______ ____
ROOT
ATOM      1  C   UNL     1       1.645   7.783  20.380  0.00  0.00    +0.000 C 
ENDROOT
BRANCH   1  14
ATOM      2  C   UNL     1       4.179   7.135  16.524  0.00  0.00    +0.000 C 
ATOM      3  C   UNL     1       3.910   6.167  17.670  0.00  0.00    +0.000 C 
ATOM      4  C   UNL     1       3.783   4.738  17.117  0.00  0.00    +0.000 C 
ATOM      5  C   UNL     1       2.979   4.098  18.199  0.00  0.00    +0.000 A 
ATOM      6  C   UNL     1       2.838   2.731  18.403  0.00  0.00    +0.000 A 
ATOM      7  C   UNL     1       2.069   2.319  19.481  0.00  0.00    +0.000 A 
ATOM      8  F   UNL     1       1.966   1.012  19.752  0.00  0.00    +0.000 F 
ATOM      9  C   UNL     1       1.418   3.259  20.279  0.00  0.00    +0.000 A 
ATOM     10  F   UNL     1       0.706   2.848  21.338  0.00  0.00    +0.000 F 
ATOM     11  C   UNL     1       1.507   4.632  20.020  0.00  0.00    +0.000 A 
ATOM     12  C   UNL     1       2.336   5.061  18.997  0.00  0.00    +0.000 A 
ATOM     13  N   UNL     1       2.728   6.364  18.578  0.00  0.00    +0.000 N 
ATOM     14  C   UNL     1       2.422   7.616  19.094  0.00  0.00    +0.000 C 
ATOM     15  O   UNL     1       2.874   8.645  18.578  0.00  0.00    +0.000 OA
ENDBRANCH   1  14
BRANCH   1  16
ATOM     16  C   UNL     1       0.671   8.945  20.496  0.00  0.00    +0.000 A 
ATOM     17  N   UNL     1      -0.137   9.222  19.516  0.00  0.00    +0.000 NA
ATOM     18  C   UNL     1      -0.947  10.341  19.586  0.00  0.00    +0.000 A 
ATOM     19  C   UNL     1      -1.031  11.048  20.732  0.00  0.00    +0.000 A 
ATOM     20  F   UNL     1      -1.845  12.103  20.898  0.00  0.00    +0.000 F 
ATOM     21  C   UNL     1      -0.200  10.704  21.886  0.00  0.00    +0.000 A 
ATOM     22  O   UNL     1      -0.317  11.321  22.943  0.00  0.00    +0.000 OA
ATOM     23  N   UNL     1       0.706   9.680  21.675  0.00  0.00    +0.000 N 
ATOM     24  C   UNL     1       1.648   9.415  22.756  0.00  0.00    +0.000 C 
BRANCH  18  25
ATOM     25  N   UNL     1      -1.658  10.754  18.450  0.00  0.00    +0.000 N 
ATOM     26  C   UNL     1      -2.475  11.980  18.411  0.00  0.00    +0.000 C 
ATOM     27  C   UNL     1      -3.859  11.691  17.818  0.00  0.00    +0.000 C 
ATOM     28  O   UNL     1      -3.767  11.067  16.526  0.00  0.00    +0.000 OA
ATOM     29  C   UNL     1      -3.049   9.829  16.632  0.00  0.00    +0.000 C 
ATOM     30  C   UNL     1      -1.621  10.057  17.146  0.00  0.00    +0.000 C 
ENDBRANCH  18  25
ENDBRANCH   1  16
TORSDOF 3
ENDMDL
