MODEL 1
REMARK VINA RESULT:      -8.4      0.000      0.000
REMARK  Name = 
REMARK  2 active torsions:
REMARK  status: ('A' for Active; 'I' for Inactive)
REMARK    1  A    between atoms: C_5  and  C_6
REMARK    2  A    between atoms: C_15  and  C_16
REMARK                            x       y       z     vdW  Elec       q    Type
REMARK                         _______ _______ _______ _____ _____    ______ ____
ROOT
ATOM      1  C   UNL     1       3.520   4.688  18.279  0.00  0.00    +0.000 A 
ATOM      2  N   UNL     1       4.352   3.842  17.602  0.00  0.00    +0.000 NA
ATOM      3  C   UNL     1       5.044   4.335  16.563  0.00  0.00    +0.000 A 
ATOM      4  C   UNL     1       5.904   3.503  15.856  0.00  0.00    +0.000 A 
ATOM      5  C   UNL     1       6.618   3.965  14.751  0.00  0.00    +0.000 A 
ATOM      6  C   UNL     1       6.470   5.283  14.342  0.00  0.00    +0.000 A 
ATOM      7  C   UNL     1       5.621   6.131  15.059  0.00  0.00    +0.000 A 
ATOM      8  C   UNL     1       4.918   5.681  16.170  0.00  0.00    +0.000 A 
ATOM      9  N   UNL     1       4.135   6.535  16.855  0.00  0.00    +0.000 NA
ATOM     10  C   UNL     1       3.451   6.053  17.936  0.00  0.00    +0.000 A 
ENDROOT
BRANCH   1  15
ATOM     11  F   UNL     1       0.598   2.245  22.438  0.00  0.00    +0.000 F 
ATOM     12  C   UNL     1       1.290   2.796  21.434  0.00  0.00    +0.000 A 
ATOM     13  C   UNL     1       2.671   2.894  21.525  0.00  0.00    +0.000 A 
ATOM     14  C   UNL     1       3.388   3.501  20.489  0.00  0.00    +0.000 A 
ATOM     15  C   UNL     1       2.740   4.011  19.344  0.00  0.00    +0.000 A 
ATOM     16  C   UNL     1       1.343   3.832  19.262  0.00  0.00    +0.000 A 
ATOM     17  C   UNL     1       0.619   3.259  20.311  0.00  0.00    +0.000 A 
ENDBRANCH   1  15
BRANCH  10  18
ATOM     18  C   UNL     1       2.683   7.098  18.655  0.00  0.00    +0.000 A 
ATOM     19  C   UNL     1       2.231   8.241  17.977  0.00  0.00    +0.000 A 
ATOM     20  C   UNL     1       1.461   9.176  18.651  0.00  0.00    +0.000 A 
ATOM     21  N   UNL     1       1.099   9.056  19.943  0.00  0.00    +0.000 NA
ATOM     22  C   UNL     1       1.569   7.979  20.601  0.00  0.00    +0.000 A 
ATOM     23  C   UNL     1       2.374   7.011  20.019  0.00  0.00    +0.000 A 
ENDBRANCH  10  18
TORSDOF 2
ENDMDL
MODEL 2
REMARK VINA RESULT:      -8.3      2.003      4.361
REMARK  Name = 
REMARK  2 active torsions:
REMARK  status: ('A' for Active; 'I' for Inactive)
REMARK    1  A    between atoms: C_5  and  C_6
REMARK    2  A    between atoms: C_15  and  C_16
REMARK                            x       y       z     vdW  Elec       q    Type
REMARK                         _______ _______ _______ _____ _____    ______ ____
ROOT
ATOM      1  C   UNL     1       3.389   6.062  17.963  0.00  0.00    +0.000 A 
ATOM      2  N   UNL     1       4.117   6.549  16.914  0.00  0.00    +0.000 NA
ATOM      3  C   UNL     1       4.915   5.698  16.251  0.00  0.00    +0.000 A 
ATOM      4  C   UNL     1       5.664   6.159  15.174  0.00  0.00    +0.000 A 
ATOM      5  C   UNL     1       6.530   5.317  14.478  0.00  0.00    +0.000 A 
ATOM      6  C   UNL     1       6.654   3.990  14.864  0.00  0.00    +0.000 A 
ATOM      7  C   UNL     1       5.890   3.513  15.934  0.00  0.00    +0.000 A 
ATOM      8  C   UNL     1       5.014   4.344  16.623  0.00  0.00    +0.000 A 
ATOM      9  N   UNL     1       4.271   3.843  17.627  0.00  0.00    +0.000 NA
ATOM     10  C   UNL     1       3.429   4.692  18.288  0.00  0.00    +0.000 A 
ENDROOT
BRANCH   1  15
ATOM     11  F   UNL     1       0.318  10.011  20.567  0.00  0.00    +0.000 F 
ATOM     12  C   UNL     1       1.074   9.087  19.962  0.00  0.00    +0.000 A 
ATOM     13  C   UNL     1       1.408   9.241  18.625  0.00  0.00    +0.000 A 
ATOM     14  C   UNL     1       2.170   8.258  17.987  0.00  0.00    +0.000 A 
ATOM     15  C   UNL     1       2.618   7.111  18.675  0.00  0.00    +0.000 A 
ATOM     16  C   UNL     1       2.313   7.025  20.049  0.00  0.00    +0.000 A 
ATOM     17  C   UNL     1       1.521   7.988  20.681  0.00  0.00    +0.000 A 
ENDBRANCH   1  15
BRANCH  10  18
ATOM     18  C   UNL     1       2.609   4.014  19.322  0.00  0.00    +0.000 A 
ATOM     19  C   UNL     1       3.178   3.640  20.549  0.00  0.00    +0.000 A 
ATOM     20  C   UNL     1       2.381   3.065  21.526  0.00  0.00    +0.000 A 
ATOM     21  N   UNL     1       1.060   2.843  21.379  0.00  0.00    +0.000 NA
ATOM     22  C   UNL     1       0.526   3.165  20.186  0.00  0.00    +0.000 A 
ATOM     23  C   UNL     1       1.252   3.712  19.138  0.00  0.00    +0.000 A 
ENDBRANCH  10  18
TORSDOF 2
ENDMDL
MODEL 3
REMARK VINA RESULT:      -8.3      2.747      4.409
REMARK  Name = 
REMARK  2 active torsions:
REMARK  status: ('A' for Active; 'I' for Inactive)
REMARK    1  A    between atoms: C_5  and  C_6
REMARK    2  A    between atoms: C_15  and  C_16
REMARK                            x       y       z     vdW  Elec       q    Type
REMARK                         _______ _______ _______ _____ _____    ______ ____
ROOT
ATOM      1  C   UNL     1       5.316   4.910  16.125  0.00  0.00    +0.000 A 
ATOM      2  N   UNL     1       4.869   4.146  15.084  0.00  0.00    +0.000 NA
ATOM      3  C   UNL     1       5.636   4.067  13.985  0.00  0.00    +0.000 A 
ATOM      4  C   UNL     1       5.214   3.294  12.910  0.00  0.00    +0.000 A 
ATOM      5  C   UNL     1       5.964   3.208  11.738  0.00  0.00    +0.000 A 
ATOM      6  C   UNL     1       7.157   3.910  11.635  0.00  0.00    +0.000 A 
ATOM      7  C   UNL     1       7.598   4.675  12.718  0.00  0.00    +0.000 A 
ATOM      8  C   UNL     1       6.863   4.753  13.896  0.00  0.00    +0.000 A 
ATOM      9  N   UNL     1       7.333   5.473  14.930  0.00  0.00    +0.000 NA
ATOM     10  C   UNL     1       6.577   5.534  16.067  0.00  0.00    +0.000 A 
ENDROOT
BRANCH   1  15
ATOM     11  F   UNL     1       1.494   5.268  20.257  0.00  0.00    +0.000 F 
ATOM     12  C   UNL     1       2.425   5.187  19.299  0.00  0.00    +0.000 A 
ATOM     13  C   UNL     1       2.717   6.303  18.529  0.00  0.00    +0.000 A 
ATOM     14  C   UNL     1       3.665   6.206  17.506  0.00  0.00    +0.000 A 
ATOM     15  C   UNL     1       4.345   4.998  17.243  0.00  0.00    +0.000 A 
ATOM     16  C   UNL     1       4.066   3.906  18.092  0.00  0.00    +0.000 A 
ATOM     17  C   UNL     1       3.092   3.989  19.091  0.00  0.00    +0.000 A 
ENDBRANCH   1  15
BRANCH  10  18
ATOM     18  C   UNL     1       7.230   6.292  17.162  0.00  0.00    +0.000 A 
ATOM     19  C   UNL     1       7.609   5.643  18.348  0.00  0.00    +0.000 A 
ATOM     20  C   UNL     1       8.273   6.355  19.334  0.00  0.00    +0.000 A 
ATOM     21  N   UNL     1       8.599   7.658  19.227  0.00  0.00    +0.000 NA
ATOM     22  C   UNL     1       8.198   8.287  18.106  0.00  0.00    +0.000 A 
ATOM     23  C   UNL     1       7.498   7.666  17.082  0.00  0.00    +0.000 A 
ENDBRANCH  10  18
TORSDOF 2
ENDMDL
MODEL 4
REMARK VINA RESULT:      -8.2      2.742      4.348
REMARK  Name = 
REMARK  2 active torsions:
REMARK  status: ('A' for Active; 'I' for Inactive)
REMARK    1  A    between atoms: C_5  and  C_6
REMARK    2  A    between atoms: C_15  and  C_16
REMARK                            x       y       z     vdW  Elec       q    Type
REMARK                         _______ _______ _______ _____ _____    ______ ____
ROOT
ATOM      1  C   UNL     1       5.321   4.948  16.154  0.00  0.00    +0.000 A 
ATOM      2  N   UNL     1       4.868   4.170  15.125  0.00  0.00    +0.000 NA
ATOM      3  C   UNL     1       5.623   4.086  14.019  0.00  0.00    +0.000 A 
ATOM      4  C   UNL     1       5.196   3.298  12.956  0.00  0.00    +0.000 A 
ATOM      5  C   UNL     1       5.933   3.207  11.776  0.00  0.00    +0.000 A 
ATOM      6  C   UNL     1       7.119   3.918  11.653  0.00  0.00    +0.000 A 
ATOM      7  C   UNL     1       7.566   4.697  12.724  0.00  0.00    +0.000 A 
ATOM      8  C   UNL     1       6.843   4.780  13.909  0.00  0.00    +0.000 A 
ATOM      9  N   UNL     1       7.320   5.515  14.930  0.00  0.00    +0.000 NA
ATOM     10  C   UNL     1       6.577   5.581  16.075  0.00  0.00    +0.000 A 
ENDROOT
BRANCH   1  15
ATOM     11  F   UNL     1       1.807   5.264  20.554  0.00  0.00    +0.000 F 
ATOM     12  C   UNL     1       2.614   5.186  19.489  0.00  0.00    +0.000 A 
ATOM     13  C   UNL     1       3.230   3.981  19.182  0.00  0.00    +0.000 A 
ATOM     14  C   UNL     1       4.099   3.911  18.089  0.00  0.00    +0.000 A 
ATOM     15  C   UNL     1       4.361   5.038  17.282  0.00  0.00    +0.000 A 
ATOM     16  C   UNL     1       3.664   6.225  17.590  0.00  0.00    +0.000 A 
ATOM     17  C   UNL     1       2.823   6.309  18.702  0.00  0.00    +0.000 A 
ENDBRANCH   1  15
BRANCH  10  18
ATOM     18  C   UNL     1       7.235   6.355  17.156  0.00  0.00    +0.000 A 
ATOM     19  C   UNL     1       7.621   5.723  18.349  0.00  0.00    +0.000 A 
ATOM     20  C   UNL     1       8.291   6.450  19.320  0.00  0.00    +0.000 A 
ATOM     21  N   UNL     1       8.616   7.751  19.192  0.00  0.00    +0.000 NA
ATOM     22  C   UNL     1       8.207   8.364  18.065  0.00  0.00    +0.000 A 
ATOM     23  C   UNL     1       7.502   7.727  17.054  0.00  0.00    +0.000 A 
ENDBRANCH  10  18
TORSDOF 2
ENDMDL
MODEL 5
REMARK VINA RESULT:      -8.2      0.170      1.008
REMARK  Name = 
REMARK  2 active torsions:
REMARK  status: ('A' for Active; 'I' for Inactive)
REMARK    1  A    between atoms: C_5  and  C_6
REMARK    2  A    between atoms: C_15  and  C_16
REMARK                            x       y       z     vdW  Elec       q    Type
REMARK                         _______ _______ _______ _____ _____    ______ ____
ROOT
ATOM      1  C   UNL     1       3.495   4.804  18.332  0.00  0.00    +0.000 A 
ATOM      2  N   UNL     1       4.330   3.938  17.683  0.00  0.00    +0.000 NA
ATOM      3  C   UNL     1       5.016   4.397  16.625  0.00  0.00    +0.000 A 
ATOM      4  C   UNL     1       5.879   3.545  15.945  0.00  0.00    +0.000 A 
ATOM      5  C   UNL     1       6.587   3.971  14.823  0.00  0.00    +0.000 A 
ATOM      6  C   UNL     1       6.430   5.273  14.367  0.00  0.00    +0.000 A 
ATOM      7  C   UNL     1       5.579   6.142  15.055  0.00  0.00    +0.000 A 
ATOM      8  C   UNL     1       4.882   5.728  16.184  0.00  0.00    +0.000 A 
ATOM      9  N   UNL     1       4.096   6.601  16.840  0.00  0.00    +0.000 NA
ATOM     10  C   UNL     1       3.418   6.154  17.940  0.00  0.00    +0.000 A 
ENDROOT
BRANCH   1  15
ATOM     11  F   UNL     1       0.545   2.214  22.381  0.00  0.00    +0.000 F 
ATOM     12  C   UNL     1       1.240   2.858  21.435  0.00  0.00    +0.000 A 
ATOM     13  C   UNL     1       0.634   3.158  20.224  0.00  0.00    +0.000 A 
ATOM     14  C   UNL     1       1.372   3.801  19.225  0.00  0.00    +0.000 A 
ATOM     15  C   UNL     1       2.722   4.161  19.422  0.00  0.00    +0.000 A 
ATOM     16  C   UNL     1       3.279   3.896  20.691  0.00  0.00    +0.000 A 
ATOM     17  C   UNL     1       2.556   3.222  21.679  0.00  0.00    +0.000 A 
ENDBRANCH   1  15
BRANCH  10  18
ATOM     18  C   UNL     1       2.646   7.221  18.623  0.00  0.00    +0.000 A 
ATOM     19  C   UNL     1       2.200   8.344  17.910  0.00  0.00    +0.000 A 
ATOM     20  C   UNL     1       1.427   9.299  18.551  0.00  0.00    +0.000 A 
ATOM     21  N   UNL     1       1.055   9.216  19.844  0.00  0.00    +0.000 NA
ATOM     22  C   UNL     1       1.519   8.158  20.536  0.00  0.00    +0.000 A 
ATOM     23  C   UNL     1       2.326   7.173  19.987  0.00  0.00    +0.000 A 
ENDBRANCH  10  18
TORSDOF 2
ENDMDL
MODEL 6
REMARK VINA RESULT:      -8.2      2.064      4.285
REMARK  Name = 
REMARK  2 active torsions:
REMARK  status: ('A' for Active; 'I' for Inactive)
REMARK    1  A    between atoms: C_5  and  C_6
REMARK    2  A    between atoms: C_15  and  C_16
REMARK                            x       y       z     vdW  Elec       q    Type
REMARK                         _______ _______ _______ _____ _____    ______ ____
ROOT
ATOM      1  C   UNL     1       3.327   6.195  17.975  0.00  0.00    +0.000 A 
ATOM      2  N   UNL     1       4.064   6.651  16.918  0.00  0.00    +0.000 NA
ATOM      3  C   UNL     1       4.893   5.790  16.309  0.00  0.00    +0.000 A 
ATOM      4  C   UNL     1       5.652   6.219  15.226  0.00  0.00    +0.000 A 
ATOM      5  C   UNL     1       6.549   5.367  14.584  0.00  0.00    +0.000 A 
ATOM      6  C   UNL     1       6.695   4.062  15.032  0.00  0.00    +0.000 A 
ATOM      7  C   UNL     1       5.922   3.616  16.108  0.00  0.00    +0.000 A 
ATOM      8  C   UNL     1       5.014   4.456  16.743  0.00  0.00    +0.000 A 
ATOM      9  N   UNL     1       4.264   3.984  17.755  0.00  0.00    +0.000 NA
ATOM     10  C   UNL     1       3.390   4.842  18.362  0.00  0.00    +0.000 A 
ENDROOT
BRANCH   1  15
ATOM     11  F   UNL     1       0.398  10.274  20.541  0.00  0.00    +0.000 F 
ATOM     12  C   UNL     1       1.065   9.294  19.921  0.00  0.00    +0.000 A 
ATOM     13  C   UNL     1       1.491   8.189  20.644  0.00  0.00    +0.000 A 
ATOM     14  C   UNL     1       2.216   7.182  20.001  0.00  0.00    +0.000 A 
ATOM     15  C   UNL     1       2.520   7.256  18.624  0.00  0.00    +0.000 A 
ATOM     16  C   UNL     1       2.011   8.364  17.913  0.00  0.00    +0.000 A 
ATOM     17  C   UNL     1       1.317   9.390  18.560  0.00  0.00    +0.000 A 
ENDBRANCH   1  15
BRANCH  10  18
ATOM     18  C   UNL     1       2.566   4.192  19.410  0.00  0.00    +0.000 A 
ATOM     19  C   UNL     1       1.288   3.698  19.104  0.00  0.00    +0.000 A 
ATOM     20  C   UNL     1       0.559   3.039  20.081  0.00  0.00    +0.000 A 
ATOM     21  N   UNL     1       1.007   2.825  21.334  0.00  0.00    +0.000 NA
ATOM     22  C   UNL     1       2.216   3.337  21.635  0.00  0.00    +0.000 A 
ATOM     23  C   UNL     1       3.001   4.040  20.734  0.00  0.00    +0.000 A 
ENDBRANCH  10  18
TORSDOF 2
ENDMDL
MODEL 7
REMARK VINA RESULT:      -8.1      2.777      4.304
REMARK  Name = 
REMARK  2 active torsions:
REMARK  status: ('A' for Active; 'I' for Inactive)
REMARK    1  A    between atoms: C_5  and  C_6
REMARK    2  A    between atoms: C_15  and  C_16
REMARK                            x       y       z     vdW  Elec       q    Type
REMARK                         _______ _______ _______ _____ _____    ______ ____
ROOT
ATOM      1  C   UNL     1       5.249   5.043  16.186  0.00  0.00    +0.000 A 
ATOM      2  N   UNL     1       4.730   4.302  15.162  0.00  0.00    +0.000 NA
ATOM      3  C   UNL     1       5.486   4.122  14.068  0.00  0.00    +0.000 A 
ATOM      4  C   UNL     1       4.992   3.368  13.010  0.00  0.00    +0.000 A 
ATOM      5  C   UNL     1       5.730   3.182  11.842  0.00  0.00    +0.000 A 
ATOM      6  C   UNL     1       6.986   3.762  11.726  0.00  0.00    +0.000 A 
ATOM      7  C   UNL     1       7.498   4.506  12.793  0.00  0.00    +0.000 A 
ATOM      8  C   UNL     1       6.774   4.683  13.966  0.00  0.00    +0.000 A 
ATOM      9  N   UNL     1       7.312   5.378  14.984  0.00  0.00    +0.000 NA
ATOM     10  C   UNL     1       6.565   5.539  16.117  0.00  0.00    +0.000 A 
ENDROOT
BRANCH   1  15
ATOM     11  F   UNL     1       1.731   5.792  20.531  0.00  0.00    +0.000 F 
ATOM     12  C   UNL     1       2.540   5.614  19.479  0.00  0.00    +0.000 A 
ATOM     13  C   UNL     1       3.022   4.346  19.192  0.00  0.00    +0.000 A 
ATOM     14  C   UNL     1       3.894   4.168  18.113  0.00  0.00    +0.000 A 
ATOM     15  C   UNL     1       4.290   5.251  17.299  0.00  0.00    +0.000 A 
ATOM     16  C   UNL     1       3.724   6.511  17.586  0.00  0.00    +0.000 A 
ATOM     17  C   UNL     1       2.881   6.699  18.685  0.00  0.00    +0.000 A 
ENDBRANCH   1  15
BRANCH  10  18
ATOM     18  C   UNL     1       7.288   6.256  17.196  0.00  0.00    +0.000 A 
ATOM     19  C   UNL     1       7.565   7.627  17.078  0.00  0.00    +0.000 A 
ATOM     20  C   UNL     1       8.186   8.291  18.124  0.00  0.00    +0.000 A 
ATOM     21  N   UNL     1       8.541   7.700  19.281  0.00  0.00    +0.000 NA
ATOM     22  C   UNL     1       8.311   6.377  19.375  0.00  0.00    +0.000 A 
ATOM     23  C   UNL     1       7.728   5.622  18.367  0.00  0.00    +0.000 A 
ENDBRANCH  10  18
TORSDOF 2
ENDMDL
MODEL 8
REMARK VINA RESULT:      -8.0      3.603      6.456
REMARK  Name = 
REMARK  2 active torsions:
REMARK  status: ('A' for Active; 'I' for Inactive)
REMARK    1  A    between atoms: C_5  and  C_6
REMARK    2  A    between atoms: C_15  and  C_16
REMARK                            x       y       z     vdW  Elec       q    Type
REMARK                         _______ _______ _______ _____ _____    ______ ____
ROOT
ATOM      1  C   UNL     1       4.733   4.415  16.839  0.00  0.00    +0.000 A 
ATOM      2  N   UNL     1       3.591   3.665  16.849  0.00  0.00    +0.000 NA
ATOM      3  C   UNL     1       2.891   3.597  17.991  0.00  0.00    +0.000 A 
ATOM      4  C   UNL     1       1.721   2.848  18.034  0.00  0.00    +0.000 A 
ATOM      5  C   UNL     1       0.978   2.725  19.208  0.00  0.00    +0.000 A 
ATOM      6  C   UNL     1       1.413   3.360  20.363  0.00  0.00    +0.000 A 
ATOM      7  C   UNL     1       2.578   4.131  20.324  0.00  0.00    +0.000 A 
ATOM      8  C   UNL     1       3.315   4.271  19.153  0.00  0.00    +0.000 A 
ATOM      9  N   UNL     1       4.413   5.047  19.144  0.00  0.00    +0.000 NA
ATOM     10  C   UNL     1       5.117   5.151  17.978  0.00  0.00    +0.000 A 
ENDROOT
BRANCH   1  15
ATOM     11  F   UNL     1       7.430   4.252  11.889  0.00  0.00    +0.000 F 
ATOM     12  C   UNL     1       6.805   4.262  13.072  0.00  0.00    +0.000 A 
ATOM     13  C   UNL     1       5.481   3.855  13.151  0.00  0.00    +0.000 A 
ATOM     14  C   UNL     1       4.819   3.898  14.382  0.00  0.00    +0.000 A 
ATOM     15  C   UNL     1       5.470   4.339  15.554  0.00  0.00    +0.000 A 
ATOM     16  C   UNL     1       6.834   4.681  15.441  0.00  0.00    +0.000 A 
ATOM     17  C   UNL     1       7.488   4.674  14.207  0.00  0.00    +0.000 A 
ENDBRANCH   1  15
BRANCH  10  18
ATOM     18  C   UNL     1       6.262   6.090  18.067  0.00  0.00    +0.000 A 
ATOM     19  C   UNL     1       6.278   7.267  17.302  0.00  0.00    +0.000 A 
ATOM     20  C   UNL     1       7.326   8.161  17.447  0.00  0.00    +0.000 A 
ATOM     21  N   UNL     1       8.353   7.980  18.300  0.00  0.00    +0.000 NA
ATOM     22  C   UNL     1       8.356   6.831  19.002  0.00  0.00    +0.000 A 
ATOM     23  C   UNL     1       7.369   5.862  18.897  0.00  0.00    +0.000 A 
ENDBRANCH  10  18
TORSDOF 2
ENDMDL
MODEL 9
REMARK VINA RESULT:      -7.9      3.626      6.376
REMARK  Name = 
REMARK  2 active torsions:
REMARK  status: ('A' for Active; 'I' for Inactive)
REMARK    1  A    between atoms: C_5  and  C_6
REMARK    2  A    between atoms: C_15  and  C_16
REMARK                            x       y       z     vdW  Elec       q    Type
REMARK                         _______ _______ _______ _____ _____    ______ ____
ROOT
ATOM      1  C   UNL     1       4.712   4.358  16.858  0.00  0.00    +0.000 A 
ATOM      2  N   UNL     1       3.591   3.576  16.894  0.00  0.00    +0.000 NA
ATOM      3  C   UNL     1       2.935   3.468  18.059  0.00  0.00    +0.000 A 
ATOM      4  C   UNL     1       1.788   2.686  18.129  0.00  0.00    +0.000 A 
ATOM      5  C   UNL     1       1.092   2.522  19.326  0.00  0.00    +0.000 A 
ATOM      6  C   UNL     1       1.551   3.147  20.477  0.00  0.00    +0.000 A 
ATOM      7  C   UNL     1       2.693   3.951  20.411  0.00  0.00    +0.000 A 
ATOM      8  C   UNL     1       3.383   4.132  19.218  0.00  0.00    +0.000 A 
ATOM      9  N   UNL     1       4.459   4.938  19.185  0.00  0.00    +0.000 NA
ATOM     10  C   UNL     1       5.117   5.082  17.996  0.00  0.00    +0.000 A 
ENDROOT
BRANCH   1  15
ATOM     11  F   UNL     1       7.445   4.107  11.931  0.00  0.00    +0.000 F 
ATOM     12  C   UNL     1       6.783   4.195  13.091  0.00  0.00    +0.000 A 
ATOM     13  C   UNL     1       7.447   4.634  14.227  0.00  0.00    +0.000 A 
ATOM     14  C   UNL     1       6.762   4.694  15.445  0.00  0.00    +0.000 A 
ATOM     15  C   UNL     1       5.403   4.326  15.546  0.00  0.00    +0.000 A 
ATOM     16  C   UNL     1       4.750   3.949  14.354  0.00  0.00    +0.000 A 
ATOM     17  C   UNL     1       5.440   3.853  13.142  0.00  0.00    +0.000 A 
ENDBRANCH   1  15
BRANCH  10  18
ATOM     18  C   UNL     1       6.239   6.051  18.063  0.00  0.00    +0.000 A 
ATOM     19  C   UNL     1       6.198   7.239  17.317  0.00  0.00    +0.000 A 
ATOM     20  C   UNL     1       7.226   8.160  17.441  0.00  0.00    +0.000 A 
ATOM     21  N   UNL     1       8.286   7.994  18.257  0.00  0.00    +0.000 NA
ATOM     22  C   UNL     1       8.342   6.834  18.939  0.00  0.00    +0.000 A 
ATOM     23  C   UNL     1       7.379   5.840  18.851  0.00  0.00    +0.000 A 
ENDBRANCH  10  18
TORSDOF 2
ENDMDL
