MODEL 1
REMARK VINA RESULT:      -8.4      0.000      0.000
REMARK  Name = 
REMARK  12 active torsions:
REMARK  status: ('A' for Active; 'I' for Inactive)
REMARK    1  A    between atoms: C_1  and  O_2
REMARK    2  A    between atoms: O_2  and  C_3
REMARK    3  A    between atoms: C_3  and  C_5
REMARK    4  A    between atoms: C_5  and  C_6
REMARK    5  A    between atoms: C_9  and  C_10
REMARK    6  A    between atoms: C_10  and  N_11
REMARK    7  A    between atoms: C_12  and  C_14
REMARK    8  A    between atoms: C_19  and  C_21
REMARK    9  A    between atoms: C_21  and  C_22
REMARK   10  A    between atoms: C_22  and  N_23
REMARK   11  A    between atoms: C_22  and  C_24
REMARK   12  A    between atoms: C_24  and  C_25
REMARK                            x       y       z     vdW  Elec       q    Type
REMARK                         _______ _______ _______ _____ _____    ______ ____
ROOT
ATOM      1  C   UNL     1       2.419   4.565  18.672  0.00  0.00    +0.000 C 
ATOM      2  C   UNL     1       1.803   3.161  18.642  0.00  0.00    +0.000 C 
ATOM      3  S   UNL     1       3.192   1.986  18.581  0.00  0.00    +0.000 S 
ATOM      4  C   UNL     1       4.383   3.208  19.153  0.00  0.00    +0.000 C 
ATOM      5  N   UNL     1       3.898   4.461  18.626  0.00  0.00    +0.000 N 
ATOM      6  C   UNL     1       4.641   5.484  18.081  0.00  0.00    +0.000 C 
ATOM      7  O   UNL     1       4.083   6.485  17.628  0.00  0.00    +0.000 OA
ENDROOT
BRANCH   1   9
ATOM      8  N   UNL     1       2.340   6.647  19.998  0.00  0.00    +0.000 N 
ATOM      9  C   UNL     1       1.919   5.338  19.918  0.00  0.00    +0.000 C 
ATOM     10  O   UNL     1       1.131   4.848  20.725  0.00  0.00    +0.000 OA
ATOM     11  H   UNL     1       2.689   7.060  19.147  0.00  0.00    +0.000 HD
BRANCH   8  12
ATOM     12  C   UNL     1       1.809   7.570  20.965  0.00  0.00    +0.000 C 
BRANCH  12  16
ATOM     13  C   UNL     1      -0.331  10.741  18.952  0.00  0.00    +0.000 A 
ATOM     14  C   UNL     1       0.640   9.999  18.265  0.00  0.00    +0.000 A 
ATOM     15  C   UNL     1       1.355   8.993  18.920  0.00  0.00    +0.000 A 
ATOM     16  C   UNL     1       1.105   8.705  20.269  0.00  0.00    +0.000 A 
ATOM     17  C   UNL     1       0.188   9.499  20.971  0.00  0.00    +0.000 A 
ATOM     18  C   UNL     1      -0.529  10.502  20.317  0.00  0.00    +0.000 A 
BRANCH  13  19
ATOM     19  C   UNL     1      -1.224  11.704  18.213  0.00  0.00    +0.000 C 
BRANCH  19  20
ATOM     20  C   UNL     1      -2.567  11.081  17.895  0.00  0.00    +0.000 C 
ATOM     21  O   UNL     1      -2.718  10.094  17.185  0.00  0.00    +0.000 OA
BRANCH  20  23
ATOM     22  C   UNL     1      -4.869  11.214  18.305  0.00  0.00    +0.000 C 
ATOM     23  O   UNL     1      -3.576  11.798  18.466  0.00  0.00    +0.000 OA
ENDBRANCH  20  23
ENDBRANCH  19  20
ENDBRANCH  13  19
ENDBRANCH  12  16
ENDBRANCH   8  12
ENDBRANCH   1   9
BRANCH   6  24
ATOM     24  C   UNL     1       6.151   5.384  18.165  0.00  0.00    +0.000 C 
BRANCH  24  25
ATOM     25  C   UNL     1       6.776   4.667  16.949  0.00  0.00    +0.000 C 
BRANCH  25  26
ATOM     26  N   UNL     1       8.108   4.165  17.351  0.00  0.00    +0.000 NA
ATOM     27  H   UNL     1       8.190   3.164  17.181  0.00  0.00    +0.000 HD
ATOM     28  H   UNL     1       8.237   4.290  18.355  0.00  0.00    +0.000 HD
ENDBRANCH  25  26
BRANCH  25  29
ATOM     29  C   UNL     1       6.863   5.571  15.684  0.00  0.00    +0.000 C 
BRANCH  29  30
ATOM     30  C   UNL     1       6.609   4.846  14.376  0.00  0.00    +0.000 A 
ATOM     31  C   UNL     1       5.451   4.075  14.189  0.00  0.00    +0.000 A 
ATOM     32  C   UNL     1       5.239   3.382  12.993  0.00  0.00    +0.000 A 
ATOM     33  C   UNL     1       6.173   3.459  11.960  0.00  0.00    +0.000 A 
ATOM     34  C   UNL     1       7.311   4.247  12.120  0.00  0.00    +0.000 A 
ATOM     35  C   UNL     1       7.517   4.934  13.316  0.00  0.00    +0.000 A 
ATOM     36  F   UNL     1       8.620   5.686  13.439  0.00  0.00    +0.000 F 
ENDBRANCH  29  30
ENDBRANCH  25  29
ENDBRANCH  24  25
ENDBRANCH   6  24
TORSDOF 11
ENDMDL
MODEL 2
REMARK VINA RESULT:      -8.1      1.704      2.453
REMARK  Name = 
REMARK  12 active torsions:
REMARK  status: ('A' for Active; 'I' for Inactive)
REMARK    1  A    between atoms: C_1  and  O_2
REMARK    2  A    between atoms: O_2  and  C_3
REMARK    3  A    between atoms: C_3  and  C_5
REMARK    4  A    between atoms: C_5  and  C_6
REMARK    5  A    between atoms: C_9  and  C_10
REMARK    6  A    between atoms: C_10  and  N_11
REMARK    7  A    between atoms: C_12  and  C_14
REMARK    8  A    between atoms: C_19  and  C_21
REMARK    9  A    between atoms: C_21  and  C_22
REMARK   10  A    between atoms: C_22  and  N_23
REMARK   11  A    between atoms: C_22  and  C_24
REMARK   12  A    between atoms: C_24  and  C_25
REMARK                            x       y       z     vdW  Elec       q    Type
REMARK                         _______ _______ _______ _____ _____    ______ ____
ROOT
ATOM      1  C   UNL     1       2.460   4.607  18.714  0.00  0.00    +0.000 C 
ATOM      2  C   UNL     1       1.796   3.230  18.589  0.00  0.00    +0.000 C 
ATOM      3  S   UNL     1       3.142   2.006  18.541  0.00  0.00    +0.000 S 
ATOM      4  C   UNL     1       4.347   3.154  19.226  0.00  0.00    +0.000 C 
ATOM      5  N   UNL     1       3.935   4.447  18.734  0.00  0.00    +0.000 N 
ATOM      6  C   UNL     1       4.742   5.463  18.273  0.00  0.00    +0.000 C 
ATOM      7  O   UNL     1       4.244   6.505  17.841  0.00  0.00    +0.000 OA
ENDROOT
BRANCH   1   9
ATOM      8  N   UNL     1       2.243   6.682  20.035  0.00  0.00    +0.000 N 
ATOM      9  C   UNL     1       1.927   5.343  19.969  0.00  0.00    +0.000 C 
ATOM     10  O   UNL     1       1.200   4.794  20.795  0.00  0.00    +0.000 OA
ATOM     11  H   UNL     1       2.539   7.117  19.175  0.00  0.00    +0.000 HD
BRANCH   8  12
ATOM     12  C   UNL     1       1.661   7.563  21.011  0.00  0.00    +0.000 C 
BRANCH  12  16
ATOM     13  C   UNL     1      -0.077  11.025  19.094  0.00  0.00    +0.000 A 
ATOM     14  C   UNL     1      -0.541  10.607  20.349  0.00  0.00    +0.000 A 
ATOM     15  C   UNL     1      -0.003   9.471  20.959  0.00  0.00    +0.000 A 
ATOM     16  C   UNL     1       1.015   8.741  20.330  0.00  0.00    +0.000 A 
ATOM     17  C   UNL     1       1.423   9.119  19.044  0.00  0.00    +0.000 A 
ATOM     18  C   UNL     1       0.888  10.255  18.435  0.00  0.00    +0.000 A 
BRANCH  13  19
ATOM     19  C   UNL     1      -0.527  12.341  18.511  0.00  0.00    +0.000 C 
BRANCH  19  20
ATOM     20  C   UNL     1      -0.064  13.508  19.356  0.00  0.00    +0.000 C 
ATOM     21  O   UNL     1      -0.807  14.377  19.798  0.00  0.00    +0.000 OA
BRANCH  20  23
ATOM     22  C   UNL     1       1.736  13.888  20.805  0.00  0.00    +0.000 C 
ATOM     23  O   UNL     1       1.290  13.482  19.511  0.00  0.00    +0.000 OA
ENDBRANCH  20  23
ENDBRANCH  19  20
ENDBRANCH  13  19
ENDBRANCH  12  16
ENDBRANCH   8  12
ENDBRANCH   1   9
BRANCH   6  24
ATOM     24  C   UNL     1       6.241   5.301  18.425  0.00  0.00    +0.000 C 
BRANCH  24  25
ATOM     25  C   UNL     1       6.901   4.629  17.202  0.00  0.00    +0.000 C 
BRANCH  25  26
ATOM     26  N   UNL     1       8.230   4.130  17.618  0.00  0.00    +0.000 NA
ATOM     27  H   UNL     1       8.198   3.747  18.562  0.00  0.00    +0.000 HD
ATOM     28  H   UNL     1       8.895   4.902  17.651  0.00  0.00    +0.000 HD
ENDBRANCH  25  26
BRANCH  25  29
ATOM     29  C   UNL     1       7.005   5.572  15.968  0.00  0.00    +0.000 C 
BRANCH  29  30
ATOM     30  C   UNL     1       6.742   4.896  14.637  0.00  0.00    +0.000 A 
ATOM     31  C   UNL     1       7.678   4.963  13.592  0.00  0.00    +0.000 A 
ATOM     32  C   UNL     1       7.413   4.365  12.356  0.00  0.00    +0.000 A 
ATOM     33  C   UNL     1       6.217   3.679  12.148  0.00  0.00    +0.000 A 
ATOM     34  C   UNL     1       5.293   3.576  13.185  0.00  0.00    +0.000 A 
ATOM     35  C   UNL     1       5.562   4.177  14.415  0.00  0.00    +0.000 A 
ATOM     36  F   UNL     1       4.656   4.058  15.396  0.00  0.00    +0.000 F 
ENDBRANCH  29  30
ENDBRANCH  25  29
ENDBRANCH  24  25
ENDBRANCH   6  24
TORSDOF 11
ENDMDL
MODEL 3
REMARK VINA RESULT:      -8.1      1.412      1.987
REMARK  Name = 
REMARK  12 active torsions:
REMARK  status: ('A' for Active; 'I' for Inactive)
REMARK    1  A    between atoms: C_1  and  O_2
REMARK    2  A    between atoms: O_2  and  C_3
REMARK    3  A    between atoms: C_3  and  C_5
REMARK    4  A    between atoms: C_5  and  C_6
REMARK    5  A    between atoms: C_9  and  C_10
REMARK    6  A    between atoms: C_10  and  N_11
REMARK    7  A    between atoms: C_12  and  C_14
REMARK    8  A    between atoms: C_19  and  C_21
REMARK    9  A    between atoms: C_21  and  C_22
REMARK   10  A    between atoms: C_22  and  N_23
REMARK   11  A    between atoms: C_22  and  C_24
REMARK   12  A    between atoms: C_24  and  C_25
REMARK                            x       y       z     vdW  Elec       q    Type
REMARK                         _______ _______ _______ _____ _____    ______ ____
ROOT
ATOM      1  C   UNL     1       2.451   4.403  18.720  0.00  0.00    +0.000 C 
ATOM      2  C   UNL     1       1.873   2.985  18.650  0.00  0.00    +0.000 C 
ATOM      3  S   UNL     1       3.291   1.844  18.650  0.00  0.00    +0.000 S 
ATOM      4  C   UNL     1       4.422   3.090  19.289  0.00  0.00    +0.000 C 
ATOM      5  N   UNL     1       3.933   4.335  18.746  0.00  0.00    +0.000 N 
ATOM      6  C   UNL     1       4.677   5.380  18.244  0.00  0.00    +0.000 C 
ATOM      7  O   UNL     1       4.117   6.370  17.771  0.00  0.00    +0.000 OA
ENDROOT
BRANCH   1   9
ATOM      8  N   UNL     1       2.367   6.426  20.134  0.00  0.00    +0.000 N 
ATOM      9  C   UNL     1       1.872   5.154  19.945  0.00  0.00    +0.000 C 
ATOM     10  O   UNL     1       0.971   4.686  20.639  0.00  0.00    +0.000 OA
ATOM     11  H   UNL     1       2.831   6.849  19.346  0.00  0.00    +0.000 HD
BRANCH   8  12
ATOM     12  C   UNL     1       1.796   7.341  21.086  0.00  0.00    +0.000 C 
BRANCH  12  16
ATOM     13  C   UNL     1      -0.184  10.574  19.010  0.00  0.00    +0.000 A 
ATOM     14  C   UNL     1       0.831   9.845  18.375  0.00  0.00    +0.000 A 
ATOM     15  C   UNL     1       1.495   8.819  19.052  0.00  0.00    +0.000 A 
ATOM     16  C   UNL     1       1.147   8.497  20.372  0.00  0.00    +0.000 A 
ATOM     17  C   UNL     1       0.185   9.277  21.027  0.00  0.00    +0.000 A 
ATOM     18  C   UNL     1      -0.481  10.300  20.350  0.00  0.00    +0.000 A 
BRANCH  13  19
ATOM     19  C   UNL     1      -1.019  11.560  18.234  0.00  0.00    +0.000 C 
BRANCH  19  20
ATOM     20  C   UNL     1      -1.042  12.916  18.906  0.00  0.00    +0.000 C 
ATOM     21  O   UNL     1      -1.854  13.247  19.763  0.00  0.00    +0.000 OA
BRANCH  20  23
ATOM     22  C   UNL     1       0.988  14.013  19.306  0.00  0.00    +0.000 C 
ATOM     23  O   UNL     1      -0.070  13.723  18.393  0.00  0.00    +0.000 OA
ENDBRANCH  20  23
ENDBRANCH  19  20
ENDBRANCH  13  19
ENDBRANCH  12  16
ENDBRANCH   8  12
ENDBRANCH   1   9
BRANCH   6  24
ATOM     24  C   UNL     1       6.183   5.315  18.402  0.00  0.00    +0.000 C 
BRANCH  24  25
ATOM     25  C   UNL     1       6.885   4.631  17.209  0.00  0.00    +0.000 C 
BRANCH  25  26
ATOM     26  N   UNL     1       8.193   4.127  17.678  0.00  0.00    +0.000 NA
ATOM     27  H   UNL     1       8.126   3.154  17.975  0.00  0.00    +0.000 HD
ATOM     28  H   UNL     1       8.491   4.650  18.502  0.00  0.00    +0.000 HD
ENDBRANCH  25  26
BRANCH  25  29
ATOM     29  C   UNL     1       7.043   5.567  15.974  0.00  0.00    +0.000 C 
BRANCH  29  30
ATOM     30  C   UNL     1       6.745   4.904  14.643  0.00  0.00    +0.000 A 
ATOM     31  C   UNL     1       7.647   4.996  13.571  0.00  0.00    +0.000 A 
ATOM     32  C   UNL     1       7.351   4.411  12.336  0.00  0.00    +0.000 A 
ATOM     33  C   UNL     1       6.157   3.714  12.156  0.00  0.00    +0.000 A 
ATOM     34  C   UNL     1       5.267   3.586  13.220  0.00  0.00    +0.000 A 
ATOM     35  C   UNL     1       5.568   4.174  14.449  0.00  0.00    +0.000 A 
ATOM     36  F   UNL     1       4.695   4.032  15.456  0.00  0.00    +0.000 F 
ENDBRANCH  29  30
ENDBRANCH  25  29
ENDBRANCH  24  25
ENDBRANCH   6  24
TORSDOF 11
ENDMDL
MODEL 4
REMARK VINA RESULT:      -8.0      1.405      1.800
REMARK  Name = 
REMARK  12 active torsions:
REMARK  status: ('A' for Active; 'I' for Inactive)
REMARK    1  A    between atoms: C_1  and  O_2
REMARK    2  A    between atoms: O_2  and  C_3
REMARK    3  A    between atoms: C_3  and  C_5
REMARK    4  A    between atoms: C_5  and  C_6
REMARK    5  A    between atoms: C_9  and  C_10
REMARK    6  A    between atoms: C_10  and  N_11
REMARK    7  A    between atoms: C_12  and  C_14
REMARK    8  A    between atoms: C_19  and  C_21
REMARK    9  A    between atoms: C_21  and  C_22
REMARK   10  A    between atoms: C_22  and  N_23
REMARK   11  A    between atoms: C_22  and  C_24
REMARK   12  A    between atoms: C_24  and  C_25
REMARK                            x       y       z     vdW  Elec       q    Type
REMARK                         _______ _______ _______ _____ _____    ______ ____
ROOT
ATOM      1  C   UNL     1       2.505   5.057  18.619  0.00  0.00    +0.000 C 
ATOM      2  C   UNL     1       1.715   3.763  18.388  0.00  0.00    +0.000 C 
ATOM      3  S   UNL     1       2.941   2.439  18.155  0.00  0.00    +0.000 S 
ATOM      4  C   UNL     1       4.270   3.401  18.895  0.00  0.00    +0.000 C 
ATOM      5  N   UNL     1       3.959   4.769  18.555  0.00  0.00    +0.000 N 
ATOM      6  C   UNL     1       4.836   5.755  18.160  0.00  0.00    +0.000 C 
ATOM      7  O   UNL     1       4.419   6.874  17.858  0.00  0.00    +0.000 OA
ENDROOT
BRANCH   1   9
ATOM      8  N   UNL     1       2.133   7.078  19.988  0.00  0.00    +0.000 N 
ATOM      9  C   UNL     1       2.088   5.702  19.964  0.00  0.00    +0.000 C 
ATOM     10  O   UNL     1       1.662   5.039  20.908  0.00  0.00    +0.000 OA
ATOM     11  H   UNL     1       2.161   7.542  19.093  0.00  0.00    +0.000 HD
BRANCH   8  12
ATOM     12  C   UNL     1       1.585   7.849  21.071  0.00  0.00    +0.000 C 
BRANCH  12  16
ATOM     13  C   UNL     1      -0.397  11.374  19.548  0.00  0.00    +0.000 A 
ATOM     14  C   UNL     1       0.426  10.610  18.709  0.00  0.00    +0.000 A 
ATOM     15  C   UNL     1       1.093   9.487  19.205  0.00  0.00    +0.000 A 
ATOM     16  C   UNL     1       0.939   9.103  20.544  0.00  0.00    +0.000 A 
ATOM     17  C   UNL     1       0.175   9.911  21.396  0.00  0.00    +0.000 A 
ATOM     18  C   UNL     1      -0.494  11.031  20.901  0.00  0.00    +0.000 A 
BRANCH  13  19
ATOM     19  C   UNL     1      -1.253  12.479  18.982  0.00  0.00    +0.000 C 
BRANCH  19  20
ATOM     20  C   UNL     1      -1.277  13.684  19.897  0.00  0.00    +0.000 C 
ATOM     21  O   UNL     1      -2.228  13.992  20.606  0.00  0.00    +0.000 OA
BRANCH  20  23
ATOM     22  C   UNL     1      -0.153  15.400  18.769  0.00  0.00    +0.000 C 
ATOM     23  O   UNL     1      -0.121  14.397  19.784  0.00  0.00    +0.000 OA
ENDBRANCH  20  23
ENDBRANCH  19  20
ENDBRANCH  13  19
ENDBRANCH  12  16
ENDBRANCH   8  12
ENDBRANCH   1   9
BRANCH   6  24
ATOM     24  C   UNL     1       6.319   5.449  18.226  0.00  0.00    +0.000 C 
BRANCH  24  25
ATOM     25  C   UNL     1       6.834   4.692  16.982  0.00  0.00    +0.000 C 
BRANCH  25  26
ATOM     26  N   UNL     1       8.143   4.094  17.321  0.00  0.00    +0.000 NA
ATOM     27  H   UNL     1       8.766   4.094  16.515  0.00  0.00    +0.000 HD
ATOM     28  H   UNL     1       8.019   3.114  17.579  0.00  0.00    +0.000 HD
ENDBRANCH  25  26
BRANCH  25  29
ATOM     29  C   UNL     1       6.927   5.591  15.714  0.00  0.00    +0.000 C 
BRANCH  29  30
ATOM     30  C   UNL     1       6.637   4.872  14.411  0.00  0.00    +0.000 A 
ATOM     31  C   UNL     1       5.480   4.090  14.259  0.00  0.00    +0.000 A 
ATOM     32  C   UNL     1       5.236   3.402  13.067  0.00  0.00    +0.000 A 
ATOM     33  C   UNL     1       6.133   3.495  12.003  0.00  0.00    +0.000 A 
ATOM     34  C   UNL     1       7.267   4.293  12.128  0.00  0.00    +0.000 A 
ATOM     35  C   UNL     1       7.507   4.975  13.321  0.00  0.00    +0.000 A 
ATOM     36  F   UNL     1       8.605   5.739  13.411  0.00  0.00    +0.000 F 
ENDBRANCH  29  30
ENDBRANCH  25  29
ENDBRANCH  24  25
ENDBRANCH   6  24
TORSDOF 11
ENDMDL
MODEL 5
REMARK VINA RESULT:      -7.9      1.879      2.223
REMARK  Name = 
REMARK  12 active torsions:
REMARK  status: ('A' for Active; 'I' for Inactive)
REMARK    1  A    between atoms: C_1  and  O_2
REMARK    2  A    between atoms: O_2  and  C_3
REMARK    3  A    between atoms: C_3  and  C_5
REMARK    4  A    between atoms: C_5  and  C_6
REMARK    5  A    between atoms: C_9  and  C_10
REMARK    6  A    between atoms: C_10  and  N_11
REMARK    7  A    between atoms: C_12  and  C_14
REMARK    8  A    between atoms: C_19  and  C_21
REMARK    9  A    between atoms: C_21  and  C_22
REMARK   10  A    between atoms: C_22  and  N_23
REMARK   11  A    between atoms: C_22  and  C_24
REMARK   12  A    between atoms: C_24  and  C_25
REMARK                            x       y       z     vdW  Elec       q    Type
REMARK                         _______ _______ _______ _____ _____    ______ ____
ROOT
ATOM      1  C   UNL     1       2.537   4.709  18.946  0.00  0.00    +0.000 C 
ATOM      2  C   UNL     1       1.832   3.350  18.853  0.00  0.00    +0.000 C 
ATOM      3  S   UNL     1       3.141   2.088  18.776  0.00  0.00    +0.000 S 
ATOM      4  C   UNL     1       4.398   3.208  19.415  0.00  0.00    +0.000 C 
ATOM      5  N   UNL     1       4.007   4.508  18.924  0.00  0.00    +0.000 N 
ATOM      6  C   UNL     1       4.827   5.498  18.429  0.00  0.00    +0.000 C 
ATOM      7  O   UNL     1       4.346   6.549  18.002  0.00  0.00    +0.000 OA
ENDROOT
BRANCH   1   9
ATOM      8  N   UNL     1       2.061   6.842  20.094  0.00  0.00    +0.000 N 
ATOM      9  C   UNL     1       2.063   5.470  20.208  0.00  0.00    +0.000 C 
ATOM     10  O   UNL     1       1.633   4.890  21.204  0.00  0.00    +0.000 OA
ATOM     11  H   UNL     1       2.098   7.215  19.158  0.00  0.00    +0.000 HD
BRANCH   8  12
ATOM     12  C   UNL     1       1.459   7.698  21.081  0.00  0.00    +0.000 C 
BRANCH  12  16
ATOM     13  C   UNL     1       0.168  11.430  19.324  0.00  0.00    +0.000 A 
ATOM     14  C   UNL     1       0.527  10.352  18.504  0.00  0.00    +0.000 A 
ATOM     15  C   UNL     1       0.973   9.153  19.067  0.00  0.00    +0.000 A 
ATOM     16  C   UNL     1       1.058   9.009  20.458  0.00  0.00    +0.000 A 
ATOM     17  C   UNL     1       0.770  10.113  21.271  0.00  0.00    +0.000 A 
ATOM     18  C   UNL     1       0.321  11.310  20.710  0.00  0.00    +0.000 A 
BRANCH  13  19
ATOM     19  C   UNL     1      -0.476  12.659  18.735  0.00  0.00    +0.000 C 
BRANCH  19  20
ATOM     20  C   UNL     1       0.505  13.808  18.642  0.00  0.00    +0.000 C 
ATOM     21  O   UNL     1       1.698  13.677  18.391  0.00  0.00    +0.000 OA
BRANCH  20  23
ATOM     22  C   UNL     1      -0.748  15.027  20.200  0.00  0.00    +0.000 C 
ATOM     23  O   UNL     1      -0.112  14.991  18.922  0.00  0.00    +0.000 OA
ENDBRANCH  20  23
ENDBRANCH  19  20
ENDBRANCH  13  19
ENDBRANCH  12  16
ENDBRANCH   8  12
ENDBRANCH   1   9
BRANCH   6  24
ATOM     24  C   UNL     1       6.325   5.295  18.539  0.00  0.00    +0.000 C 
BRANCH  24  25
ATOM     25  C   UNL     1       6.936   4.629  17.286  0.00  0.00    +0.000 C 
BRANCH  25  26
ATOM     26  N   UNL     1       8.276   4.118  17.649  0.00  0.00    +0.000 NA
ATOM     27  H   UNL     1       8.885   4.875  17.956  0.00  0.00    +0.000 HD
ATOM     28  H   UNL     1       8.725   3.712  16.828  0.00  0.00    +0.000 HD
ENDBRANCH  25  26
BRANCH  25  29
ATOM     29  C   UNL     1       7.001   5.582  16.057  0.00  0.00    +0.000 C 
BRANCH  29  30
ATOM     30  C   UNL     1       6.724   4.910  14.726  0.00  0.00    +0.000 A 
ATOM     31  C   UNL     1       7.652   4.978  13.674  0.00  0.00    +0.000 A 
ATOM     32  C   UNL     1       7.375   4.384  12.439  0.00  0.00    +0.000 A 
ATOM     33  C   UNL     1       6.176   3.701  12.239  0.00  0.00    +0.000 A 
ATOM     34  C   UNL     1       5.261   3.597  13.284  0.00  0.00    +0.000 A 
ATOM     35  C   UNL     1       5.542   4.193  14.513  0.00  0.00    +0.000 A 
ATOM     36  F   UNL     1       4.644   4.074  15.501  0.00  0.00    +0.000 F 
ENDBRANCH  29  30
ENDBRANCH  25  29
ENDBRANCH  24  25
ENDBRANCH   6  24
TORSDOF 11
ENDMDL
MODEL 6
REMARK VINA RESULT:      -7.9      0.580      1.136
REMARK  Name = 
REMARK  12 active torsions:
REMARK  status: ('A' for Active; 'I' for Inactive)
REMARK    1  A    between atoms: C_1  and  O_2
REMARK    2  A    between atoms: O_2  and  C_3
REMARK    3  A    between atoms: C_3  and  C_5
REMARK    4  A    between atoms: C_5  and  C_6
REMARK    5  A    between atoms: C_9  and  C_10
REMARK    6  A    between atoms: C_10  and  N_11
REMARK    7  A    between atoms: C_12  and  C_14
REMARK    8  A    between atoms: C_19  and  C_21
REMARK    9  A    between atoms: C_21  and  C_22
REMARK   10  A    between atoms: C_22  and  N_23
REMARK   11  A    between atoms: C_22  and  C_24
REMARK   12  A    between atoms: C_24  and  C_25
REMARK                            x       y       z     vdW  Elec       q    Type
REMARK                         _______ _______ _______ _____ _____    ______ ____
ROOT
ATOM      1  C   UNL     1       2.592   4.756  18.596  0.00  0.00    +0.000 C 
ATOM      2  C   UNL     1       2.128   3.296  18.658  0.00  0.00    +0.000 C 
ATOM      3  S   UNL     1       3.629   2.270  18.579  0.00  0.00    +0.000 S 
ATOM      4  C   UNL     1       4.709   3.635  19.037  0.00  0.00    +0.000 C 
ATOM      5  N   UNL     1       4.071   4.804  18.480  0.00  0.00    +0.000 N 
ATOM      6  C   UNL     1       4.675   5.870  17.853  0.00  0.00    +0.000 C 
ATOM      7  O   UNL     1       3.994   6.785  17.386  0.00  0.00    +0.000 OA
ENDROOT
BRANCH   1   9
ATOM      8  N   UNL     1       2.463   6.852  19.896  0.00  0.00    +0.000 N 
ATOM      9  C   UNL     1       2.070   5.533  19.830  0.00  0.00    +0.000 C 
ATOM     10  O   UNL     1       1.288   5.036  20.639  0.00  0.00    +0.000 OA
ATOM     11  H   UNL     1       2.808   7.261  19.041  0.00  0.00    +0.000 HD
BRANCH   8  12
ATOM     12  C   UNL     1       1.908   7.775  20.849  0.00  0.00    +0.000 C 
BRANCH  12  16
ATOM     13  C   UNL     1      -0.389  10.855  18.870  0.00  0.00    +0.000 A 
ATOM     14  C   UNL     1      -0.812  10.344  20.105  0.00  0.00    +0.000 A 
ATOM     15  C   UNL     1      -0.088   9.327  20.734  0.00  0.00    +0.000 A 
ATOM     16  C   UNL     1       1.074   8.812  20.144  0.00  0.00    +0.000 A 
ATOM     17  C   UNL     1       1.450   9.273  18.875  0.00  0.00    +0.000 A 
ATOM     18  C   UNL     1       0.730  10.291  18.248  0.00  0.00    +0.000 A 
BRANCH  13  19
ATOM     19  C   UNL     1      -1.061  12.065  18.271  0.00  0.00    +0.000 C 
BRANCH  19  20
ATOM     20  C   UNL     1      -2.558  12.034  18.494  0.00  0.00    +0.000 C 
ATOM     21  O   UNL     1      -3.112  12.437  19.510  0.00  0.00    +0.000 OA
BRANCH  20  23
ATOM     22  C   UNL     1      -3.778  10.187  17.729  0.00  0.00    +0.000 C 
ATOM     23  O   UNL     1      -3.189  11.454  17.434  0.00  0.00    +0.000 OA
ENDBRANCH  20  23
ENDBRANCH  19  20
ENDBRANCH  13  19
ENDBRANCH  12  16
ENDBRANCH   8  12
ENDBRANCH   1   9
BRANCH   6  24
ATOM     24  C   UNL     1       6.189   5.932  17.866  0.00  0.00    +0.000 C 
BRANCH  24  25
ATOM     25  C   UNL     1       6.842   4.907  16.913  0.00  0.00    +0.000 C 
BRANCH  25  26
ATOM     26  N   UNL     1       7.896   4.192  17.665  0.00  0.00    +0.000 NA
ATOM     27  H   UNL     1       8.556   3.742  17.033  0.00  0.00    +0.000 HD
ATOM     28  H   UNL     1       7.479   3.441  18.215  0.00  0.00    +0.000 HD
ENDBRANCH  25  26
BRANCH  25  29
ATOM     29  C   UNL     1       7.406   5.553  15.613  0.00  0.00    +0.000 C 
BRANCH  29  30
ATOM     30  C   UNL     1       6.970   4.869  14.332  0.00  0.00    +0.000 A 
ATOM     31  C   UNL     1       5.827   4.054  14.300  0.00  0.00    +0.000 A 
ATOM     32  C   UNL     1       5.450   3.398  13.124  0.00  0.00    +0.000 A 
ATOM     33  C   UNL     1       6.198   3.558  11.958  0.00  0.00    +0.000 A 
ATOM     34  C   UNL     1       7.316   4.389  11.967  0.00  0.00    +0.000 A 
ATOM     35  C   UNL     1       7.688   5.038  13.144  0.00  0.00    +0.000 A 
ATOM     36  F   UNL     1       8.766   5.835  13.121  0.00  0.00    +0.000 F 
ENDBRANCH  29  30
ENDBRANCH  25  29
ENDBRANCH  24  25
ENDBRANCH   6  24
TORSDOF 11
ENDMDL
MODEL 7
REMARK VINA RESULT:      -7.7      1.208      1.628
REMARK  Name = 
REMARK  12 active torsions:
REMARK  status: ('A' for Active; 'I' for Inactive)
REMARK    1  A    between atoms: C_1  and  O_2
REMARK    2  A    between atoms: O_2  and  C_3
REMARK    3  A    between atoms: C_3  and  C_5
REMARK    4  A    between atoms: C_5  and  C_6
REMARK    5  A    between atoms: C_9  and  C_10
REMARK    6  A    between atoms: C_10  and  N_11
REMARK    7  A    between atoms: C_12  and  C_14
REMARK    8  A    between atoms: C_19  and  C_21
REMARK    9  A    between atoms: C_21  and  C_22
REMARK   10  A    between atoms: C_22  and  N_23
REMARK   11  A    between atoms: C_22  and  C_24
REMARK   12  A    between atoms: C_24  and  C_25
REMARK                            x       y       z     vdW  Elec       q    Type
REMARK                         _______ _______ _______ _____ _____    ______ ____
ROOT
ATOM      1  C   UNL     1       2.652   4.882  18.838  0.00  0.00    +0.000 C 
ATOM      2  C   UNL     1       1.991   3.520  18.592  0.00  0.00    +0.000 C 
ATOM      3  S   UNL     1       3.334   2.350  18.218  0.00  0.00    +0.000 S 
ATOM      4  C   UNL     1       4.599   3.421  18.921  0.00  0.00    +0.000 C 
ATOM      5  N   UNL     1       4.121   4.759  18.669  0.00  0.00    +0.000 N 
ATOM      6  C   UNL     1       4.859   5.851  18.271  0.00  0.00    +0.000 C 
ATOM      7  O   UNL     1       4.305   6.930  18.051  0.00  0.00    +0.000 OA
ENDROOT
BRANCH   1   9
ATOM      8  N   UNL     1       2.049   6.779  20.299  0.00  0.00    +0.000 N 
ATOM      9  C   UNL     1       2.259   5.419  20.237  0.00  0.00    +0.000 C 
ATOM     10  O   UNL     1       2.060   4.675  21.195  0.00  0.00    +0.000 OA
ATOM     11  H   UNL     1       1.901   7.252  19.421  0.00  0.00    +0.000 HD
BRANCH   8  12
ATOM     12  C   UNL     1       1.479   7.418  21.454  0.00  0.00    +0.000 C 
BRANCH  12  16
ATOM     13  C   UNL     1      -0.574  11.050  20.325  0.00  0.00    +0.000 A 
ATOM     14  C   UNL     1       0.089  10.285  19.356  0.00  0.00    +0.000 A 
ATOM     15  C   UNL     1       0.780   9.126  19.721  0.00  0.00    +0.000 A 
ATOM     16  C   UNL     1       0.810   8.708  21.059  0.00  0.00    +0.000 A 
ATOM     17  C   UNL     1       0.209   9.516  22.033  0.00  0.00    +0.000 A 
ATOM     18  C   UNL     1      -0.483  10.671  21.669  0.00  0.00    +0.000 A 
BRANCH  13  19
ATOM     19  C   UNL     1      -1.461  12.199  19.918  0.00  0.00    +0.000 C 
BRANCH  19  20
ATOM     20  C   UNL     1      -1.447  12.406  18.419  0.00  0.00    +0.000 C 
ATOM     21  O   UNL     1      -0.570  13.012  17.815  0.00  0.00    +0.000 OA
BRANCH  20  23
ATOM     22  C   UNL     1      -2.294  11.007  16.743  0.00  0.00    +0.000 C 
ATOM     23  O   UNL     1      -2.563  11.869  17.849  0.00  0.00    +0.000 OA
ENDBRANCH  20  23
ENDBRANCH  19  20
ENDBRANCH  13  19
ENDBRANCH  12  16
ENDBRANCH   8  12
ENDBRANCH   1   9
BRANCH   6  24
ATOM     24  C   UNL     1       6.367   5.708  18.229  0.00  0.00    +0.000 C 
BRANCH  24  25
ATOM     25  C   UNL     1       6.857   4.836  17.052  0.00  0.00    +0.000 C 
BRANCH  25  26
ATOM     26  N   UNL     1       8.079   4.127  17.488  0.00  0.00    +0.000 NA
ATOM     27  H   UNL     1       8.913   4.546  17.078  0.00  0.00    +0.000 HD
ATOM     28  H   UNL     1       8.058   3.163  17.154  0.00  0.00    +0.000 HD
ENDBRANCH  25  26
BRANCH  25  29
ATOM     29  C   UNL     1       7.104   5.652  15.748  0.00  0.00    +0.000 C 
BRANCH  29  30
ATOM     30  C   UNL     1       6.751   4.915  14.471  0.00  0.00    +0.000 A 
ATOM     31  C   UNL     1       7.611   4.936  13.362  0.00  0.00    +0.000 A 
ATOM     32  C   UNL     1       7.264   4.282  12.176  0.00  0.00    +0.000 A 
ATOM     33  C   UNL     1       6.060   3.584  12.083  0.00  0.00    +0.000 A 
ATOM     34  C   UNL     1       5.212   3.527  13.187  0.00  0.00    +0.000 A 
ATOM     35  C   UNL     1       5.563   4.183  14.366  0.00  0.00    +0.000 A 
ATOM     36  F   UNL     1       4.729   4.107  15.413  0.00  0.00    +0.000 F 
ENDBRANCH  29  30
ENDBRANCH  25  29
ENDBRANCH  24  25
ENDBRANCH   6  24
TORSDOF 11
ENDMDL
MODEL 8
REMARK VINA RESULT:      -7.7      4.557     11.220
REMARK  Name = 
REMARK  12 active torsions:
REMARK  status: ('A' for Active; 'I' for Inactive)
REMARK    1  A    between atoms: C_1  and  O_2
REMARK    2  A    between atoms: O_2  and  C_3
REMARK    3  A    between atoms: C_3  and  C_5
REMARK    4  A    between atoms: C_5  and  C_6
REMARK    5  A    between atoms: C_9  and  C_10
REMARK    6  A    between atoms: C_10  and  N_11
REMARK    7  A    between atoms: C_12  and  C_14
REMARK    8  A    between atoms: C_19  and  C_21
REMARK    9  A    between atoms: C_21  and  C_22
REMARK   10  A    between atoms: C_22  and  N_23
REMARK   11  A    between atoms: C_22  and  C_24
REMARK   12  A    between atoms: C_24  and  C_25
REMARK                            x       y       z     vdW  Elec       q    Type
REMARK                         _______ _______ _______ _____ _____    ______ ____
ROOT
ATOM      1  C   UNL     1       1.010  10.489  18.167  0.00  0.00    +0.000 C 
ATOM      2  C   UNL     1       2.090  11.554  18.390  0.00  0.00    +0.000 C 
ATOM      3  S   UNL     1       1.232  13.055  18.958  0.00  0.00    +0.000 S 
ATOM      4  C   UNL     1      -0.256  12.153  19.418  0.00  0.00    +0.000 C 
ATOM      5  N   UNL     1      -0.324  11.063  18.475  0.00  0.00    +0.000 N 
ATOM      6  C   UNL     1      -1.445  10.569  17.844  0.00  0.00    +0.000 C 
ATOM      7  O   UNL     1      -1.345   9.654  17.024  0.00  0.00    +0.000 OA
ENDROOT
BRANCH   1   9
ATOM      8  N   UNL     1       1.883   8.184  18.314  0.00  0.00    +0.000 N 
ATOM      9  C   UNL     1       1.321   9.229  19.013  0.00  0.00    +0.000 C 
ATOM     10  O   UNL     1       1.164   9.200  20.233  0.00  0.00    +0.000 OA
ATOM     11  H   UNL     1       2.284   8.407  17.416  0.00  0.00    +0.000 HD
BRANCH   8  12
ATOM     12  C   UNL     1       2.428   7.024  18.968  0.00  0.00    +0.000 C 
BRANCH  12  16
ATOM     13  C   UNL     1       5.611   5.238  16.653  0.00  0.00    +0.000 A 
ATOM     14  C   UNL     1       5.420   6.626  16.635  0.00  0.00    +0.000 A 
ATOM     15  C   UNL     1       4.373   7.205  17.358  0.00  0.00    +0.000 A 
ATOM     16  C   UNL     1       3.508   6.407  18.119  0.00  0.00    +0.000 A 
ATOM     17  C   UNL     1       3.657   5.015  18.074  0.00  0.00    +0.000 A 
ATOM     18  C   UNL     1       4.704   4.436  17.355  0.00  0.00    +0.000 A 
BRANCH  13  19
ATOM     19  C   UNL     1       6.835   4.625  16.021  0.00  0.00    +0.000 C 
BRANCH  19  20
ATOM     20  C   UNL     1       6.741   4.634  14.510  0.00  0.00    +0.000 C 
ATOM     21  O   UNL     1       5.876   4.047  13.870  0.00  0.00    +0.000 OA
BRANCH  20  23
ATOM     22  C   UNL     1       7.829   5.290  12.543  0.00  0.00    +0.000 C 
ATOM     23  O   UNL     1       7.773   5.341  13.969  0.00  0.00    +0.000 OA
ENDBRANCH  20  23
ENDBRANCH  19  20
ENDBRANCH  13  19
ENDBRANCH  12  16
ENDBRANCH   8  12
ENDBRANCH   1   9
BRANCH   6  24
ATOM     24  C   UNL     1      -2.794  11.104  18.279  0.00  0.00    +0.000 C 
BRANCH  24  25
ATOM     25  C   UNL     1      -3.833  11.120  17.136  0.00  0.00    +0.000 C 
BRANCH  25  26
ATOM     26  N   UNL     1      -3.132  11.490  15.888  0.00  0.00    +0.000 NA
ATOM     27  H   UNL     1      -3.132  12.500  15.753  0.00  0.00    +0.000 HD
ATOM     28  H   UNL     1      -3.625  11.100  15.085  0.00  0.00    +0.000 HD
ENDBRANCH  25  26
BRANCH  25  29
ATOM     29  C   UNL     1      -5.037  12.066  17.418  0.00  0.00    +0.000 C 
BRANCH  29  30
ATOM     30  C   UNL     1      -5.891  11.659  18.602  0.00  0.00    +0.000 A 
ATOM     31  C   UNL     1      -6.466  10.380  18.675  0.00  0.00    +0.000 A 
ATOM     32  C   UNL     1      -7.280  10.023  19.754  0.00  0.00    +0.000 A 
ATOM     33  C   UNL     1      -7.521  10.930  20.785  0.00  0.00    +0.000 A 
ATOM     34  C   UNL     1      -6.931  12.192  20.743  0.00  0.00    +0.000 A 
ATOM     35  C   UNL     1      -6.122  12.542  19.662  0.00  0.00    +0.000 A 
ATOM     36  F   UNL     1      -5.564  13.761  19.651  0.00  0.00    +0.000 F 
ENDBRANCH  29  30
ENDBRANCH  25  29
ENDBRANCH  24  25
ENDBRANCH   6  24
TORSDOF 11
ENDMDL
MODEL 9
REMARK VINA RESULT:      -7.6      1.339      1.690
REMARK  Name = 
REMARK  12 active torsions:
REMARK  status: ('A' for Active; 'I' for Inactive)
REMARK    1  A    between atoms: C_1  and  O_2
REMARK    2  A    between atoms: O_2  and  C_3
REMARK    3  A    between atoms: C_3  and  C_5
REMARK    4  A    between atoms: C_5  and  C_6
REMARK    5  A    between atoms: C_9  and  C_10
REMARK    6  A    between atoms: C_10  and  N_11
REMARK    7  A    between atoms: C_12  and  C_14
REMARK    8  A    between atoms: C_19  and  C_21
REMARK    9  A    between atoms: C_21  and  C_22
REMARK   10  A    between atoms: C_22  and  N_23
REMARK   11  A    between atoms: C_22  and  C_24
REMARK   12  A    between atoms: C_24  and  C_25
REMARK                            x       y       z     vdW  Elec       q    Type
REMARK                         _______ _______ _______ _____ _____    ______ ____
ROOT
ATOM      1  C   UNL     1       2.500   5.129  18.722  0.00  0.00    +0.000 C 
ATOM      2  C   UNL     1       2.039   3.668  18.666  0.00  0.00    +0.000 C 
ATOM      3  S   UNL     1       3.527   2.664  18.367  0.00  0.00    +0.000 S 
ATOM      4  C   UNL     1       4.642   3.980  18.882  0.00  0.00    +0.000 C 
ATOM      5  N   UNL     1       3.966   5.197  18.501  0.00  0.00    +0.000 N 
ATOM      6  C   UNL     1       4.524   6.327  17.946  0.00  0.00    +0.000 C 
ATOM      7  O   UNL     1       3.812   7.281  17.629  0.00  0.00    +0.000 OA
ENDROOT
BRANCH   1   9
ATOM      8  N   UNL     1       2.067   7.148  20.078  0.00  0.00    +0.000 N 
ATOM      9  C   UNL     1       2.074   5.770  20.067  0.00  0.00    +0.000 C 
ATOM     10  O   UNL     1       1.684   5.100  21.021  0.00  0.00    +0.000 OA
ATOM     11  H   UNL     1       2.068   7.605  19.179  0.00  0.00    +0.000 HD
BRANCH   8  12
ATOM     12  C   UNL     1       1.503   7.907  21.161  0.00  0.00    +0.000 C 
BRANCH  12  16
ATOM     13  C   UNL     1      -0.620  11.341  19.618  0.00  0.00    +0.000 A 
ATOM     14  C   UNL     1       0.300  10.660  18.810  0.00  0.00    +0.000 A 
ATOM     15  C   UNL     1       1.011   9.568  19.314  0.00  0.00    +0.000 A 
ATOM     16  C   UNL     1       0.806   9.132  20.631  0.00  0.00    +0.000 A 
ATOM     17  C   UNL     1      -0.059   9.861  21.457  0.00  0.00    +0.000 A 
ATOM     18  C   UNL     1      -0.772  10.950  20.954  0.00  0.00    +0.000 A 
BRANCH  13  19
ATOM     19  C   UNL     1      -1.514  12.405  19.033  0.00  0.00    +0.000 C 
BRANCH  19  20
ATOM     20  C   UNL     1      -2.805  11.816  18.508  0.00  0.00    +0.000 C 
ATOM     21  O   UNL     1      -3.898  11.965  19.042  0.00  0.00    +0.000 OA
BRANCH  20  23
ATOM     22  C   UNL     1      -3.293   9.831  17.364  0.00  0.00    +0.000 C 
ATOM     23  O   UNL     1      -2.573  11.064  17.395  0.00  0.00    +0.000 OA
ENDBRANCH  20  23
ENDBRANCH  19  20
ENDBRANCH  13  19
ENDBRANCH  12  16
ENDBRANCH   8  12
ENDBRANCH   1   9
BRANCH   6  24
ATOM     24  C   UNL     1       6.035   6.394  17.851  0.00  0.00    +0.000 C 
BRANCH  24  25
ATOM     25  C   UNL     1       6.544   6.490  16.396  0.00  0.00    +0.000 C 
BRANCH  25  26
ATOM     26  N   UNL     1       5.374   6.701  15.517  0.00  0.00    +0.000 NA
ATOM     27  H   UNL     1       5.070   5.825  15.094  0.00  0.00    +0.000 HD
ATOM     28  H   UNL     1       5.629   7.312  14.741  0.00  0.00    +0.000 HD
ENDBRANCH  25  26
BRANCH  25  29
ATOM     29  C   UNL     1       7.374   5.248  15.955  0.00  0.00    +0.000 C 
BRANCH  29  30
ATOM     30  C   UNL     1       7.059   4.746  14.560  0.00  0.00    +0.000 A 
ATOM     31  C   UNL     1       7.789   5.195  13.447  0.00  0.00    +0.000 A 
ATOM     32  C   UNL     1       7.471   4.754  12.159  0.00  0.00    +0.000 A 
ATOM     33  C   UNL     1       6.430   3.847  11.962  0.00  0.00    +0.000 A 
ATOM     34  C   UNL     1       5.719   3.368  13.060  0.00  0.00    +0.000 A 
ATOM     35  C   UNL     1       6.039   3.813  14.342  0.00  0.00    +0.000 A 
ATOM     36  F   UNL     1       5.340   3.332  15.379  0.00  0.00    +0.000 F 
ENDBRANCH  29  30
ENDBRANCH  25  29
ENDBRANCH  24  25
ENDBRANCH   6  24
TORSDOF 11
ENDMDL
