MODEL 1
REMARK VINA RESULT:      -8.0      0.000      0.000
REMARK  Name = 
REMARK  7 active torsions:
REMARK  status: ('A' for Active; 'I' for Inactive)
REMARK    1  A    between atoms: C_1  and  O_2
REMARK    2  A    between atoms: O_2  and  C_3
REMARK    3  A    between atoms: C_7  and  C_8
REMARK    4  A    between atoms: N_14  and  C_15
REMARK    5  A    between atoms: C_15  and  C_16
REMARK    6  A    between atoms: C_16  and  N_17
REMARK    7  A    between atoms: N_17  and  C_18
REMARK                            x       y       z     vdW  Elec       q    Type
REMARK                         _______ _______ _______ _____ _____    ______ ____
ROOT
ATOM      1  C   UNL     1       3.255   4.691  18.694  0.00  0.00    +0.000 C 
ATOM      2  S   UNL     1       2.436   3.631  17.444  0.00  0.00    +0.000 S 
ATOM      3  C   UNL     1       3.588   2.258  17.647  0.00  0.00    +0.000 C 
ATOM      4  C   UNL     1       3.553   1.761  19.075  0.00  0.00    +0.000 C 
ATOM      5  C   UNL     1       3.440   2.751  20.240  0.00  0.00    +0.000 C 
ATOM      6  O   UNL     1       3.600   2.330  21.386  0.00  0.00    +0.000 OA
ATOM      7  N   UNL     1       3.020   4.054  20.008  0.00  0.00    +0.000 N 
ENDROOT
BRANCH   1  12
ATOM      8  C   UNL     1       6.448   5.551  16.596  0.00  0.00    +0.000 A 
ATOM      9  C   UNL     1       7.387   5.755  17.606  0.00  0.00    +0.000 A 
ATOM     10  C   UNL     1       7.024   5.554  18.934  0.00  0.00    +0.000 A 
ATOM     11  C   UNL     1       5.718   5.153  19.234  0.00  0.00    +0.000 A 
ATOM     12  C   UNL     1       4.712   5.005  18.236  0.00  0.00    +0.000 A 
ATOM     13  C   UNL     1       5.120   5.205  16.904  0.00  0.00    +0.000 A 
BRANCH   8  15
ATOM     14  C   UNL     1       6.715   4.681  14.431  0.00  0.00    +0.000 C 
ATOM     15  O   UNL     1       6.947   5.754  15.334  0.00  0.00    +0.000 OA
ENDBRANCH   8  15
ENDBRANCH   1  12
BRANCH   7  16
ATOM     16  C   UNL     1       1.786   4.516  20.776  0.00  0.00    +0.000 C 
BRANCH  16  17
ATOM     17  C   UNL     1       1.174   5.944  20.493  0.00  0.00    +0.000 C 
BRANCH  17  18
ATOM     18  N   UNL     1       1.771   7.086  21.269  0.00  0.00    +0.000 N 
ATOM     19  H   UNL     1       1.334   6.937  22.194  0.00  0.00    +0.000 HD
BRANCH  18  20
ATOM     20  C   UNL     1       1.555   8.502  21.157  0.00  0.00    +0.000 A 
ATOM     21  C   UNL     1       1.516   9.116  22.411  0.00  0.00    +0.000 A 
ATOM     22  C   UNL     1       0.295   9.636  22.795  0.00  0.00    +0.000 A 
ATOM     23  N   UNL     1      -0.742   9.797  21.949  0.00  0.00    +0.000 NA
ATOM     24  C   UNL     1      -0.439   9.736  20.653  0.00  0.00    +0.000 A 
ATOM     25  C   UNL     1      -1.237  10.461  19.789  0.00  0.00    +0.000 A 
ATOM     26  C   UNL     1      -0.714  10.915  18.587  0.00  0.00    +0.000 A 
ATOM     27 CL   UNL     1      -1.640  11.985  17.606  0.00  0.00    +0.000 Cl
ATOM     28  C   UNL     1       0.598  10.607  18.238  0.00  0.00    +0.000 A 
ATOM     29  C   UNL     1       1.330   9.704  19.022  0.00  0.00    +0.000 A 
ATOM     30  C   UNL     1       0.779   9.174  20.209  0.00  0.00    +0.000 A 
ENDBRANCH  18  20
ENDBRANCH  17  18
ENDBRANCH  16  17
ENDBRANCH   7  16
TORSDOF 6
ENDMDL
MODEL 2
REMARK VINA RESULT:      -8.0      1.664      2.164
REMARK  Name = 
REMARK  7 active torsions:
REMARK  status: ('A' for Active; 'I' for Inactive)
REMARK    1  A    between atoms: C_1  and  O_2
REMARK    2  A    between atoms: O_2  and  C_3
REMARK    3  A    between atoms: C_7  and  C_8
REMARK    4  A    between atoms: N_14  and  C_15
REMARK    5  A    between atoms: C_15  and  C_16
REMARK    6  A    between atoms: C_16  and  N_17
REMARK    7  A    between atoms: N_17  and  C_18
REMARK                            x       y       z     vdW  Elec       q    Type
REMARK                         _______ _______ _______ _____ _____    ______ ____
ROOT
ATOM      1  C   UNL     1       2.916   5.468  18.577  0.00  0.00    +0.000 C 
ATOM      2  S   UNL     1       1.741   4.438  17.622  0.00  0.00    +0.000 S 
ATOM      3  C   UNL     1       2.324   2.879  18.316  0.00  0.00    +0.000 C 
ATOM      4  C   UNL     1       2.147   2.883  19.817  0.00  0.00    +0.000 C 
ATOM      5  C   UNL     1       2.425   4.153  20.630  0.00  0.00    +0.000 C 
ATOM      6  O   UNL     1       2.450   4.069  21.858  0.00  0.00    +0.000 OA
ATOM      7  N   UNL     1       2.498   5.384  19.993  0.00  0.00    +0.000 N 
ENDROOT
BRANCH   1  12
ATOM      8  C   UNL     1       6.140   4.409  16.622  0.00  0.00    +0.000 A 
ATOM      9  C   UNL     1       7.125   4.645  17.580  0.00  0.00    +0.000 A 
ATOM     10  C   UNL     1       6.759   5.071  18.854  0.00  0.00    +0.000 A 
ATOM     11  C   UNL     1       5.405   5.259  19.150  0.00  0.00    +0.000 A 
ATOM     12  C   UNL     1       4.376   5.098  18.178  0.00  0.00    +0.000 A 
ATOM     13  C   UNL     1       4.784   4.655  16.906  0.00  0.00    +0.000 A 
BRANCH   8  15
ATOM     14  C   UNL     1       5.811   4.254  14.302  0.00  0.00    +0.000 C 
ATOM     15  O   UNL     1       6.635   3.964  15.423  0.00  0.00    +0.000 OA
ENDBRANCH   8  15
ENDBRANCH   1  12
BRANCH   7  16
ATOM     16  C   UNL     1       1.532   6.458  20.483  0.00  0.00    +0.000 C 
BRANCH  16  17
ATOM     17  C   UNL     1       1.850   7.981  20.214  0.00  0.00    +0.000 C 
BRANCH  17  18
ATOM     18  N   UNL     1       0.676   8.921  20.259  0.00  0.00    +0.000 N 
ATOM     19  H   UNL     1      -0.094   8.274  20.019  0.00  0.00    +0.000 HD
BRANCH  18  20
ATOM     20  C   UNL     1       0.319  10.007  19.389  0.00  0.00    +0.000 A 
ATOM     21  C   UNL     1       1.002  11.178  19.724  0.00  0.00    +0.000 A 
ATOM     22  C   UNL     1       0.231  12.209  20.227  0.00  0.00    +0.000 A 
ATOM     23  N   UNL     1      -1.115  12.224  20.169  0.00  0.00    +0.000 NA
ATOM     24  C   UNL     1      -1.663  11.357  19.318  0.00  0.00    +0.000 A 
ATOM     25  C   UNL     1      -2.880  11.707  18.764  0.00  0.00    +0.000 A 
ATOM     26  C   UNL     1      -3.239  11.206  17.521  0.00  0.00    +0.000 A 
ATOM     27 CL   UNL     1      -4.656  11.797  16.743  0.00  0.00    +0.000 Cl
ATOM     28  C   UNL     1      -2.392  10.323  16.856  0.00  0.00    +0.000 A 
ATOM     29  C   UNL     1      -1.262   9.817  17.513  0.00  0.00    +0.000 A 
ATOM     30  C   UNL     1      -0.927  10.263  18.810  0.00  0.00    +0.000 A 
ENDBRANCH  18  20
ENDBRANCH  17  18
ENDBRANCH  16  17
ENDBRANCH   7  16
TORSDOF 6
ENDMDL
MODEL 3
REMARK VINA RESULT:      -7.8      1.787      2.605
REMARK  Name = 
REMARK  7 active torsions:
REMARK  status: ('A' for Active; 'I' for Inactive)
REMARK    1  A    between atoms: C_1  and  O_2
REMARK    2  A    between atoms: O_2  and  C_3
REMARK    3  A    between atoms: C_7  and  C_8
REMARK    4  A    between atoms: N_14  and  C_15
REMARK    5  A    between atoms: C_15  and  C_16
REMARK    6  A    between atoms: C_16  and  N_17
REMARK    7  A    between atoms: N_17  and  C_18
REMARK                            x       y       z     vdW  Elec       q    Type
REMARK                         _______ _______ _______ _____ _____    ______ ____
ROOT
ATOM      1  C   UNL     1       2.671   5.405  18.410  0.00  0.00    +0.000 C 
ATOM      2  S   UNL     1       1.456   4.263  17.651  0.00  0.00    +0.000 S 
ATOM      3  C   UNL     1       2.199   2.779  18.356  0.00  0.00    +0.000 C 
ATOM      4  C   UNL     1       2.189   2.863  19.866  0.00  0.00    +0.000 C 
ATOM      5  C   UNL     1       2.484   4.191  20.572  0.00  0.00    +0.000 C 
ATOM      6  O   UNL     1       2.650   4.182  21.792  0.00  0.00    +0.000 OA
ATOM      7  N   UNL     1       2.417   5.385  19.866  0.00  0.00    +0.000 N 
ENDROOT
BRANCH   1  12
ATOM      8  C   UNL     1       6.504   4.676  18.074  0.00  0.00    +0.000 A 
ATOM      9  C   UNL     1       6.588   4.295  16.736  0.00  0.00    +0.000 A 
ATOM     10  C   UNL     1       5.451   4.335  15.934  0.00  0.00    +0.000 A 
ATOM     11  C   UNL     1       4.238   4.756  16.489  0.00  0.00    +0.000 A 
ATOM     12  C   UNL     1       4.096   5.084  17.868  0.00  0.00    +0.000 A 
ATOM     13  C   UNL     1       5.270   5.043  18.643  0.00  0.00    +0.000 A 
BRANCH   8  15
ATOM     14  C   UNL     1       8.016   5.786  19.488  0.00  0.00    +0.000 C 
ATOM     15  O   UNL     1       7.702   4.619  18.738  0.00  0.00    +0.000 OA
ENDBRANCH   8  15
ENDBRANCH   1  12
BRANCH   7  16
ATOM     16  C   UNL     1       1.453   6.437  20.404  0.00  0.00    +0.000 C 
BRANCH  16  17
ATOM     17  C   UNL     1       1.862   7.962  20.381  0.00  0.00    +0.000 C 
BRANCH  17  18
ATOM     18  N   UNL     1       0.730   8.952  20.424  0.00  0.00    +0.000 N 
ATOM     19  H   UNL     1      -0.074   8.329  20.238  0.00  0.00    +0.000 HD
BRANCH  18  20
ATOM     20  C   UNL     1       0.388  10.016  19.521  0.00  0.00    +0.000 A 
ATOM     21  C   UNL     1       1.036  11.205  19.860  0.00  0.00    +0.000 A 
ATOM     22  C   UNL     1       0.227  12.230  20.312  0.00  0.00    +0.000 A 
ATOM     23  N   UNL     1      -1.116  12.219  20.202  0.00  0.00    +0.000 NA
ATOM     24  C   UNL     1      -1.613  11.326  19.346  0.00  0.00    +0.000 A 
ATOM     25  C   UNL     1      -2.813  11.643  18.738  0.00  0.00    +0.000 A 
ATOM     26  C   UNL     1      -3.114  11.113  17.492  0.00  0.00    +0.000 A 
ATOM     27 CL   UNL     1      -4.509  11.663  16.647  0.00  0.00    +0.000 Cl
ATOM     28  C   UNL     1      -2.225  10.235  16.877  0.00  0.00    +0.000 A 
ATOM     29  C   UNL     1      -1.113   9.762  17.588  0.00  0.00    +0.000 A 
ATOM     30  C   UNL     1      -0.838  10.237  18.888  0.00  0.00    +0.000 A 
ENDBRANCH  18  20
ENDBRANCH  17  18
ENDBRANCH  16  17
ENDBRANCH   7  16
TORSDOF 6
ENDMDL
MODEL 4
REMARK VINA RESULT:      -7.8      4.346      8.705
REMARK  Name = 
REMARK  7 active torsions:
REMARK  status: ('A' for Active; 'I' for Inactive)
REMARK    1  A    between atoms: C_1  and  O_2
REMARK    2  A    between atoms: O_2  and  C_3
REMARK    3  A    between atoms: C_7  and  C_8
REMARK    4  A    between atoms: N_14  and  C_15
REMARK    5  A    between atoms: C_15  and  C_16
REMARK    6  A    between atoms: C_16  and  N_17
REMARK    7  A    between atoms: N_17  and  C_18
REMARK                            x       y       z     vdW  Elec       q    Type
REMARK                         _______ _______ _______ _____ _____    ______ ____
ROOT
ATOM      1  C   UNL     1       0.046  10.033  19.370  0.00  0.00    +0.000 C 
ATOM      2  S   UNL     1       1.494  10.678  18.451  0.00  0.00    +0.000 S 
ATOM      3  C   UNL     1       1.010  12.407  18.623  0.00  0.00    +0.000 C 
ATOM      4  C   UNL     1       0.925  12.777  20.087  0.00  0.00    +0.000 C 
ATOM      5  C   UNL     1       0.346  11.789  21.106  0.00  0.00    +0.000 C 
ATOM      6  O   UNL     1       0.121  12.189  22.249  0.00  0.00    +0.000 OA
ATOM      7  N   UNL     1       0.222  10.445  20.780  0.00  0.00    +0.000 N 
ENDROOT
BRANCH   1  12
ATOM      8  C   UNL     1      -3.431  11.521  18.354  0.00  0.00    +0.000 A 
ATOM      9  C   UNL     1      -3.497  11.157  17.010  0.00  0.00    +0.000 A 
ATOM     10  C   UNL     1      -2.478  10.388  16.454  0.00  0.00    +0.000 A 
ATOM     11  C   UNL     1      -1.401   9.998  17.255  0.00  0.00    +0.000 A 
ATOM     12  C   UNL     1      -1.262  10.410  18.612  0.00  0.00    +0.000 A 
ATOM     13  C   UNL     1      -2.317  11.175  19.141  0.00  0.00    +0.000 A 
BRANCH   8  15
ATOM     14  C   UNL     1      -4.399  12.752  20.104  0.00  0.00    +0.000 C 
ATOM     15  O   UNL     1      -4.513  12.249  18.779  0.00  0.00    +0.000 OA
ENDBRANCH   8  15
ENDBRANCH   1  12
BRANCH   7  16
ATOM     16  C   UNL     1       0.939   9.457  21.693  0.00  0.00    +0.000 C 
BRANCH  16  17
ATOM     17  C   UNL     1       0.943   7.919  21.336  0.00  0.00    +0.000 C 
BRANCH  17  18
ATOM     18  N   UNL     1       2.198   7.392  20.693  0.00  0.00    +0.000 N 
ATOM     19  H   UNL     1       2.466   8.201  20.109  0.00  0.00    +0.000 HD
BRANCH  18  20
ATOM     20  C   UNL     1       2.378   6.354  19.716  0.00  0.00    +0.000 A 
ATOM     21  C   UNL     1       1.662   5.203  20.051  0.00  0.00    +0.000 A 
ATOM     22  C   UNL     1       2.417   4.095  20.387  0.00  0.00    +0.000 A 
ATOM     23  N   UNL     1       3.743   4.006  20.166  0.00  0.00    +0.000 NA
ATOM     24  C   UNL     1       4.244   4.902  19.315  0.00  0.00    +0.000 A 
ATOM     25  C   UNL     1       5.362   4.524  18.595  0.00  0.00    +0.000 A 
ATOM     26  C   UNL     1       5.606   5.095  17.355  0.00  0.00    +0.000 A 
ATOM     27 CL   UNL     1       6.881   4.483  16.373  0.00  0.00    +0.000 Cl
ATOM     28  C   UNL     1       4.748   6.072  16.857  0.00  0.00    +0.000 A 
ATOM     29  C   UNL     1       3.738   6.592  17.679  0.00  0.00    +0.000 A 
ATOM     30  C   UNL     1       3.528   6.071  18.974  0.00  0.00    +0.000 A 
ENDBRANCH  18  20
ENDBRANCH  17  18
ENDBRANCH  16  17
ENDBRANCH   7  16
TORSDOF 6
ENDMDL
MODEL 5
REMARK VINA RESULT:      -7.8      2.136      2.713
REMARK  Name = 
REMARK  7 active torsions:
REMARK  status: ('A' for Active; 'I' for Inactive)
REMARK    1  A    between atoms: C_1  and  O_2
REMARK    2  A    between atoms: O_2  and  C_3
REMARK    3  A    between atoms: C_7  and  C_8
REMARK    4  A    between atoms: N_14  and  C_15
REMARK    5  A    between atoms: C_15  and  C_16
REMARK    6  A    between atoms: C_16  and  N_17
REMARK    7  A    between atoms: N_17  and  C_18
REMARK                            x       y       z     vdW  Elec       q    Type
REMARK                         _______ _______ _______ _____ _____    ______ ____
ROOT
ATOM      1  C   UNL     1       2.966   5.322  18.805  0.00  0.00    +0.000 C 
ATOM      2  S   UNL     1       1.791   4.385  17.757  0.00  0.00    +0.000 S 
ATOM      3  C   UNL     1       2.387   2.768  18.287  0.00  0.00    +0.000 C 
ATOM      4  C   UNL     1       2.218   2.620  19.782  0.00  0.00    +0.000 C 
ATOM      5  C   UNL     1       2.494   3.803  20.717  0.00  0.00    +0.000 C 
ATOM      6  O   UNL     1       2.526   3.596  21.931  0.00  0.00    +0.000 OA
ATOM      7  N   UNL     1       2.556   5.093  20.207  0.00  0.00    +0.000 N 
ENDROOT
BRANCH   1  12
ATOM      8  C   UNL     1       6.164   4.358  16.760  0.00  0.00    +0.000 A 
ATOM      9  C   UNL     1       7.169   4.648  17.682  0.00  0.00    +0.000 A 
ATOM     10  C   UNL     1       6.828   5.080  18.960  0.00  0.00    +0.000 A 
ATOM     11  C   UNL     1       5.479   5.219  19.298  0.00  0.00    +0.000 A 
ATOM     12  C   UNL     1       4.426   5.002  18.363  0.00  0.00    +0.000 A 
ATOM     13  C   UNL     1       4.809   4.556  17.085  0.00  0.00    +0.000 A 
BRANCH   8  15
ATOM     14  C   UNL     1       5.834   4.277  14.436  0.00  0.00    +0.000 C 
ATOM     15  O   UNL     1       6.637   3.914  15.552  0.00  0.00    +0.000 OA
ENDBRANCH   8  15
ENDBRANCH   1  12
BRANCH   7  16
ATOM     16  C   UNL     1       1.587   6.106  20.807  0.00  0.00    +0.000 C 
BRANCH  16  17
ATOM     17  C   UNL     1       1.719   7.635  20.435  0.00  0.00    +0.000 C 
BRANCH  17  18
ATOM     18  N   UNL     1       0.966   8.597  21.313  0.00  0.00    +0.000 N 
ATOM     19  H   UNL     1       0.262   7.965  21.727  0.00  0.00    +0.000 HD
BRANCH  18  20
ATOM     20  C   UNL     1       0.095   9.687  20.967  0.00  0.00    +0.000 A 
ATOM     21  C   UNL     1      -0.033   9.822  19.583  0.00  0.00    +0.000 A 
ATOM     22  C   UNL     1       0.516  10.965  19.031  0.00  0.00    +0.000 A 
ATOM     23  N   UNL     1       0.921  12.021  19.762  0.00  0.00    +0.000 NA
ATOM     24  C   UNL     1       0.473  12.055  21.017  0.00  0.00    +0.000 A 
ATOM     25  C   UNL     1       0.317  13.303  21.592  0.00  0.00    +0.000 A 
ATOM     26  C   UNL     1      -0.620  13.483  22.599  0.00  0.00    +0.000 A 
ATOM     27 CL   UNL     1      -0.957  15.071  23.173  0.00  0.00    +0.000 Cl
ATOM     28  C   UNL     1      -1.371  12.402  23.053  0.00  0.00    +0.000 A 
ATOM     29  C   UNL     1      -1.062  11.108  22.609  0.00  0.00    +0.000 A 
ATOM     30  C   UNL     1      -0.057  10.903  21.639  0.00  0.00    +0.000 A 
ENDBRANCH  18  20
ENDBRANCH  17  18
ENDBRANCH  16  17
ENDBRANCH   7  16
TORSDOF 6
ENDMDL
MODEL 6
REMARK VINA RESULT:      -7.6      3.386      7.006
REMARK  Name = 
REMARK  7 active torsions:
REMARK  status: ('A' for Active; 'I' for Inactive)
REMARK    1  A    between atoms: C_1  and  O_2
REMARK    2  A    between atoms: O_2  and  C_3
REMARK    3  A    between atoms: C_7  and  C_8
REMARK    4  A    between atoms: N_14  and  C_15
REMARK    5  A    between atoms: C_15  and  C_16
REMARK    6  A    between atoms: C_16  and  N_17
REMARK    7  A    between atoms: N_17  and  C_18
REMARK                            x       y       z     vdW  Elec       q    Type
REMARK                         _______ _______ _______ _____ _____    ______ ____
ROOT
ATOM      1  C   UNL     1       3.134   5.159  19.881  0.00  0.00    +0.000 C 
ATOM      2  S   UNL     1       2.159   4.315  21.183  0.00  0.00    +0.000 S 
ATOM      3  C   UNL     1       0.659   4.207  20.188  0.00  0.00    +0.000 C 
ATOM      4  C   UNL     1       0.928   3.413  18.930  0.00  0.00    +0.000 C 
ATOM      5  C   UNL     1       2.253   3.578  18.175  0.00  0.00    +0.000 C 
ATOM      6  O   UNL     1       2.363   3.060  17.064  0.00  0.00    +0.000 OA
ATOM      7  N   UNL     1       3.341   4.170  18.801  0.00  0.00    +0.000 N 
ENDROOT
BRANCH   1  12
ATOM      8  C   UNL     1       1.380   8.653  20.113  0.00  0.00    +0.000 A 
ATOM      9  C   UNL     1       1.509   9.106  18.801  0.00  0.00    +0.000 A 
ATOM     10  C   UNL     1       2.086   8.280  17.841  0.00  0.00    +0.000 A 
ATOM     11  C   UNL     1       2.532   7.008  18.211  0.00  0.00    +0.000 A 
ATOM     12  C   UNL     1       2.483   6.537  19.555  0.00  0.00    +0.000 A 
ATOM     13  C   UNL     1       1.882   7.395  20.495  0.00  0.00    +0.000 A 
BRANCH   8  15
ATOM     14  C   UNL     1       0.856   9.230  22.329  0.00  0.00    +0.000 C 
ATOM     15  O   UNL     1       0.767   9.553  20.947  0.00  0.00    +0.000 OA
ENDBRANCH   8  15
ENDBRANCH   1  12
BRANCH   7  16
ATOM     16  C   UNL     1       4.615   3.337  18.877  0.00  0.00    +0.000 C 
BRANCH  16  17
ATOM     17  C   UNL     1       5.811   3.812  19.793  0.00  0.00    +0.000 C 
BRANCH  17  18
ATOM     18  N   UNL     1       6.594   4.997  19.297  0.00  0.00    +0.000 N 
ATOM     19  H   UNL     1       5.912   5.756  19.458  0.00  0.00    +0.000 HD
BRANCH  18  20
ATOM     20  C   UNL     1       7.000   5.354  17.966  0.00  0.00    +0.000 A 
ATOM     21  C   UNL     1       7.465   6.670  17.906  0.00  0.00    +0.000 A 
ATOM     22  C   UNL     1       6.686   7.557  17.187  0.00  0.00    +0.000 A 
ATOM     23  N   UNL     1       5.687   7.173  16.370  0.00  0.00    +0.000 NA
ATOM     24  C   UNL     1       5.687   5.884  16.029  0.00  0.00    +0.000 A 
ATOM     25  C   UNL     1       5.140   5.561  14.802  0.00  0.00    +0.000 A 
ATOM     26  C   UNL     1       5.577   4.427  14.132  0.00  0.00    +0.000 A 
ATOM     27 CL   UNL     1       5.046   4.134  12.521  0.00  0.00    +0.000 Cl
ATOM     28  C   UNL     1       6.534   3.600  14.714  0.00  0.00    +0.000 A 
ATOM     29  C   UNL     1       6.930   3.824  16.040  0.00  0.00    +0.000 A 
ATOM     30  C   UNL     1       6.434   4.932  16.760  0.00  0.00    +0.000 A 
ENDBRANCH  18  20
ENDBRANCH  17  18
ENDBRANCH  16  17
ENDBRANCH   7  16
TORSDOF 6
ENDMDL
MODEL 7
REMARK VINA RESULT:      -7.6      4.103      8.251
REMARK  Name = 
REMARK  7 active torsions:
REMARK  status: ('A' for Active; 'I' for Inactive)
REMARK    1  A    between atoms: C_1  and  O_2
REMARK    2  A    between atoms: O_2  and  C_3
REMARK    3  A    between atoms: C_7  and  C_8
REMARK    4  A    between atoms: N_14  and  C_15
REMARK    5  A    between atoms: C_15  and  C_16
REMARK    6  A    between atoms: C_16  and  N_17
REMARK    7  A    between atoms: N_17  and  C_18
REMARK                            x       y       z     vdW  Elec       q    Type
REMARK                         _______ _______ _______ _____ _____    ______ ____
ROOT
ATOM      1  C   UNL     1      -0.402   9.816  19.166  0.00  0.00    +0.000 C 
ATOM      2  S   UNL     1       1.234  10.450  18.638  0.00  0.00    +0.000 S 
ATOM      3  C   UNL     1       0.801  12.182  18.887  0.00  0.00    +0.000 C 
ATOM      4  C   UNL     1       0.424  12.419  20.332  0.00  0.00    +0.000 C 
ATOM      5  C   UNL     1      -0.400  11.379  21.101  0.00  0.00    +0.000 C 
ATOM      6  O   UNL     1      -0.843  11.684  22.209  0.00  0.00    +0.000 OA
ATOM      7  N   UNL     1      -0.509  10.082  20.617  0.00  0.00    +0.000 N 
ENDROOT
BRANCH   1  12
ATOM      8  C   UNL     1      -2.610  10.590  16.026  0.00  0.00    +0.000 A 
ATOM      9  C   UNL     1      -3.697  11.235  16.614  0.00  0.00    +0.000 A 
ATOM     10  C   UNL     1      -3.694  11.479  17.984  0.00  0.00    +0.000 A 
ATOM     11  C   UNL     1      -2.598  11.070  18.750  0.00  0.00    +0.000 A 
ATOM     12  C   UNL     1      -1.502  10.346  18.198  0.00  0.00    +0.000 A 
ATOM     13  C   UNL     1      -1.536  10.127  16.809  0.00  0.00    +0.000 A 
BRANCH   8  15
ATOM     14  C   UNL     1      -4.012  10.011  14.234  0.00  0.00    +0.000 C 
ATOM     15  O   UNL     1      -2.729  10.441  14.667  0.00  0.00    +0.000 OA
ENDBRANCH   8  15
ENDBRANCH   1  12
BRANCH   7  16
ATOM     16  C   UNL     1      -0.045   8.969  21.550  0.00  0.00    +0.000 C 
BRANCH  16  17
ATOM     17  C   UNL     1       1.417   8.388  21.412  0.00  0.00    +0.000 C 
BRANCH  17  18
ATOM     18  N   UNL     1       1.522   6.899  21.223  0.00  0.00    +0.000 N 
ATOM     19  H   UNL     1       2.331   6.687  21.831  0.00  0.00    +0.000 HD
BRANCH  18  20
ATOM     20  C   UNL     1       1.914   6.132  20.073  0.00  0.00    +0.000 A 
ATOM     21  C   UNL     1       1.483   4.806  20.170  0.00  0.00    +0.000 A 
ATOM     22  C   UNL     1       2.476   3.854  20.309  0.00  0.00    +0.000 A 
ATOM     23  N   UNL     1       3.783   4.111  20.108  0.00  0.00    +0.000 NA
ATOM     24  C   UNL     1       4.052   5.240  19.453  0.00  0.00    +0.000 A 
ATOM     25  C   UNL     1       5.212   5.266  18.702  0.00  0.00    +0.000 A 
ATOM     26  C   UNL     1       5.297   6.100  17.597  0.00  0.00    +0.000 A 
ATOM     27 CL   UNL     1       6.658   5.987  16.549  0.00  0.00    +0.000 Cl
ATOM     28  C   UNL     1       4.231   6.934  17.271  0.00  0.00    +0.000 A 
ATOM     29  C   UNL     1       3.146   7.049  18.151  0.00  0.00    +0.000 A 
ATOM     30  C   UNL     1       3.084   6.260  19.320  0.00  0.00    +0.000 A 
ENDBRANCH  18  20
ENDBRANCH  17  18
ENDBRANCH  16  17
ENDBRANCH   7  16
TORSDOF 6
ENDMDL
MODEL 8
REMARK VINA RESULT:      -7.6      4.010      8.366
REMARK  Name = 
REMARK  7 active torsions:
REMARK  status: ('A' for Active; 'I' for Inactive)
REMARK    1  A    between atoms: C_1  and  O_2
REMARK    2  A    between atoms: O_2  and  C_3
REMARK    3  A    between atoms: C_7  and  C_8
REMARK    4  A    between atoms: N_14  and  C_15
REMARK    5  A    between atoms: C_15  and  C_16
REMARK    6  A    between atoms: C_16  and  N_17
REMARK    7  A    between atoms: N_17  and  C_18
REMARK                            x       y       z     vdW  Elec       q    Type
REMARK                         _______ _______ _______ _____ _____    ______ ____
ROOT
ATOM      1  C   UNL     1       0.532  10.205  19.521  0.00  0.00    +0.000 C 
ATOM      2  S   UNL     1       1.055  11.671  20.488  0.00  0.00    +0.000 S 
ATOM      3  C   UNL     1      -0.478  11.773  21.431  0.00  0.00    +0.000 C 
ATOM      4  C   UNL     1      -0.692  10.496  22.211  0.00  0.00    +0.000 C 
ATOM      5  C   UNL     1      -0.348   9.137  21.588  0.00  0.00    +0.000 C 
ATOM      6  O   UNL     1      -0.704   8.116  22.175  0.00  0.00    +0.000 OA
ATOM      7  N   UNL     1       0.473   9.073  20.470  0.00  0.00    +0.000 N 
ENDROOT
BRANCH   1  12
ATOM      8  C   UNL     1      -2.404  10.174  16.929  0.00  0.00    +0.000 A 
ATOM      9  C   UNL     1      -3.136  11.287  17.340  0.00  0.00    +0.000 A 
ATOM     10  C   UNL     1      -2.664  12.075  18.384  0.00  0.00    +0.000 A 
ATOM     11  C   UNL     1      -1.461  11.734  19.009  0.00  0.00    +0.000 A 
ATOM     12  C   UNL     1      -0.721  10.566  18.667  0.00  0.00    +0.000 A 
ATOM     13  C   UNL     1      -1.224   9.800  17.599  0.00  0.00    +0.000 A 
BRANCH   8  15
ATOM     14  C   UNL     1      -3.290  10.331  14.760  0.00  0.00    +0.000 C 
ATOM     15  O   UNL     1      -2.966   9.506  15.871  0.00  0.00    +0.000 OA
ENDBRANCH   8  15
ENDBRANCH   1  12
BRANCH   7  16
ATOM     16  C   UNL     1       1.738   8.232  20.605  0.00  0.00    +0.000 C 
BRANCH  16  17
ATOM     17  C   UNL     1       1.634   6.656  20.630  0.00  0.00    +0.000 C 
BRANCH  17  18
ATOM     18  N   UNL     1       2.679   5.912  19.843  0.00  0.00    +0.000 N 
ATOM     19  H   UNL     1       3.455   6.594  19.866  0.00  0.00    +0.000 HD
BRANCH  18  20
ATOM     20  C   UNL     1       2.730   5.578  18.446  0.00  0.00    +0.000 A 
ATOM     21  C   UNL     1       1.742   4.653  18.103  0.00  0.00    +0.000 A 
ATOM     22  C   UNL     1       2.187   3.397  17.734  0.00  0.00    +0.000 A 
ATOM     23  N   UNL     1       3.476   3.119  17.456  0.00  0.00    +0.000 NA
ATOM     24  C   UNL     1       4.256   4.178  17.237  0.00  0.00    +0.000 A 
ATOM     25  C   UNL     1       5.335   3.995  16.392  0.00  0.00    +0.000 A 
ATOM     26  C   UNL     1       5.838   5.072  15.677  0.00  0.00    +0.000 A 
ATOM     27 CL   UNL     1       7.044   4.808  14.478  0.00  0.00    +0.000 Cl
ATOM     28  C   UNL     1       5.281   6.338  15.842  0.00  0.00    +0.000 A 
ATOM     29  C   UNL     1       4.328   6.551  16.848  0.00  0.00    +0.000 A 
ATOM     30  C   UNL     1       3.863   5.475  17.635  0.00  0.00    +0.000 A 
ENDBRANCH  18  20
ENDBRANCH  17  18
ENDBRANCH  16  17
ENDBRANCH   7  16
TORSDOF 6
ENDMDL
MODEL 9
REMARK VINA RESULT:      -7.6      2.224      3.073
REMARK  Name = 
REMARK  7 active torsions:
REMARK  status: ('A' for Active; 'I' for Inactive)
REMARK    1  A    between atoms: C_1  and  O_2
REMARK    2  A    between atoms: O_2  and  C_3
REMARK    3  A    between atoms: C_7  and  C_8
REMARK    4  A    between atoms: N_14  and  C_15
REMARK    5  A    between atoms: C_15  and  C_16
REMARK    6  A    between atoms: C_16  and  N_17
REMARK    7  A    between atoms: N_17  and  C_18
REMARK                            x       y       z     vdW  Elec       q    Type
REMARK                         _______ _______ _______ _____ _____    ______ ____
ROOT
ATOM      1  C   UNL     1       2.702   5.295  18.621  0.00  0.00    +0.000 C 
ATOM      2  S   UNL     1       1.437   4.326  17.717  0.00  0.00    +0.000 S 
ATOM      3  C   UNL     1       2.141   2.726  18.160  0.00  0.00    +0.000 C 
ATOM      4  C   UNL     1       2.160   2.568  19.664  0.00  0.00    +0.000 C 
ATOM      5  C   UNL     1       2.511   3.757  20.567  0.00  0.00    +0.000 C 
ATOM      6  O   UNL     1       2.697   3.548  21.766  0.00  0.00    +0.000 OA
ATOM      7  N   UNL     1       2.472   5.049  20.061  0.00  0.00    +0.000 N 
ENDROOT
BRANCH   1  12
ATOM      8  C   UNL     1       6.533   4.685  18.083  0.00  0.00    +0.000 A 
ATOM      9  C   UNL     1       6.559   4.317  16.739  0.00  0.00    +0.000 A 
ATOM     10  C   UNL     1       5.382   4.328  15.997  0.00  0.00    +0.000 A 
ATOM     11  C   UNL     1       4.187   4.708  16.617  0.00  0.00    +0.000 A 
ATOM     12  C   UNL     1       4.107   5.022  18.004  0.00  0.00    +0.000 A 
ATOM     13  C   UNL     1       5.319   5.010  18.717  0.00  0.00    +0.000 A 
BRANCH   8  15
ATOM     14  C   UNL     1       8.119   5.863  19.351  0.00  0.00    +0.000 C 
ATOM     15  O   UNL     1       7.765   4.659  18.684  0.00  0.00    +0.000 OA
ENDBRANCH   8  15
ENDBRANCH   1  12
BRANCH   7  16
ATOM     16  C   UNL     1       1.553   6.030  20.781  0.00  0.00    +0.000 C 
BRANCH  16  17
ATOM     17  C   UNL     1       1.693   7.580  20.510  0.00  0.00    +0.000 C 
BRANCH  17  18
ATOM     18  N   UNL     1       0.828   8.479  21.351  0.00  0.00    +0.000 N 
ATOM     19  H   UNL     1       0.073   7.824  21.615  0.00  0.00    +0.000 HD
BRANCH  18  20
ATOM     20  C   UNL     1       0.013   9.603  20.978  0.00  0.00    +0.000 A 
ATOM     21  C   UNL     1      -0.115   9.706  19.591  0.00  0.00    +0.000 A 
ATOM     22  C   UNL     1       0.490  10.803  19.005  0.00  0.00    +0.000 A 
ATOM     23  N   UNL     1       0.952  11.856  19.705  0.00  0.00    +0.000 NA
ATOM     24  C   UNL     1       0.513  11.949  20.960  0.00  0.00    +0.000 A 
ATOM     25  C   UNL     1       0.423  13.218  21.500  0.00  0.00    +0.000 A 
ATOM     26  C   UNL     1      -0.498  13.475  22.504  0.00  0.00    +0.000 A 
ATOM     27 CL   UNL     1      -0.751  15.093  23.035  0.00  0.00    +0.000 Cl
ATOM     28  C   UNL     1      -1.302  12.447  22.991  0.00  0.00    +0.000 A 
ATOM     29  C   UNL     1      -1.063  11.127  22.582  0.00  0.00    +0.000 A 
ATOM     30  C   UNL     1      -0.074  10.843  21.616  0.00  0.00    +0.000 A 
ENDBRANCH  18  20
ENDBRANCH  17  18
ENDBRANCH  16  17
ENDBRANCH   7  16
TORSDOF 6
ENDMDL
