MODEL 1
REMARK VINA RESULT:      -7.2      0.000      0.000
REMARK  Name = 
REMARK  6 active torsions:
REMARK  status: ('A' for Active; 'I' for Inactive)
REMARK    1  A    between atoms: N_1  and  S_2
REMARK    2  A    between atoms: S_2  and  C_5
REMARK    3  A    between atoms: C_8  and  N_9
REMARK    4  A    between atoms: C_11  and  C_12
REMARK    5  A    between atoms: C_15  and  O_16
REMARK    6  A    between atoms: C_19  and  C_20
REMARK                            x       y       z     vdW  Elec       q    Type
REMARK                         _______ _______ _______ _____ _____    ______ ____
ROOT
ATOM      1  N   UNL     1       0.110  10.708  19.257  0.00  0.00    +0.000 N 
ATOM      2  N   UNL     1      -1.162  10.645  18.768  0.00  0.00    +0.000 NA
ATOM      3  C   UNL     1      -1.805  11.674  19.223  0.00  0.00    +0.000 C 
ATOM      4  C   UNL     1      -1.011  12.606  20.080  0.00  0.00    +0.000 C 
ATOM      5  C   UNL     1       0.315  11.840  20.167  0.00  0.00    +0.000 C 
ENDROOT
BRANCH   5   6
ATOM      6  C   UNL     1       1.474  12.738  19.757  0.00  0.00    +0.000 A 
ATOM      7  C   UNL     1       2.279  13.334  20.743  0.00  0.00    +0.000 A 
ATOM      8  C   UNL     1       3.308  14.213  20.386  0.00  0.00    +0.000 A 
ATOM      9  C   UNL     1       3.541  14.503  19.044  0.00  0.00    +0.000 A 
ATOM     10 CL   UNL     1       4.794  15.598  18.608  0.00  0.00    +0.000 Cl
ATOM     11  C   UNL     1       2.759  13.919  18.053  0.00  0.00    +0.000 A 
ATOM     12  C   UNL     1       1.728  13.047  18.408  0.00  0.00    +0.000 A 
ENDBRANCH   5   6
BRANCH   1  16
ATOM     13  C   UNL     1       2.589   7.333  18.793  0.00  0.00    +0.000 A 
ATOM     14  C   UNL     1       2.359   8.184  17.718  0.00  0.00    +0.000 A 
ATOM     15  C   UNL     1       1.527   9.291  17.898  0.00  0.00    +0.000 A 
ATOM     16  C   UNL     1       0.919   9.581  19.138  0.00  0.00    +0.000 A 
ATOM     17  C   UNL     1       1.179   8.704  20.200  0.00  0.00    +0.000 A 
ATOM     18  C   UNL     1       1.998   7.581  20.032  0.00  0.00    +0.000 A 
BRANCH  13  19
ATOM     19  S   UNL     1       3.661   5.946  18.588  0.00  0.00    +0.000 S 
ATOM     20  O   UNL     1       3.886   5.331  19.877  0.00  0.00    +0.000 OA
ATOM     21  O   UNL     1       4.737   6.297  17.694  0.00  0.00    +0.000 OA
BRANCH  19  22
ATOM     22  N   UNL     1       2.693   4.880  17.718  0.00  0.00    +0.000 NA
ATOM     23  H   UNL     1       2.777   3.944  18.112  0.00  0.00    +0.000 HD
ATOM     24  H   UNL     1       2.916   4.937  16.726  0.00  0.00    +0.000 HD
ENDBRANCH  19  22
ENDBRANCH  13  19
ENDBRANCH   1  16
BRANCH   3  25
ATOM     25  C   UNL     1      -3.185  11.906  18.939  0.00  0.00    +0.000 A 
ATOM     26  N   UNL     1      -4.068  12.481  19.737  0.00  0.00    +0.000 NA
ATOM     27  N   UNL     1      -5.277  12.447  19.062  0.00  0.00    +0.000 NA
ATOM     28  C   UNL     1      -5.014  11.857  17.924  0.00  0.00    +0.000 A 
ATOM     29  O   UNL     1      -3.728  11.485  17.750  0.00  0.00    +0.000 OA
BRANCH  28  30
ATOM     30  O   UNL     1      -5.864  11.577  16.963  0.00  0.00    +0.000 OA
ATOM     31  H   UNL     1      -6.700  11.921  17.318  0.00  0.00    +0.000 HD
ENDBRANCH  28  30
ENDBRANCH   3  25
TORSDOF 6
ENDMDL
MODEL 2
REMARK VINA RESULT:      -7.1      4.702      9.568
REMARK  Name = 
REMARK  6 active torsions:
REMARK  status: ('A' for Active; 'I' for Inactive)
REMARK    1  A    between atoms: N_1  and  S_2
REMARK    2  A    between atoms: S_2  and  C_5
REMARK    3  A    between atoms: C_8  and  N_9
REMARK    4  A    between atoms: C_11  and  C_12
REMARK    5  A    between atoms: C_15  and  O_16
REMARK    6  A    between atoms: C_19  and  C_20
REMARK                            x       y       z     vdW  Elec       q    Type
REMARK                         _______ _______ _______ _____ _____    ______ ____
ROOT
ATOM      1  N   UNL     1       3.654   6.413  18.273  0.00  0.00    +0.000 N 
ATOM      2  N   UNL     1       4.173   6.339  17.014  0.00  0.00    +0.000 NA
ATOM      3  C   UNL     1       5.149   5.487  17.045  0.00  0.00    +0.000 C 
ATOM      4  C   UNL     1       5.399   4.838  18.368  0.00  0.00    +0.000 C 
ATOM      5  C   UNL     1       4.388   5.591  19.241  0.00  0.00    +0.000 C 
ENDROOT
BRANCH   5   6
ATOM      6  C   UNL     1       3.497   4.608  19.990  0.00  0.00    +0.000 A 
ATOM      7  C   UNL     1       2.212   5.003  20.399  0.00  0.00    +0.000 A 
ATOM      8  C   UNL     1       1.405   4.135  21.144  0.00  0.00    +0.000 A 
ATOM      9  C   UNL     1       1.875   2.869  21.485  0.00  0.00    +0.000 A 
ATOM     10 CL   UNL     1       0.889   1.811  22.416  0.00  0.00    +0.000 Cl
ATOM     11  C   UNL     1       3.142   2.458  21.084  0.00  0.00    +0.000 A 
ATOM     12  C   UNL     1       3.950   3.325  20.346  0.00  0.00    +0.000 A 
ENDBRANCH   5   6
BRANCH   1  16
ATOM     13  C   UNL     1       0.995   9.590  19.042  0.00  0.00    +0.000 A 
ATOM     14  C   UNL     1       1.534   9.422  17.771  0.00  0.00    +0.000 A 
ATOM     15  C   UNL     1       2.419   8.365  17.547  0.00  0.00    +0.000 A 
ATOM     16  C   UNL     1       2.776   7.456  18.564  0.00  0.00    +0.000 A 
ATOM     17  C   UNL     1       2.209   7.652  19.830  0.00  0.00    +0.000 A 
ATOM     18  C   UNL     1       1.332   8.716  20.076  0.00  0.00    +0.000 A 
BRANCH  13  19
ATOM     19  S   UNL     1      -0.147  10.904  19.334  0.00  0.00    +0.000 S 
ATOM     20  O   UNL     1       0.087  11.445  20.654  0.00  0.00    +0.000 OA
ATOM     21  O   UNL     1      -1.457  10.516  18.872  0.00  0.00    +0.000 OA
BRANCH  19  22
ATOM     22  N   UNL     1       0.379  12.073  18.244  0.00  0.00    +0.000 NA
ATOM     23  H   UNL     1       1.344  11.883  17.977  0.00  0.00    +0.000 HD
ATOM     24  H   UNL     1       0.229  13.004  18.632  0.00  0.00    +0.000 HD
ENDBRANCH  19  22
ENDBRANCH  13  19
ENDBRANCH   1  16
BRANCH   3  25
ATOM     25  C   UNL     1       5.947   5.188  15.899  0.00  0.00    +0.000 A 
ATOM     26  N   UNL     1       7.076   5.780  15.550  0.00  0.00    +0.000 NA
ATOM     27  N   UNL     1       7.462   5.196  14.355  0.00  0.00    +0.000 NA
ATOM     28  C   UNL     1       6.535   4.310  14.093  0.00  0.00    +0.000 A 
ATOM     29  O   UNL     1       5.544   4.226  15.006  0.00  0.00    +0.000 OA
BRANCH  28  30
ATOM     30  O   UNL     1       6.463   3.527  13.042  0.00  0.00    +0.000 OA
ATOM     31  H   UNL     1       7.291   3.727  12.576  0.00  0.00    +0.000 HD
ENDBRANCH  28  30
ENDBRANCH   3  25
TORSDOF 6
ENDMDL
MODEL 3
REMARK VINA RESULT:      -7.1      0.689      1.222
REMARK  Name = 
REMARK  6 active torsions:
REMARK  status: ('A' for Active; 'I' for Inactive)
REMARK    1  A    between atoms: N_1  and  S_2
REMARK    2  A    between atoms: S_2  and  C_5
REMARK    3  A    between atoms: C_8  and  N_9
REMARK    4  A    between atoms: C_11  and  C_12
REMARK    5  A    between atoms: C_15  and  O_16
REMARK    6  A    between atoms: C_19  and  C_20
REMARK                            x       y       z     vdW  Elec       q    Type
REMARK                         _______ _______ _______ _____ _____    ______ ____
ROOT
ATOM      1  N   UNL     1       0.234  10.686  19.162  0.00  0.00    +0.000 N 
ATOM      2  N   UNL     1      -1.040  10.635  18.679  0.00  0.00    +0.000 NA
ATOM      3  C   UNL     1      -1.692  11.630  19.196  0.00  0.00    +0.000 C 
ATOM      4  C   UNL     1      -0.901  12.521  20.099  0.00  0.00    +0.000 C 
ATOM      5  C   UNL     1       0.434  11.767  20.133  0.00  0.00    +0.000 C 
ENDROOT
BRANCH   5   6
ATOM      6  C   UNL     1       1.580  12.700  19.766  0.00  0.00    +0.000 A 
ATOM      7  C   UNL     1       2.327  13.321  20.781  0.00  0.00    +0.000 A 
ATOM      8  C   UNL     1       3.342  14.231  20.463  0.00  0.00    +0.000 A 
ATOM      9  C   UNL     1       3.617  14.528  19.131  0.00  0.00    +0.000 A 
ATOM     10 CL   UNL     1       4.851  15.661  18.742  0.00  0.00    +0.000 Cl
ATOM     11  C   UNL     1       2.891  13.920  18.111  0.00  0.00    +0.000 A 
ATOM     12  C   UNL     1       1.875  13.017  18.428  0.00  0.00    +0.000 A 
ENDBRANCH   5   6
BRANCH   1  16
ATOM     13  C   UNL     1       2.682   7.288  18.692  0.00  0.00    +0.000 A 
ATOM     14  C   UNL     1       2.028   7.517  19.897  0.00  0.00    +0.000 A 
ATOM     15  C   UNL     1       1.230   8.655  20.027  0.00  0.00    +0.000 A 
ATOM     16  C   UNL     1       1.056   9.576  18.973  0.00  0.00    +0.000 A 
ATOM     17  C   UNL     1       1.725   9.310  17.771  0.00  0.00    +0.000 A 
ATOM     18  C   UNL     1       2.543   8.182  17.629  0.00  0.00    +0.000 A 
BRANCH  13  19
ATOM     19  S   UNL     1       3.672   5.840  18.503  0.00  0.00    +0.000 S 
ATOM     20  O   UNL     1       2.939   4.868  17.722  0.00  0.00    +0.000 OA
ATOM     21  O   UNL     1       4.297   5.515  19.761  0.00  0.00    +0.000 OA
BRANCH  19  22
ATOM     22  N   UNL     1       4.919   6.393  17.518  0.00  0.00    +0.000 NA
ATOM     23  H   UNL     1       4.900   7.412  17.483  0.00  0.00    +0.000 HD
ATOM     24  H   UNL     1       4.868   5.944  16.605  0.00  0.00    +0.000 HD
ENDBRANCH  19  22
ENDBRANCH  13  19
ENDBRANCH   1  16
BRANCH   3  25
ATOM     25  C   UNL     1      -3.076  11.861  18.935  0.00  0.00    +0.000 A 
ATOM     26  N   UNL     1      -3.942  12.448  19.742  0.00  0.00    +0.000 NA
ATOM     27  N   UNL     1      -5.164  12.408  19.090  0.00  0.00    +0.000 NA
ATOM     28  C   UNL     1      -4.924  11.803  17.955  0.00  0.00    +0.000 A 
ATOM     29  O   UNL     1      -3.643  11.426  17.762  0.00  0.00    +0.000 OA
BRANCH  28  30
ATOM     30  O   UNL     1      -5.793  11.512  17.015  0.00  0.00    +0.000 OA
ATOM     31  H   UNL     1      -5.717  12.275  16.418  0.00  0.00    +0.000 HD
ENDBRANCH  28  30
ENDBRANCH   3  25
TORSDOF 6
ENDMDL
MODEL 4
REMARK VINA RESULT:      -7.1      0.695      1.501
REMARK  Name = 
REMARK  6 active torsions:
REMARK  status: ('A' for Active; 'I' for Inactive)
REMARK    1  A    between atoms: N_1  and  S_2
REMARK    2  A    between atoms: S_2  and  C_5
REMARK    3  A    between atoms: C_8  and  N_9
REMARK    4  A    between atoms: C_11  and  C_12
REMARK    5  A    between atoms: C_15  and  O_16
REMARK    6  A    between atoms: C_19  and  C_20
REMARK                            x       y       z     vdW  Elec       q    Type
REMARK                         _______ _______ _______ _____ _____    ______ ____
ROOT
ATOM      1  N   UNL     1       0.053  10.776  19.249  0.00  0.00    +0.000 N 
ATOM      2  N   UNL     1      -1.225  10.719  18.775  0.00  0.00    +0.000 NA
ATOM      3  C   UNL     1      -1.869  11.729  19.272  0.00  0.00    +0.000 C 
ATOM      4  C   UNL     1      -1.069  12.638  20.149  0.00  0.00    +0.000 C 
ATOM      5  C   UNL     1       0.263  11.879  20.193  0.00  0.00    +0.000 C 
ENDROOT
BRANCH   5   6
ATOM      6  C   UNL     1       1.410  12.798  19.796  0.00  0.00    +0.000 A 
ATOM      7  C   UNL     1       1.658  13.059  18.437  0.00  0.00    +0.000 A 
ATOM      8  C   UNL     1       2.747  13.849  18.051  0.00  0.00    +0.000 A 
ATOM      9  C   UNL     1       3.596  14.383  19.018  0.00  0.00    +0.000 A 
ATOM     10 CL   UNL     1       4.945  15.338  18.541  0.00  0.00    +0.000 Cl
ATOM     11  C   UNL     1       3.364  14.141  20.368  0.00  0.00    +0.000 A 
ATOM     12  C   UNL     1       2.282  13.348  20.753  0.00  0.00    +0.000 A 
ENDBRANCH   5   6
BRANCH   1  16
ATOM     13  C   UNL     1       2.490   7.362  18.849  0.00  0.00    +0.000 A 
ATOM     14  C   UNL     1       1.922   7.675  20.079  0.00  0.00    +0.000 A 
ATOM     15  C   UNL     1       1.126   8.817  20.184  0.00  0.00    +0.000 A 
ATOM     16  C   UNL     1       0.868   9.659  19.082  0.00  0.00    +0.000 A 
ATOM     17  C   UNL     1       1.452   9.308  17.856  0.00  0.00    +0.000 A 
ATOM     18  C   UNL     1       2.266   8.175  17.737  0.00  0.00    +0.000 A 
BRANCH  13  19
ATOM     19  S   UNL     1       3.476   5.907  18.693  0.00  0.00    +0.000 S 
ATOM     20  O   UNL     1       4.858   6.293  18.512  0.00  0.00    +0.000 OA
ATOM     21  O   UNL     1       2.811   4.964  17.828  0.00  0.00    +0.000 OA
BRANCH  19  22
ATOM     22  N   UNL     1       3.369   5.244  20.236  0.00  0.00    +0.000 NA
ATOM     23  H   UNL     1       3.755   4.301  20.231  0.00  0.00    +0.000 HD
ATOM     24  H   UNL     1       2.410   5.301  20.574  0.00  0.00    +0.000 HD
ENDBRANCH  19  22
ENDBRANCH  13  19
ENDBRANCH   1  16
BRANCH   3  25
ATOM     25  C   UNL     1      -3.254  11.960  19.014  0.00  0.00    +0.000 A 
ATOM     26  N   UNL     1      -4.125  12.521  19.835  0.00  0.00    +0.000 NA
ATOM     27  N   UNL     1      -5.345  12.492  19.180  0.00  0.00    +0.000 NA
ATOM     28  C   UNL     1      -5.099  11.919  18.029  0.00  0.00    +0.000 A 
ATOM     29  O   UNL     1      -3.816  11.554  17.829  0.00  0.00    +0.000 OA
BRANCH  28  30
ATOM     30  O   UNL     1      -5.965  11.649  17.080  0.00  0.00    +0.000 OA
ATOM     31  H   UNL     1      -6.815  11.750  17.537  0.00  0.00    +0.000 HD
ENDBRANCH  28  30
ENDBRANCH   3  25
TORSDOF 6
ENDMDL
MODEL 5
REMARK VINA RESULT:      -6.9      3.607      7.185
REMARK  Name = 
REMARK  6 active torsions:
REMARK  status: ('A' for Active; 'I' for Inactive)
REMARK    1  A    between atoms: N_1  and  S_2
REMARK    2  A    between atoms: S_2  and  C_5
REMARK    3  A    between atoms: C_8  and  N_9
REMARK    4  A    between atoms: C_11  and  C_12
REMARK    5  A    between atoms: C_15  and  O_16
REMARK    6  A    between atoms: C_19  and  C_20
REMARK                            x       y       z     vdW  Elec       q    Type
REMARK                         _______ _______ _______ _____ _____    ______ ____
ROOT
ATOM      1  N   UNL     1      -0.208  11.276  20.313  0.00  0.00    +0.000 N 
ATOM      2  N   UNL     1       0.298  10.021  20.488  0.00  0.00    +0.000 NA
ATOM      3  C   UNL     1       1.065   9.766  19.475  0.00  0.00    +0.000 C 
ATOM      4  C   UNL     1       1.198  10.866  18.472  0.00  0.00    +0.000 C 
ATOM      5  C   UNL     1       0.205  11.884  19.043  0.00  0.00    +0.000 C 
ENDROOT
BRANCH   5   6
ATOM      6  C   UNL     1       0.876  13.240  19.217  0.00  0.00    +0.000 A 
ATOM      7  C   UNL     1       0.191  14.410  18.847  0.00  0.00    +0.000 A 
ATOM      8  C   UNL     1       0.816  15.660  18.940  0.00  0.00    +0.000 A 
ATOM      9  C   UNL     1       2.127  15.749  19.402  0.00  0.00    +0.000 A 
ATOM     10 CL   UNL     1       2.900  17.283  19.497  0.00  0.00    +0.000 Cl
ATOM     11  C   UNL     1       2.819  14.602  19.778  0.00  0.00    +0.000 A 
ATOM     12  C   UNL     1       2.199  13.356  19.680  0.00  0.00    +0.000 A 
ENDBRANCH   5   6
BRANCH   1  16
ATOM     13  C   UNL     1      -3.477  12.518  22.664  0.00  0.00    +0.000 A 
ATOM     14  C   UNL     1      -3.484  12.729  21.290  0.00  0.00    +0.000 A 
ATOM     15  C   UNL     1      -2.384  12.314  20.537  0.00  0.00    +0.000 A 
ATOM     16  C   UNL     1      -1.269  11.679  21.121  0.00  0.00    +0.000 A 
ATOM     17  C   UNL     1      -1.298  11.477  22.508  0.00  0.00    +0.000 A 
ATOM     18  C   UNL     1      -2.387  11.901  23.280  0.00  0.00    +0.000 A 
BRANCH  13  19
ATOM     19  S   UNL     1      -4.872  13.011  23.626  0.00  0.00    +0.000 S 
ATOM     20  O   UNL     1      -6.076  12.527  22.989  0.00  0.00    +0.000 OA
ATOM     21  O   UNL     1      -4.709  14.381  24.044  0.00  0.00    +0.000 OA
BRANCH  19  22
ATOM     22  N   UNL     1      -4.675  12.095  25.023  0.00  0.00    +0.000 NA
ATOM     23  H   UNL     1      -3.705  12.144  25.331  0.00  0.00    +0.000 HD
ATOM     24  H   UNL     1      -5.016  11.147  24.870  0.00  0.00    +0.000 HD
ENDBRANCH  19  22
ENDBRANCH  13  19
ENDBRANCH   1  16
BRANCH   3  25
ATOM     25  C   UNL     1       1.734   8.515  19.313  0.00  0.00    +0.000 A 
ATOM     26  N   UNL     1       2.305   8.064  18.210  0.00  0.00    +0.000 NA
ATOM     27  N   UNL     1       2.781   6.799  18.512  0.00  0.00    +0.000 NA
ATOM     28  C   UNL     1       2.456   6.604  19.764  0.00  0.00    +0.000 A 
ATOM     29  O   UNL     1       1.801   7.624  20.356  0.00  0.00    +0.000 OA
BRANCH  28  30
ATOM     30  O   UNL     1       2.678   5.526  20.480  0.00  0.00    +0.000 OA
ATOM     31  H   UNL     1       3.192   4.973  19.869  0.00  0.00    +0.000 HD
ENDBRANCH  28  30
ENDBRANCH   3  25
TORSDOF 6
ENDMDL
MODEL 6
REMARK VINA RESULT:      -6.9      1.015      1.366
REMARK  Name = 
REMARK  6 active torsions:
REMARK  status: ('A' for Active; 'I' for Inactive)
REMARK    1  A    between atoms: N_1  and  S_2
REMARK    2  A    between atoms: S_2  and  C_5
REMARK    3  A    between atoms: C_8  and  N_9
REMARK    4  A    between atoms: C_11  and  C_12
REMARK    5  A    between atoms: C_15  and  O_16
REMARK    6  A    between atoms: C_19  and  C_20
REMARK                            x       y       z     vdW  Elec       q    Type
REMARK                         _______ _______ _______ _____ _____    ______ ____
ROOT
ATOM      1  N   UNL     1       0.175  10.399  19.011  0.00  0.00    +0.000 N 
ATOM      2  N   UNL     1      -1.010  10.313  18.341  0.00  0.00    +0.000 NA
ATOM      3  C   UNL     1      -1.725  11.339  18.681  0.00  0.00    +0.000 C 
ATOM      4  C   UNL     1      -1.077  12.292  19.632  0.00  0.00    +0.000 C 
ATOM      5  C   UNL     1       0.230  11.545  19.925  0.00  0.00    +0.000 C 
ENDROOT
BRANCH   5   6
ATOM      6  C   UNL     1       1.427  12.453  19.678  0.00  0.00    +0.000 A 
ATOM      7  C   UNL     1       2.009  13.149  20.751  0.00  0.00    +0.000 A 
ATOM      8  C   UNL     1       3.069  14.037  20.533  0.00  0.00    +0.000 A 
ATOM      9  C   UNL     1       3.554  14.237  19.243  0.00  0.00    +0.000 A 
ATOM     10 CL   UNL     1       4.843  15.343  18.973  0.00  0.00    +0.000 Cl
ATOM     11  C   UNL     1       2.994  13.554  18.168  0.00  0.00    +0.000 A 
ATOM     12  C   UNL     1       1.933  12.673  18.384  0.00  0.00    +0.000 A 
ENDBRANCH   5   6
BRANCH   1  16
ATOM     13  C   UNL     1       2.651   6.993  19.170  0.00  0.00    +0.000 A 
ATOM     14  C   UNL     1       1.977   7.421  20.308  0.00  0.00    +0.000 A 
ATOM     15  C   UNL     1       1.169   8.558  20.229  0.00  0.00    +0.000 A 
ATOM     16  C   UNL     1       1.006   9.281  19.029  0.00  0.00    +0.000 A 
ATOM     17  C   UNL     1       1.695   8.817  17.900  0.00  0.00    +0.000 A 
ATOM     18  C   UNL     1       2.521   7.688  17.967  0.00  0.00    +0.000 A 
BRANCH  13  19
ATOM     19  S   UNL     1       3.652   5.542  19.249  0.00  0.00    +0.000 S 
ATOM     20  O   UNL     1       3.138   4.672  20.283  0.00  0.00    +0.000 OA
ATOM     21  O   UNL     1       5.043   5.912  19.161  0.00  0.00    +0.000 OA
BRANCH  19  22
ATOM     22  N   UNL     1       3.300   4.794  17.783  0.00  0.00    +0.000 NA
ATOM     23  H   UNL     1       4.111   4.264  17.467  0.00  0.00    +0.000 HD
ATOM     24  H   UNL     1       2.964   5.483  17.112  0.00  0.00    +0.000 HD
ENDBRANCH  19  22
ENDBRANCH  13  19
ENDBRANCH   1  16
BRANCH   3  25
ATOM     25  C   UNL     1      -3.050  11.549  18.192  0.00  0.00    +0.000 A 
ATOM     26  N   UNL     1      -3.473  11.355  16.955  0.00  0.00    +0.000 NA
ATOM     27  N   UNL     1      -4.806  11.732  16.940  0.00  0.00    +0.000 NA
ATOM     28  C   UNL     1      -5.063  12.118  18.164  0.00  0.00    +0.000 A 
ATOM     29  O   UNL     1      -4.028  12.036  19.025  0.00  0.00    +0.000 OA
BRANCH  28  30
ATOM     30  O   UNL     1      -6.200  12.589  18.622  0.00  0.00    +0.000 OA
ATOM     31  H   UNL     1      -6.855  12.103  18.093  0.00  0.00    +0.000 HD
ENDBRANCH  28  30
ENDBRANCH   3  25
TORSDOF 6
ENDMDL
MODEL 7
REMARK VINA RESULT:      -6.9      3.654      7.212
REMARK  Name = 
REMARK  6 active torsions:
REMARK  status: ('A' for Active; 'I' for Inactive)
REMARK    1  A    between atoms: N_1  and  S_2
REMARK    2  A    between atoms: S_2  and  C_5
REMARK    3  A    between atoms: C_8  and  N_9
REMARK    4  A    between atoms: C_11  and  C_12
REMARK    5  A    between atoms: C_15  and  O_16
REMARK    6  A    between atoms: C_19  and  C_20
REMARK                            x       y       z     vdW  Elec       q    Type
REMARK                         _______ _______ _______ _____ _____    ______ ____
ROOT
ATOM      1  N   UNL     1      -0.214  11.269  20.250  0.00  0.00    +0.000 N 
ATOM      2  N   UNL     1       0.311  10.028  20.462  0.00  0.00    +0.000 NA
ATOM      3  C   UNL     1       1.047   9.736  19.436  0.00  0.00    +0.000 C 
ATOM      4  C   UNL     1       1.136  10.794  18.383  0.00  0.00    +0.000 C 
ATOM      5  C   UNL     1       0.150  11.826  18.943  0.00  0.00    +0.000 C 
ENDROOT
BRANCH   5   6
ATOM      6  C   UNL     1       0.812  13.194  19.037  0.00  0.00    +0.000 A 
ATOM      7  C   UNL     1       2.144  13.297  19.472  0.00  0.00    +0.000 A 
ATOM      8  C   UNL     1       2.748  14.551  19.626  0.00  0.00    +0.000 A 
ATOM      9  C   UNL     1       2.026  15.709  19.348  0.00  0.00    +0.000 A 
ATOM     10 CL   UNL     1       2.763  17.249  19.556  0.00  0.00    +0.000 Cl
ATOM     11  C   UNL     1       0.707  15.628  18.911  0.00  0.00    +0.000 A 
ATOM     12  C   UNL     1       0.103  14.378  18.764  0.00  0.00    +0.000 A 
ENDBRANCH   5   6
BRANCH   1  16
ATOM     13  C   UNL     1      -3.291  12.532  22.837  0.00  0.00    +0.000 A 
ATOM     14  C   UNL     1      -2.181  11.865  23.344  0.00  0.00    +0.000 A 
ATOM     15  C   UNL     1      -1.180  11.451  22.463  0.00  0.00    +0.000 A 
ATOM     16  C   UNL     1      -1.252  11.695  21.075  0.00  0.00    +0.000 A 
ATOM     17  C   UNL     1      -2.382  12.375  20.601  0.00  0.00    +0.000 A 
ATOM     18  C   UNL     1      -3.402  12.783  21.469  0.00  0.00    +0.000 A 
BRANCH  13  19
ATOM     19  S   UNL     1      -4.550  13.086  23.942  0.00  0.00    +0.000 S 
ATOM     20  O   UNL     1      -5.053  11.954  24.688  0.00  0.00    +0.000 OA
ATOM     21  O   UNL     1      -5.416  14.015  23.259  0.00  0.00    +0.000 OA
BRANCH  19  22
ATOM     22  N   UNL     1      -3.673  14.019  25.034  0.00  0.00    +0.000 NA
ATOM     23  H   UNL     1      -2.868  14.429  24.563  0.00  0.00    +0.000 HD
ATOM     24  H   UNL     1      -3.438  13.464  25.856  0.00  0.00    +0.000 HD
ENDBRANCH  19  22
ENDBRANCH  13  19
ENDBRANCH   1  16
BRANCH   3  25
ATOM     25  C   UNL     1       1.725   8.487  19.305  0.00  0.00    +0.000 A 
ATOM     26  N   UNL     1       2.301   8.014  18.214  0.00  0.00    +0.000 NA
ATOM     27  N   UNL     1       2.785   6.759  18.547  0.00  0.00    +0.000 NA
ATOM     28  C   UNL     1       2.457   6.591  19.803  0.00  0.00    +0.000 A 
ATOM     29  O   UNL     1       1.795   7.621  20.369  0.00  0.00    +0.000 OA
BRANCH  28  30
ATOM     30  O   UNL     1       2.685   5.532  20.544  0.00  0.00    +0.000 OA
ATOM     31  H   UNL     1       3.016   4.890  19.895  0.00  0.00    +0.000 HD
ENDBRANCH  28  30
ENDBRANCH   3  25
TORSDOF 6
ENDMDL
MODEL 8
REMARK VINA RESULT:      -6.9      1.224      1.305
REMARK  Name = 
REMARK  6 active torsions:
REMARK  status: ('A' for Active; 'I' for Inactive)
REMARK    1  A    between atoms: N_1  and  S_2
REMARK    2  A    between atoms: S_2  and  C_5
REMARK    3  A    between atoms: C_8  and  N_9
REMARK    4  A    between atoms: C_11  and  C_12
REMARK    5  A    between atoms: C_15  and  O_16
REMARK    6  A    between atoms: C_19  and  C_20
REMARK                            x       y       z     vdW  Elec       q    Type
REMARK                         _______ _______ _______ _____ _____    ______ ____
ROOT
ATOM      1  N   UNL     1       0.156  10.781  19.357  0.00  0.00    +0.000 N 
ATOM      2  N   UNL     1      -1.144  10.743  18.945  0.00  0.00    +0.000 NA
ATOM      3  C   UNL     1      -1.747  11.765  19.468  0.00  0.00    +0.000 C 
ATOM      4  C   UNL     1      -0.892  12.664  20.301  0.00  0.00    +0.000 C 
ATOM      5  C   UNL     1       0.428  11.884  20.285  0.00  0.00    +0.000 C 
ENDROOT
BRANCH   5   6
ATOM      6  C   UNL     1       1.570  12.783  19.831  0.00  0.00    +0.000 A 
ATOM      7  C   UNL     1       2.387  13.410  20.787  0.00  0.00    +0.000 A 
ATOM      8  C   UNL     1       3.401  14.290  20.389  0.00  0.00    +0.000 A 
ATOM      9  C   UNL     1       3.605  14.550  19.036  0.00  0.00    +0.000 A 
ATOM     10 CL   UNL     1       4.838  15.646  18.550  0.00  0.00    +0.000 Cl
ATOM     11  C   UNL     1       2.810  13.934  18.075  0.00  0.00    +0.000 A 
ATOM     12  C   UNL     1       1.794  13.062  18.471  0.00  0.00    +0.000 A 
ENDBRANCH   5   6
BRANCH   1  16
ATOM     13  C   UNL     1       2.566   7.398  18.648  0.00  0.00    +0.000 A 
ATOM     14  C   UNL     1       2.283   8.284  17.615  0.00  0.00    +0.000 A 
ATOM     15  C   UNL     1       1.475   9.392  17.876  0.00  0.00    +0.000 A 
ATOM     16  C   UNL     1       0.944   9.650  19.157  0.00  0.00    +0.000 A 
ATOM     17  C   UNL     1       1.256   8.739  20.176  0.00  0.00    +0.000 A 
ATOM     18  C   UNL     1       2.051   7.614  19.927  0.00  0.00    +0.000 A 
BRANCH  13  19
ATOM     19  S   UNL     1       3.609   6.008  18.339  0.00  0.00    +0.000 S 
ATOM     20  O   UNL     1       4.882   6.478  17.840  0.00  0.00    +0.000 OA
ATOM     21  O   UNL     1       2.850   4.972  17.684  0.00  0.00    +0.000 OA
BRANCH  19  22
ATOM     22  N   UNL     1       3.894   5.432  19.894  0.00  0.00    +0.000 NA
ATOM     23  H   UNL     1       4.880   5.547  20.126  0.00  0.00    +0.000 HD
ATOM     24  H   UNL     1       3.555   4.475  19.979  0.00  0.00    +0.000 HD
ENDBRANCH  19  22
ENDBRANCH  13  19
ENDBRANCH   1  16
BRANCH   3  25
ATOM     25  C   UNL     1      -3.139  12.018  19.274  0.00  0.00    +0.000 A 
ATOM     26  N   UNL     1      -3.860  11.686  18.217  0.00  0.00    +0.000 NA
ATOM     27  N   UNL     1      -5.135  12.172  18.453  0.00  0.00    +0.000 NA
ATOM     28  C   UNL     1      -5.067  12.749  19.625  0.00  0.00    +0.000 A 
ATOM     29  O   UNL     1      -3.858  12.701  20.223  0.00  0.00    +0.000 OA
BRANCH  28  30
ATOM     30  O   UNL     1      -6.033  13.378  20.254  0.00  0.00    +0.000 OA
ATOM     31  H   UNL     1      -6.352  12.702  20.874  0.00  0.00    +0.000 HD
ENDBRANCH  28  30
ENDBRANCH   3  25
TORSDOF 6
ENDMDL
MODEL 9
REMARK VINA RESULT:      -6.8      2.702      3.007
REMARK  Name = 
REMARK  6 active torsions:
REMARK  status: ('A' for Active; 'I' for Inactive)
REMARK    1  A    between atoms: N_1  and  S_2
REMARK    2  A    between atoms: S_2  and  C_5
REMARK    3  A    between atoms: C_8  and  N_9
REMARK    4  A    between atoms: C_11  and  C_12
REMARK    5  A    between atoms: C_15  and  O_16
REMARK    6  A    between atoms: C_19  and  C_20
REMARK                            x       y       z     vdW  Elec       q    Type
REMARK                         _______ _______ _______ _____ _____    ______ ____
ROOT
ATOM      1  N   UNL     1       0.050  11.269  20.851  0.00  0.00    +0.000 N 
ATOM      2  N   UNL     1      -1.250  11.125  21.236  0.00  0.00    +0.000 NA
ATOM      3  C   UNL     1      -1.563  12.166  21.943  0.00  0.00    +0.000 C 
ATOM      4  C   UNL     1      -0.484  13.187  22.102  0.00  0.00    +0.000 C 
ATOM      5  C   UNL     1       0.678  12.475  21.401  0.00  0.00    +0.000 C 
ENDROOT
BRANCH   5   6
ATOM      6  C   UNL     1       1.287  13.375  20.334  0.00  0.00    +0.000 A 
ATOM      7  C   UNL     1       2.680  13.395  20.149  0.00  0.00    +0.000 A 
ATOM      8  C   UNL     1       3.262  14.263  19.218  0.00  0.00    +0.000 A 
ATOM      9  C   UNL     1       2.458  15.116  18.466  0.00  0.00    +0.000 A 
ATOM     10 CL   UNL     1       3.176  16.196  17.336  0.00  0.00    +0.000 Cl
ATOM     11  C   UNL     1       1.077  15.107  18.631  0.00  0.00    +0.000 A 
ATOM     12  C   UNL     1       0.496  14.246  19.564  0.00  0.00    +0.000 A 
ENDBRANCH   5   6
BRANCH   1  16
ATOM     13  C   UNL     1       2.046   7.980  19.131  0.00  0.00    +0.000 A 
ATOM     14  C   UNL     1       1.715   9.082  18.351  0.00  0.00    +0.000 A 
ATOM     15  C   UNL     1       1.047  10.155  18.946  0.00  0.00    +0.000 A 
ATOM     16  C   UNL     1       0.705  10.162  20.314  0.00  0.00    +0.000 A 
ATOM     17  C   UNL     1       1.060   9.037  21.070  0.00  0.00    +0.000 A 
ATOM     18  C   UNL     1       1.716   7.946  20.486  0.00  0.00    +0.000 A 
BRANCH  13  19
ATOM     19  S   UNL     1       2.916   6.629  18.400  0.00  0.00    +0.000 S 
ATOM     20  O   UNL     1       3.992   7.149  17.586  0.00  0.00    +0.000 OA
ATOM     21  O   UNL     1       1.971   5.655  17.912  0.00  0.00    +0.000 OA
BRANCH  19  22
ATOM     22  N   UNL     1       3.639   5.912  19.739  0.00  0.00    +0.000 NA
ATOM     23  H   UNL     1       3.434   6.461  20.573  0.00  0.00    +0.000 HD
ATOM     24  H   UNL     1       4.633   5.774  19.566  0.00  0.00    +0.000 HD
ENDBRANCH  19  22
ENDBRANCH  13  19
ENDBRANCH   1  16
BRANCH   3  25
ATOM     25  C   UNL     1      -2.849  12.330  22.542  0.00  0.00    +0.000 A 
ATOM     26  N   UNL     1      -3.970  12.657  21.924  0.00  0.00    +0.000 NA
ATOM     27  N   UNL     1      -4.941  12.744  22.908  0.00  0.00    +0.000 NA
ATOM     28  C   UNL     1      -4.319  12.463  24.025  0.00  0.00    +0.000 A 
ATOM     29  O   UNL     1      -3.005  12.184  23.899  0.00  0.00    +0.000 OA
BRANCH  28  30
ATOM     30  O   UNL     1      -4.832  12.448  25.233  0.00  0.00    +0.000 OA
ATOM     31  H   UNL     1      -5.784  12.512  25.056  0.00  0.00    +0.000 HD
ENDBRANCH  28  30
ENDBRANCH   3  25
TORSDOF 6
ENDMDL
