MODEL 1
REMARK VINA RESULT:      -8.3      0.000      0.000
REMARK  Name = 
REMARK  5 active torsions:
REMARK  status: ('A' for Active; 'I' for Inactive)
REMARK    1  A    between atoms: C_2  and  C_14
REMARK    2  A    between atoms: N_3  and  C_4
REMARK    3  A    between atoms: C_4  and  C_5
REMARK    4  A    between atoms: C_5  and  N_6
REMARK    5  A    between atoms: N_17  and  C_18
REMARK                            x       y       z     vdW  Elec       q    Type
REMARK                         _______ _______ _______ _____ _____    ______ ____
ROOT
ATOM      1  O   UNL     1       4.870   5.733  19.125  0.00  0.00    +0.000 OA
ATOM      2  C   UNL     1       3.842   5.869  18.465  0.00  0.00    +0.000 C 
ATOM      3  N   UNL     1       3.451   4.958  17.502  0.00  0.00    +0.000 N 
ATOM      4  H   UNL     1       2.670   5.234  16.917  0.00  0.00    +0.000 HD
ENDROOT
BRANCH   2   5
ATOM      5  C   UNL     1       2.954   7.031  18.641  0.00  0.00    +0.000 A 
ATOM      6  C   UNL     1       2.624   7.952  17.620  0.00  0.00    +0.000 A 
ATOM      7  C   UNL     1       1.788   8.865  18.209  0.00  0.00    +0.000 A 
ATOM      8  N   UNL     1       1.647   8.495  19.527  0.00  0.00    +0.000 N 
ATOM      9  N   UNL     1       2.349   7.354  19.803  0.00  0.00    +0.000 NA
BRANCH   8  10
ATOM     10  C   UNL     1       0.889   9.171  20.531  0.00  0.00    +0.000 A 
ATOM     11  C   UNL     1       0.905   8.729  21.866  0.00  0.00    +0.000 A 
ATOM     12  C   UNL     1       0.151   9.396  22.837  0.00  0.00    +0.000 A 
ATOM     13  C   UNL     1      -0.613  10.497  22.478  0.00  0.00    +0.000 A 
ATOM     14  F   UNL     1      -1.334  11.131  23.411  0.00  0.00    +0.000 F 
ATOM     15  C   UNL     1      -0.640  10.948  21.163  0.00  0.00    +0.000 A 
ATOM     16  C   UNL     1       0.113  10.288  20.186  0.00  0.00    +0.000 A 
ENDBRANCH   8  10
ENDBRANCH   2   5
BRANCH   3  17
ATOM     17  C   UNL     1       4.346   3.872  17.145  0.00  0.00    +0.000 C 
BRANCH  17  18
ATOM     18  C   UNL     1       3.813   2.480  17.485  0.00  0.00    +0.000 C 
BRANCH  18  19
ATOM     19  N   UNL     1       3.091   2.446  18.766  0.00  0.00    +0.000 N 
ATOM     20  C   UNL     1       1.630   2.422  18.729  0.00  0.00    +0.000 C 
ATOM     21  C   UNL     1       0.979   3.674  19.319  0.00  0.00    +0.000 C 
ATOM     22  C   UNL     1       0.895   3.659  20.842  0.00  0.00    +0.000 C 
ATOM     23  C   UNL     1       2.252   3.657  21.538  0.00  0.00    +0.000 C 
ATOM     24  C   UNL     1       3.073   2.408  21.249  0.00  0.00    +0.000 C 
ATOM     25  C   UNL     1       3.830   2.491  19.938  0.00  0.00    +0.000 C 
ATOM     26  O   UNL     1       5.058   2.583  19.938  0.00  0.00    +0.000 OA
ENDBRANCH  18  19
ENDBRANCH  17  18
ENDBRANCH   3  17
TORSDOF 5
ENDMDL
MODEL 2
REMARK VINA RESULT:      -8.0      6.087      8.916
REMARK  Name = 
REMARK  5 active torsions:
REMARK  status: ('A' for Active; 'I' for Inactive)
REMARK    1  A    between atoms: C_2  and  C_14
REMARK    2  A    between atoms: N_3  and  C_4
REMARK    3  A    between atoms: C_4  and  C_5
REMARK    4  A    between atoms: C_5  and  N_6
REMARK    5  A    between atoms: N_17  and  C_18
REMARK                            x       y       z     vdW  Elec       q    Type
REMARK                         _______ _______ _______ _____ _____    ______ ____
ROOT
ATOM      1  O   UNL     1       8.245   6.516  18.940  0.00  0.00    +0.000 OA
ATOM      2  C   UNL     1       7.590   6.920  17.983  0.00  0.00    +0.000 C 
ATOM      3  N   UNL     1       7.819   8.148  17.391  0.00  0.00    +0.000 N 
ATOM      4  H   UNL     1       7.134   8.448  16.706  0.00  0.00    +0.000 HD
ENDROOT
BRANCH   2   5
ATOM      5  C   UNL     1       6.490   6.130  17.404  0.00  0.00    +0.000 A 
ATOM      6  C   UNL     1       6.264   5.960  16.018  0.00  0.00    +0.000 A 
ATOM      7  C   UNL     1       5.149   5.169  15.924  0.00  0.00    +0.000 A 
ATOM      8  N   UNL     1       4.735   4.898  17.208  0.00  0.00    +0.000 N 
ATOM      9  N   UNL     1       5.564   5.472  18.133  0.00  0.00    +0.000 NA
BRANCH   8  10
ATOM     10  C   UNL     1       3.595   4.132  17.598  0.00  0.00    +0.000 A 
ATOM     11  C   UNL     1       2.359   4.755  17.852  0.00  0.00    +0.000 A 
ATOM     12  C   UNL     1       1.253   3.993  18.240  0.00  0.00    +0.000 A 
ATOM     13  C   UNL     1       1.379   2.618  18.374  0.00  0.00    +0.000 A 
ATOM     14  F   UNL     1       0.317   1.892  18.748  0.00  0.00    +0.000 F 
ATOM     15  C   UNL     1       2.591   1.984  18.127  0.00  0.00    +0.000 A 
ATOM     16  C   UNL     1       3.703   2.739  17.735  0.00  0.00    +0.000 A 
ENDBRANCH   8  10
ENDBRANCH   2   5
BRANCH   3  17
ATOM     17  C   UNL     1       8.769   9.063  17.996  0.00  0.00    +0.000 C 
BRANCH  17  18
ATOM     18  C   UNL     1       8.190  10.436  18.341  0.00  0.00    +0.000 C 
BRANCH  18  19
ATOM     19  N   UNL     1       9.217  11.389  18.786  0.00  0.00    +0.000 N 
ATOM     20  C   UNL     1       9.822  12.264  17.784  0.00  0.00    +0.000 C 
ATOM     21  C   UNL     1      11.312  12.004  17.559  0.00  0.00    +0.000 C 
ATOM     22  C   UNL     1      12.211  12.658  18.604  0.00  0.00    +0.000 C 
ATOM     23  C   UNL     1      12.011  12.120  20.017  0.00  0.00    +0.000 C 
ATOM     24  C   UNL     1      10.621  12.393  20.572  0.00  0.00    +0.000 C 
ATOM     25  C   UNL     1       9.595  11.373  20.120  0.00  0.00    +0.000 C 
ATOM     26  O   UNL     1       9.118  10.575  20.928  0.00  0.00    +0.000 OA
ENDBRANCH  18  19
ENDBRANCH  17  18
ENDBRANCH   3  17
TORSDOF 5
ENDMDL
MODEL 3
REMARK VINA RESULT:      -7.9      6.178      9.156
REMARK  Name = 
REMARK  5 active torsions:
REMARK  status: ('A' for Active; 'I' for Inactive)
REMARK    1  A    between atoms: C_2  and  C_14
REMARK    2  A    between atoms: N_3  and  C_4
REMARK    3  A    between atoms: C_4  and  C_5
REMARK    4  A    between atoms: C_5  and  N_6
REMARK    5  A    between atoms: N_17  and  C_18
REMARK                            x       y       z     vdW  Elec       q    Type
REMARK                         _______ _______ _______ _____ _____    ______ ____
ROOT
ATOM      1  O   UNL     1       8.406   6.795  18.963  0.00  0.00    +0.000 OA
ATOM      2  C   UNL     1       7.655   7.122  18.047  0.00  0.00    +0.000 C 
ATOM      3  N   UNL     1       7.661   8.391  17.498  0.00  0.00    +0.000 N 
ATOM      4  H   UNL     1       6.909   8.601  16.851  0.00  0.00    +0.000 HD
ENDROOT
BRANCH   2   5
ATOM      5  C   UNL     1       6.673   6.186  17.476  0.00  0.00    +0.000 A 
ATOM      6  C   UNL     1       6.688   5.718  16.141  0.00  0.00    +0.000 A 
ATOM      7  C   UNL     1       5.607   4.883  16.034  0.00  0.00    +0.000 A 
ATOM      8  N   UNL     1       4.979   4.874  17.258  0.00  0.00    +0.000 N 
ATOM      9  N   UNL     1       5.636   5.663  18.163  0.00  0.00    +0.000 NA
BRANCH   8  10
ATOM     10  C   UNL     1       3.790   4.165  17.606  0.00  0.00    +0.000 A 
ATOM     11  C   UNL     1       3.774   2.759  17.648  0.00  0.00    +0.000 A 
ATOM     12  C   UNL     1       2.600   2.078  17.983  0.00  0.00    +0.000 A 
ATOM     13  C   UNL     1       1.448   2.795  18.273  0.00  0.00    +0.000 A 
ATOM     14  F   UNL     1       0.325   2.138  18.591  0.00  0.00    +0.000 F 
ATOM     15  C   UNL     1       1.444   4.185  18.236  0.00  0.00    +0.000 A 
ATOM     16  C   UNL     1       2.616   4.875  17.905  0.00  0.00    +0.000 A 
ENDBRANCH   8  10
ENDBRANCH   2   5
BRANCH   3  17
ATOM     17  C   UNL     1       8.477   9.426  18.107  0.00  0.00    +0.000 C 
BRANCH  17  18
ATOM     18  C   UNL     1       8.123  10.847  17.669  0.00  0.00    +0.000 C 
BRANCH  18  19
ATOM     19  N   UNL     1       9.204  11.808  17.932  0.00  0.00    +0.000 N 
ATOM     20  C   UNL     1      10.524  11.280  18.272  0.00  0.00    +0.000 C 
ATOM     21  C   UNL     1      10.974  11.614  19.694  0.00  0.00    +0.000 C 
ATOM     22  C   UNL     1      11.551  13.019  19.838  0.00  0.00    +0.000 C 
ATOM     23  C   UNL     1      10.548  14.132  19.560  0.00  0.00    +0.000 C 
ATOM     24  C   UNL     1      10.041  14.139  18.124  0.00  0.00    +0.000 C 
ATOM     25  C   UNL     1       8.905  13.161  17.897  0.00  0.00    +0.000 C 
ATOM     26  O   UNL     1       7.766  13.577  17.678  0.00  0.00    +0.000 OA
ENDBRANCH  18  19
ENDBRANCH  17  18
ENDBRANCH   3  17
TORSDOF 5
ENDMDL
MODEL 4
REMARK VINA RESULT:      -7.9      6.075      9.086
REMARK  Name = 
REMARK  5 active torsions:
REMARK  status: ('A' for Active; 'I' for Inactive)
REMARK    1  A    between atoms: C_2  and  C_14
REMARK    2  A    between atoms: N_3  and  C_4
REMARK    3  A    between atoms: C_4  and  C_5
REMARK    4  A    between atoms: C_5  and  N_6
REMARK    5  A    between atoms: N_17  and  C_18
REMARK                            x       y       z     vdW  Elec       q    Type
REMARK                         _______ _______ _______ _____ _____    ______ ____
ROOT
ATOM      1  O   UNL     1       8.263   6.507  18.941  0.00  0.00    +0.000 OA
ATOM      2  C   UNL     1       7.566   6.903  18.009  0.00  0.00    +0.000 C 
ATOM      3  N   UNL     1       7.718   8.157  17.448  0.00  0.00    +0.000 N 
ATOM      4  H   UNL     1       7.003   8.440  16.786  0.00  0.00    +0.000 HD
ENDROOT
BRANCH   2   5
ATOM      5  C   UNL     1       6.497   6.071  17.430  0.00  0.00    +0.000 A 
ATOM      6  C   UNL     1       6.332   5.822  16.048  0.00  0.00    +0.000 A 
ATOM      7  C   UNL     1       5.227   5.016  15.952  0.00  0.00    +0.000 A 
ATOM      8  N   UNL     1       4.760   4.815  17.231  0.00  0.00    +0.000 N 
ATOM      9  N   UNL     1       5.545   5.448  18.155  0.00  0.00    +0.000 NA
BRANCH   8  10
ATOM     10  C   UNL     1       3.609   4.062  17.614  0.00  0.00    +0.000 A 
ATOM     11  C   UNL     1       2.372   4.696  17.831  0.00  0.00    +0.000 A 
ATOM     12  C   UNL     1       1.255   3.947  18.214  0.00  0.00    +0.000 A 
ATOM     13  C   UNL     1       1.372   2.574  18.380  0.00  0.00    +0.000 A 
ATOM     14  F   UNL     1       0.300   1.862  18.749  0.00  0.00    +0.000 F 
ATOM     15  C   UNL     1       2.586   1.930  18.170  0.00  0.00    +0.000 A 
ATOM     16  C   UNL     1       3.708   2.672  17.784  0.00  0.00    +0.000 A 
ENDBRANCH   8  10
ENDBRANCH   2   5
BRANCH   3  17
ATOM     17  C   UNL     1       8.631   9.105  18.060  0.00  0.00    +0.000 C 
BRANCH  17  18
ATOM     18  C   UNL     1       8.081  10.527  18.173  0.00  0.00    +0.000 C 
BRANCH  18  19
ATOM     19  N   UNL     1       9.141  11.535  18.318  0.00  0.00    +0.000 N 
ATOM     20  C   UNL     1      10.376  11.141  18.993  0.00  0.00    +0.000 C 
ATOM     21  C   UNL     1      10.616  11.872  20.314  0.00  0.00    +0.000 C 
ATOM     22  C   UNL     1      11.212  13.266  20.142  0.00  0.00    +0.000 C 
ATOM     23  C   UNL     1      10.299  14.242  19.407  0.00  0.00    +0.000 C 
ATOM     24  C   UNL     1      10.016  13.834  17.969  0.00  0.00    +0.000 C 
ATOM     25  C   UNL     1       8.896  12.819  17.854  0.00  0.00    +0.000 C 
ATOM     26  O   UNL     1       7.818  13.142  17.354  0.00  0.00    +0.000 OA
ENDBRANCH  18  19
ENDBRANCH  17  18
ENDBRANCH   3  17
TORSDOF 5
ENDMDL
MODEL 5
REMARK VINA RESULT:      -7.7      1.448      2.094
REMARK  Name = 
REMARK  5 active torsions:
REMARK  status: ('A' for Active; 'I' for Inactive)
REMARK    1  A    between atoms: C_2  and  C_14
REMARK    2  A    between atoms: N_3  and  C_4
REMARK    3  A    between atoms: C_4  and  C_5
REMARK    4  A    between atoms: C_5  and  N_6
REMARK    5  A    between atoms: N_17  and  C_18
REMARK                            x       y       z     vdW  Elec       q    Type
REMARK                         _______ _______ _______ _____ _____    ______ ____
ROOT
ATOM      1  O   UNL     1       2.841   8.120  17.003  0.00  0.00    +0.000 OA
ATOM      2  C   UNL     1       2.985   7.444  18.019  0.00  0.00    +0.000 C 
ATOM      3  N   UNL     1       3.851   6.367  18.080  0.00  0.00    +0.000 N 
ATOM      4  H   UNL     1       3.789   5.791  18.912  0.00  0.00    +0.000 HD
ENDROOT
BRANCH   2   5
ATOM      5  C   UNL     1       2.227   7.721  19.251  0.00  0.00    +0.000 A 
ATOM      6  C   UNL     1       1.968   6.771  20.267  0.00  0.00    +0.000 A 
ATOM      7  C   UNL     1       1.236   7.440  21.214  0.00  0.00    +0.000 A 
ATOM      8  N   UNL     1       1.065   8.727  20.759  0.00  0.00    +0.000 N 
ATOM      9  N   UNL     1       1.686   8.919  19.555  0.00  0.00    +0.000 NA
BRANCH   8  10
ATOM     10  C   UNL     1       0.340   9.775  21.404  0.00  0.00    +0.000 A 
ATOM     11  C   UNL     1       0.333  11.079  20.875  0.00  0.00    +0.000 A 
ATOM     12  C   UNL     1      -0.376  12.097  21.522  0.00  0.00    +0.000 A 
ATOM     13  C   UNL     1      -1.071  11.815  22.689  0.00  0.00    +0.000 A 
ATOM     14  F   UNL     1      -1.746  12.793  23.306  0.00  0.00    +0.000 F 
ATOM     15  C   UNL     1      -1.076  10.532  23.226  0.00  0.00    +0.000 A 
ATOM     16  C   UNL     1      -0.372   9.508  22.584  0.00  0.00    +0.000 A 
ENDBRANCH   8  10
ENDBRANCH   2   5
BRANCH   3  17
ATOM     17  C   UNL     1       4.514   5.920  16.869  0.00  0.00    +0.000 C 
BRANCH  17  18
ATOM     18  C   UNL     1       4.846   4.427  16.847  0.00  0.00    +0.000 C 
BRANCH  18  19
ATOM     19  N   UNL     1       3.971   3.639  17.729  0.00  0.00    +0.000 N 
ATOM     20  C   UNL     1       2.661   3.240  17.217  0.00  0.00    +0.000 C 
ATOM     21  C   UNL     1       1.489   3.877  17.964  0.00  0.00    +0.000 C 
ATOM     22  C   UNL     1       1.141   3.171  19.271  0.00  0.00    +0.000 C 
ATOM     23  C   UNL     1       2.246   3.230  20.320  0.00  0.00    +0.000 C 
ATOM     24  C   UNL     1       3.517   2.509  19.894  0.00  0.00    +0.000 C 
ATOM     25  C   UNL     1       4.411   3.361  19.014  0.00  0.00    +0.000 C 
ATOM     26  O   UNL     1       5.490   3.773  19.443  0.00  0.00    +0.000 OA
ENDBRANCH  18  19
ENDBRANCH  17  18
ENDBRANCH   3  17
TORSDOF 5
ENDMDL
MODEL 6
REMARK VINA RESULT:      -7.7      5.027      6.284
REMARK  Name = 
REMARK  5 active torsions:
REMARK  status: ('A' for Active; 'I' for Inactive)
REMARK    1  A    between atoms: C_2  and  C_14
REMARK    2  A    between atoms: N_3  and  C_4
REMARK    3  A    between atoms: C_4  and  C_5
REMARK    4  A    between atoms: C_5  and  N_6
REMARK    5  A    between atoms: N_17  and  C_18
REMARK                            x       y       z     vdW  Elec       q    Type
REMARK                         _______ _______ _______ _____ _____    ______ ____
ROOT
ATOM      1  O   UNL     1       6.431   5.904  15.377  0.00  0.00    +0.000 OA
ATOM      2  C   UNL     1       6.505   5.723  16.590  0.00  0.00    +0.000 C 
ATOM      3  N   UNL     1       5.863   4.677  17.226  0.00  0.00    +0.000 N 
ATOM      4  H   UNL     1       5.869   4.701  18.240  0.00  0.00    +0.000 HD
ENDROOT
BRANCH   2   5
ATOM      5  C   UNL     1       7.274   6.625  17.465  0.00  0.00    +0.000 A 
ATOM      6  C   UNL     1       7.881   6.241  18.683  0.00  0.00    +0.000 A 
ATOM      7  C   UNL     1       8.479   7.375  19.167  0.00  0.00    +0.000 A 
ATOM      8  N   UNL     1       8.218   8.385  18.269  0.00  0.00    +0.000 N 
ATOM      9  N   UNL     1       7.488   7.932  17.205  0.00  0.00    +0.000 NA
BRANCH   8  10
ATOM     10  C   UNL     1       8.619   9.751  18.376  0.00  0.00    +0.000 A 
ATOM     11  C   UNL     1       8.098  10.727  17.507  0.00  0.00    +0.000 A 
ATOM     12  C   UNL     1       8.506  12.060  17.618  0.00  0.00    +0.000 A 
ATOM     13  C   UNL     1       9.429  12.417  18.591  0.00  0.00    +0.000 A 
ATOM     14  F   UNL     1       9.818  13.694  18.693  0.00  0.00    +0.000 F 
ATOM     15  C   UNL     1       9.954  11.467  19.460  0.00  0.00    +0.000 A 
ATOM     16  C   UNL     1       9.549  10.131  19.357  0.00  0.00    +0.000 A 
ENDBRANCH   8  10
ENDBRANCH   2   5
BRANCH   3  17
ATOM     17  C   UNL     1       4.951   3.838  16.471  0.00  0.00    +0.000 C 
BRANCH  17  18
ATOM     18  C   UNL     1       3.472   4.097  16.758  0.00  0.00    +0.000 C 
BRANCH  18  19
ATOM     19  N   UNL     1       3.142   3.978  18.186  0.00  0.00    +0.000 N 
ATOM     20  C   UNL     1       3.188   2.649  18.793  0.00  0.00    +0.000 C 
ATOM     21  C   UNL     1       1.825   2.140  19.264  0.00  0.00    +0.000 C 
ATOM     22  C   UNL     1       1.401   2.694  20.622  0.00  0.00    +0.000 C 
ATOM     23  C   UNL     1       1.191   4.204  20.636  0.00  0.00    +0.000 C 
ATOM     24  C   UNL     1       2.464   4.990  20.351  0.00  0.00    +0.000 C 
ATOM     25  C   UNL     1       2.755   5.122  18.869  0.00  0.00    +0.000 C 
ATOM     26  O   UNL     1       2.656   6.217  18.314  0.00  0.00    +0.000 OA
ENDBRANCH  18  19
ENDBRANCH  17  18
ENDBRANCH   3  17
TORSDOF 5
ENDMDL
MODEL 7
REMARK VINA RESULT:      -7.7      1.379      2.014
REMARK  Name = 
REMARK  5 active torsions:
REMARK  status: ('A' for Active; 'I' for Inactive)
REMARK    1  A    between atoms: C_2  and  C_14
REMARK    2  A    between atoms: N_3  and  C_4
REMARK    3  A    between atoms: C_4  and  C_5
REMARK    4  A    between atoms: C_5  and  N_6
REMARK    5  A    between atoms: N_17  and  C_18
REMARK                            x       y       z     vdW  Elec       q    Type
REMARK                         _______ _______ _______ _____ _____    ______ ____
ROOT
ATOM      1  O   UNL     1       2.181   5.480  17.671  0.00  0.00    +0.000 OA
ATOM      2  C   UNL     1       2.845   6.391  18.159  0.00  0.00    +0.000 C 
ATOM      3  N   UNL     1       4.197   6.267  18.423  0.00  0.00    +0.000 N 
ATOM      4  H   UNL     1       4.618   7.020  18.956  0.00  0.00    +0.000 HD
ENDROOT
BRANCH   2   5
ATOM      5  C   UNL     1       2.242   7.685  18.520  0.00  0.00    +0.000 A 
ATOM      6  C   UNL     1       2.302   8.851  17.722  0.00  0.00    +0.000 A 
ATOM      7  C   UNL     1       1.626   9.812  18.428  0.00  0.00    +0.000 A 
ATOM      8  N   UNL     1       1.199   9.229  19.599  0.00  0.00    +0.000 N 
ATOM      9  N   UNL     1       1.559   7.910  19.661  0.00  0.00    +0.000 NA
BRANCH   8  10
ATOM     10  C   UNL     1       0.477   9.860  20.657  0.00  0.00    +0.000 A 
ATOM     11  C   UNL     1       0.044  11.193  20.540  0.00  0.00    +0.000 A 
ATOM     12  C   UNL     1      -0.656  11.801  21.587  0.00  0.00    +0.000 A 
ATOM     13  C   UNL     1      -0.920  11.082  22.745  0.00  0.00    +0.000 A 
ATOM     14  F   UNL     1      -1.589  11.669  23.746  0.00  0.00    +0.000 F 
ATOM     15  C   UNL     1      -0.500   9.764  22.878  0.00  0.00    +0.000 A 
ATOM     16  C   UNL     1       0.197   9.147  21.834  0.00  0.00    +0.000 A 
ENDBRANCH   8  10
ENDBRANCH   2   5
BRANCH   3  17
ATOM     17  C   UNL     1       4.839   4.977  18.255  0.00  0.00    +0.000 C 
BRANCH  17  18
ATOM     18  C   UNL     1       4.891   4.128  19.526  0.00  0.00    +0.000 C 
BRANCH  18  19
ATOM     19  N   UNL     1       3.669   3.336  19.729  0.00  0.00    +0.000 N 
ATOM     20  C   UNL     1       3.513   2.105  18.957  0.00  0.00    +0.000 C 
ATOM     21  C   UNL     1       2.354   2.145  17.960  0.00  0.00    +0.000 C 
ATOM     22  C   UNL     1       0.994   1.864  18.594  0.00  0.00    +0.000 C 
ATOM     23  C   UNL     1       0.561   2.907  19.617  0.00  0.00    +0.000 C 
ATOM     24  C   UNL     1       1.474   2.971  20.833  0.00  0.00    +0.000 C 
ATOM     25  C   UNL     1       2.706   3.823  20.600  0.00  0.00    +0.000 C 
ATOM     26  O   UNL     1       2.833   4.900  21.183  0.00  0.00    +0.000 OA
ENDBRANCH  18  19
ENDBRANCH  17  18
ENDBRANCH   3  17
TORSDOF 5
ENDMDL
MODEL 8
REMARK VINA RESULT:      -7.6      1.242      1.904
REMARK  Name = 
REMARK  5 active torsions:
REMARK  status: ('A' for Active; 'I' for Inactive)
REMARK    1  A    between atoms: C_2  and  C_14
REMARK    2  A    between atoms: N_3  and  C_4
REMARK    3  A    between atoms: C_4  and  C_5
REMARK    4  A    between atoms: C_5  and  N_6
REMARK    5  A    between atoms: N_17  and  C_18
REMARK                            x       y       z     vdW  Elec       q    Type
REMARK                         _______ _______ _______ _____ _____    ______ ____
ROOT
ATOM      1  O   UNL     1       3.114   6.288  19.838  0.00  0.00    +0.000 OA
ATOM      2  C   UNL     1       2.928   7.068  18.907  0.00  0.00    +0.000 C 
ATOM      3  N   UNL     1       3.598   6.961  17.702  0.00  0.00    +0.000 N 
ATOM      4  H   UNL     1       3.480   7.734  17.056  0.00  0.00    +0.000 HD
ENDROOT
BRANCH   2   5
ATOM      5  C   UNL     1       1.985   8.194  19.014  0.00  0.00    +0.000 A 
ATOM      6  C   UNL     1       1.611   9.035  17.940  0.00  0.00    +0.000 A 
ATOM      7  C   UNL     1       0.732   9.941  18.474  0.00  0.00    +0.000 A 
ATOM      8  N   UNL     1       0.609   9.644  19.812  0.00  0.00    +0.000 N 
ATOM      9  N   UNL     1       1.365   8.557  20.156  0.00  0.00    +0.000 NA
BRANCH   8  10
ATOM     10  C   UNL     1      -0.181  10.343  20.775  0.00  0.00    +0.000 A 
ATOM     11  C   UNL     1      -0.932  11.474  20.408  0.00  0.00    +0.000 A 
ATOM     12  C   UNL     1      -1.695  12.153  21.364  0.00  0.00    +0.000 A 
ATOM     13  C   UNL     1      -1.707  11.706  22.678  0.00  0.00    +0.000 A 
ATOM     14  F   UNL     1      -2.438  12.361  23.589  0.00  0.00    +0.000 F 
ATOM     15  C   UNL     1      -0.971  10.590  23.059  0.00  0.00    +0.000 A 
ATOM     16  C   UNL     1      -0.208   9.903  22.108  0.00  0.00    +0.000 A 
ENDBRANCH   8  10
ENDBRANCH   2   5
BRANCH   3  17
ATOM     17  C   UNL     1       4.663   5.985  17.565  0.00  0.00    +0.000 C 
BRANCH  17  18
ATOM     18  C   UNL     1       4.237   4.676  16.901  0.00  0.00    +0.000 C 
BRANCH  18  19
ATOM     19  N   UNL     1       3.688   3.706  17.861  0.00  0.00    +0.000 N 
ATOM     20  C   UNL     1       2.327   3.219  17.642  0.00  0.00    +0.000 C 
ATOM     21  C   UNL     1       1.341   3.637  18.733  0.00  0.00    +0.000 C 
ATOM     22  C   UNL     1       1.403   2.762  19.982  0.00  0.00    +0.000 C 
ATOM     23  C   UNL     1       2.734   2.834  20.722  0.00  0.00    +0.000 C 
ATOM     24  C   UNL     1       3.906   2.310  19.903  0.00  0.00    +0.000 C 
ATOM     25  C   UNL     1       4.468   3.345  18.949  0.00  0.00    +0.000 C 
ATOM     26  O   UNL     1       5.584   3.827  19.147  0.00  0.00    +0.000 OA
ENDBRANCH  18  19
ENDBRANCH  17  18
ENDBRANCH   3  17
TORSDOF 5
ENDMDL
MODEL 9
REMARK VINA RESULT:      -7.6      5.046      6.137
REMARK  Name = 
REMARK  5 active torsions:
REMARK  status: ('A' for Active; 'I' for Inactive)
REMARK    1  A    between atoms: C_2  and  C_14
REMARK    2  A    between atoms: N_3  and  C_4
REMARK    3  A    between atoms: C_4  and  C_5
REMARK    4  A    between atoms: C_5  and  N_6
REMARK    5  A    between atoms: N_17  and  C_18
REMARK                            x       y       z     vdW  Elec       q    Type
REMARK                         _______ _______ _______ _____ _____    ______ ____
ROOT
ATOM      1  O   UNL     1       5.566   6.564  15.475  0.00  0.00    +0.000 OA
ATOM      2  C   UNL     1       6.011   6.114  16.528  0.00  0.00    +0.000 C 
ATOM      3  N   UNL     1       5.650   4.873  17.018  0.00  0.00    +0.000 N 
ATOM      4  H   UNL     1       5.959   4.658  17.960  0.00  0.00    +0.000 HD
ENDROOT
BRANCH   2   5
ATOM      5  C   UNL     1       6.955   6.878  17.362  0.00  0.00    +0.000 A 
ATOM      6  C   UNL     1       7.699   6.338  18.436  0.00  0.00    +0.000 A 
ATOM      7  C   UNL     1       8.435   7.383  18.933  0.00  0.00    +0.000 A 
ATOM      8  N   UNL     1       8.121   8.492  18.181  0.00  0.00    +0.000 N 
ATOM      9  N   UNL     1       7.219   8.191  17.197  0.00  0.00    +0.000 NA
BRANCH   8  10
ATOM     10  C   UNL     1       8.626   9.816  18.357  0.00  0.00    +0.000 A 
ATOM     11  C   UNL     1       9.542  10.109  19.383  0.00  0.00    +0.000 A 
ATOM     12  C   UNL     1      10.022  11.413  19.547  0.00  0.00    +0.000 A 
ATOM     13  C   UNL     1       9.589  12.417  18.693  0.00  0.00    +0.000 A 
ATOM     14  F   UNL     1      10.050  13.664  18.856  0.00  0.00    +0.000 F 
ATOM     15  C   UNL     1       8.684  12.146  17.673  0.00  0.00    +0.000 A 
ATOM     16  C   UNL     1       8.201  10.844  17.500  0.00  0.00    +0.000 A 
ENDBRANCH   8  10
ENDBRANCH   2   5
BRANCH   3  17
ATOM     17  C   UNL     1       4.603   4.122  16.351  0.00  0.00    +0.000 C 
BRANCH  17  18
ATOM     18  C   UNL     1       3.970   3.025  17.208  0.00  0.00    +0.000 C 
BRANCH  18  19
ATOM     19  N   UNL     1       3.033   3.557  18.209  0.00  0.00    +0.000 N 
ATOM     20  C   UNL     1       2.253   4.743  17.856  0.00  0.00    +0.000 C 
ATOM     21  C   UNL     1       2.590   5.973  18.699  0.00  0.00    +0.000 C 
ATOM     22  C   UNL     1       1.905   5.986  20.063  0.00  0.00    +0.000 C 
ATOM     23  C   UNL     1       2.338   4.851  20.984  0.00  0.00    +0.000 C 
ATOM     24  C   UNL     1       1.970   3.473  20.452  0.00  0.00    +0.000 C 
ATOM     25  C   UNL     1       2.975   2.941  19.450  0.00  0.00    +0.000 C 
ATOM     26  O   UNL     1       3.696   1.987  19.743  0.00  0.00    +0.000 OA
ENDBRANCH  18  19
ENDBRANCH  17  18
ENDBRANCH   3  17
TORSDOF 5
ENDMDL
