MODEL 1
REMARK VINA RESULT:      -7.1      0.000      0.000
REMARK  Name = 
REMARK  10 active torsions:
REMARK  status: ('A' for Active; 'I' for Inactive)
REMARK    1  A    between atoms: C_1  and  C_2
REMARK    2  A    between atoms: C_2  and  O_3
REMARK    3  A    between atoms: C_2  and  C_4
REMARK    4  A    between atoms: C_2  and  C_16
REMARK    5  A    between atoms: C_4  and  N_5
REMARK    6  A    between atoms: N_5  and  C_6
REMARK    7  A    between atoms: N_5  and  S_12
REMARK    8  A    between atoms: C_6  and  C_7
REMARK    9  A    between atoms: S_12  and  C_13
REMARK   10  A    between atoms: C_16  and  N_17
REMARK                            x       y       z     vdW  Elec       q    Type
REMARK                         _______ _______ _______ _____ _____    ______ ____
ROOT
ATOM      1  C   UNL     1       0.868   7.893  17.528  0.00  0.00    +0.000 C 
ATOM      2  C   UNL     1       1.757   8.884  18.294  0.00  0.00    +0.000 C 
ENDROOT
BRANCH   2   3
ATOM      3  O   UNL     1       2.246   9.709  17.245  0.00  0.00    +0.000 OA
ATOM      4  H   UNL     1       2.504  10.568  17.628  0.00  0.00    +0.000 HD
ENDBRANCH   2   3
BRANCH   2   5
ATOM      5  C   UNL     1       0.934   9.723  19.334  0.00  0.00    +0.000 C 
BRANCH   5   6
ATOM      6  N   UNL     1       0.306  11.054  18.823  0.00  0.00    +0.000 NA
BRANCH   6   7
ATOM      7  C   UNL     1      -1.260  11.118  18.773  0.00  0.00    +0.000 C 
ATOM      8  C   UNL     1      -1.846  11.579  20.109  0.00  0.00    +0.000 C 
ATOM      9  C   UNL     1      -1.732  11.931  17.543  0.00  0.00    +0.000 C 
ATOM     10  C   UNL     1      -3.095  11.415  17.107  0.00  0.00    +0.000 C 
ATOM     11  C   UNL     1      -3.188  10.010  17.639  0.00  0.00    +0.000 C 
ATOM     12  C   UNL     1      -1.897   9.777  18.400  0.00  0.00    +0.000 C 
ENDBRANCH   6   7
BRANCH   6  13
ATOM     13  S   UNL     1       1.062  12.432  19.649  0.00  0.00    +0.000 S 
ATOM     14  C   UNL     1       2.466  12.774  18.632  0.00  0.00    +0.000 C 
ATOM     15  O   UNL     1       0.227  13.619  19.572  0.00  0.00    +0.000 OA
ATOM     16  O   UNL     1       1.519  11.944  20.936  0.00  0.00    +0.000 OA
ENDBRANCH   6  13
ENDBRANCH   5   6
ENDBRANCH   2   5
BRANCH   2  17
ATOM     17  C   UNL     1       2.897   8.135  19.034  0.00  0.00    +0.000 C 
BRANCH  17  18
ATOM     18  N   UNL     1       3.096   6.737  18.669  0.00  0.00    +0.000 N 
ATOM     19  C   UNL     1       3.906   6.332  17.618  0.00  0.00    +0.000 A 
ATOM     20  C   UNL     1       4.744   7.059  16.764  0.00  0.00    +0.000 A 
ATOM     21  C   UNL     1       5.377   6.414  15.705  0.00  0.00    +0.000 A 
ATOM     22  C   UNL     1       5.250   5.043  15.576  0.00  0.00    +0.000 A 
ATOM     23  F   UNL     1       5.909   4.415  14.591  0.00  0.00    +0.000 F 
ATOM     24  C   UNL     1       4.472   4.293  16.465  0.00  0.00    +0.000 A 
ATOM     25  C   UNL     1       3.775   4.953  17.489  0.00  0.00    +0.000 A 
ATOM     26  C   UNL     1       2.897   4.514  18.535  0.00  0.00    +0.000 A 
ATOM     27  C   UNL     1       2.392   3.244  18.892  0.00  0.00    +0.000 A 
ATOM     28  C   UNL     1       1.563   3.139  20.000  0.00  0.00    +0.000 A 
ATOM     29  F   UNL     1       1.047   1.939  20.317  0.00  0.00    +0.000 F 
ATOM     30  C   UNL     1       1.252   4.239  20.783  0.00  0.00    +0.000 A 
ATOM     31  C   UNL     1       1.750   5.506  20.460  0.00  0.00    +0.000 A 
ATOM     32  C   UNL     1       2.548   5.630  19.304  0.00  0.00    +0.000 A 
ENDBRANCH  17  18
ENDBRANCH   2  17
TORSDOF 7
ENDMDL
MODEL 2
REMARK VINA RESULT:      -7.1      0.157      3.509
REMARK  Name = 
REMARK  10 active torsions:
REMARK  status: ('A' for Active; 'I' for Inactive)
REMARK    1  A    between atoms: C_1  and  C_2
REMARK    2  A    between atoms: C_2  and  O_3
REMARK    3  A    between atoms: C_2  and  C_4
REMARK    4  A    between atoms: C_2  and  C_16
REMARK    5  A    between atoms: C_4  and  N_5
REMARK    6  A    between atoms: N_5  and  C_6
REMARK    7  A    between atoms: N_5  and  S_12
REMARK    8  A    between atoms: C_6  and  C_7
REMARK    9  A    between atoms: S_12  and  C_13
REMARK   10  A    between atoms: C_16  and  N_17
REMARK                            x       y       z     vdW  Elec       q    Type
REMARK                         _______ _______ _______ _____ _____    ______ ____
ROOT
ATOM      1  C   UNL     1       0.851   7.989  17.505  0.00  0.00    +0.000 C 
ATOM      2  C   UNL     1       1.752   8.912  18.338  0.00  0.00    +0.000 C 
ENDROOT
BRANCH   2   3
ATOM      3  O   UNL     1       2.330   9.738  17.336  0.00  0.00    +0.000 OA
ATOM      4  H   UNL     1       1.797   9.652  16.525  0.00  0.00    +0.000 HD
ENDBRANCH   2   3
BRANCH   2   5
ATOM      5  C   UNL     1       0.926   9.765  19.363  0.00  0.00    +0.000 C 
BRANCH   5   6
ATOM      6  N   UNL     1       0.301  11.090  18.833  0.00  0.00    +0.000 NA
BRANCH   6   7
ATOM      7  C   UNL     1      -1.264  11.153  18.770  0.00  0.00    +0.000 C 
ATOM      8  C   UNL     1      -1.859  11.661  20.083  0.00  0.00    +0.000 C 
ATOM      9  C   UNL     1      -1.727  11.921  17.507  0.00  0.00    +0.000 C 
ATOM     10  C   UNL     1      -3.086  11.390  17.081  0.00  0.00    +0.000 C 
ATOM     11  C   UNL     1      -3.184  10.006  17.661  0.00  0.00    +0.000 C 
ATOM     12  C   UNL     1      -1.899   9.799  18.440  0.00  0.00    +0.000 C 
ENDBRANCH   6   7
BRANCH   6  13
ATOM     13  S   UNL     1       1.049  12.478  19.651  0.00  0.00    +0.000 S 
ATOM     14  C   UNL     1       2.474  12.796  18.654  0.00  0.00    +0.000 C 
ATOM     15  O   UNL     1       0.222  13.667  19.540  0.00  0.00    +0.000 OA
ATOM     16  O   UNL     1       1.482  12.007  20.953  0.00  0.00    +0.000 OA
ENDBRANCH   6  13
ENDBRANCH   5   6
ENDBRANCH   2   5
BRANCH   2  17
ATOM     17  C   UNL     1       2.819   8.086  19.106  0.00  0.00    +0.000 C 
BRANCH  17  18
ATOM     18  N   UNL     1       3.042   6.723  18.637  0.00  0.00    +0.000 N 
ATOM     19  C   UNL     1       2.470   5.609  19.235  0.00  0.00    +0.000 A 
ATOM     20  C   UNL     1       1.546   5.494  20.281  0.00  0.00    +0.000 A 
ATOM     21  C   UNL     1       1.210   4.234  20.768  0.00  0.00    +0.000 A 
ATOM     22  C   UNL     1       1.716   3.110  20.141  0.00  0.00    +0.000 A 
ATOM     23  F   UNL     1       1.344   1.896  20.575  0.00  0.00    +0.000 F 
ATOM     24  C   UNL     1       2.586   3.209  19.050  0.00  0.00    +0.000 A 
ATOM     25  C   UNL     1       2.982   4.480  18.604  0.00  0.00    +0.000 A 
ATOM     26  C   UNL     1       3.849   4.939  17.558  0.00  0.00    +0.000 A 
ATOM     27  C   UNL     1       4.646   4.263  16.608  0.00  0.00    +0.000 A 
ATOM     28  C   UNL     1       5.369   5.008  15.687  0.00  0.00    +0.000 A 
ATOM     29  F   UNL     1       6.162   4.368  14.809  0.00  0.00    +0.000 F 
ATOM     30  C   UNL     1       5.298   6.391  15.653  0.00  0.00    +0.000 A 
ATOM     31  C   UNL     1       4.505   7.085  16.573  0.00  0.00    +0.000 A 
ATOM     32  C   UNL     1       3.810   6.339  17.547  0.00  0.00    +0.000 A 
ENDBRANCH  17  18
ENDBRANCH   2  17
TORSDOF 7
ENDMDL
MODEL 3
REMARK VINA RESULT:      -6.9      0.982      1.146
REMARK  Name = 
REMARK  10 active torsions:
REMARK  status: ('A' for Active; 'I' for Inactive)
REMARK    1  A    between atoms: C_1  and  C_2
REMARK    2  A    between atoms: C_2  and  O_3
REMARK    3  A    between atoms: C_2  and  C_4
REMARK    4  A    between atoms: C_2  and  C_16
REMARK    5  A    between atoms: C_4  and  N_5
REMARK    6  A    between atoms: N_5  and  C_6
REMARK    7  A    between atoms: N_5  and  S_12
REMARK    8  A    between atoms: C_6  and  C_7
REMARK    9  A    between atoms: S_12  and  C_13
REMARK   10  A    between atoms: C_16  and  N_17
REMARK                            x       y       z     vdW  Elec       q    Type
REMARK                         _______ _______ _______ _____ _____    ______ ____
ROOT
ATOM      1  C   UNL     1       0.985   8.073  17.465  0.00  0.00    +0.000 C 
ATOM      2  C   UNL     1       1.614   8.800  18.662  0.00  0.00    +0.000 C 
ENDROOT
BRANCH   2   3
ATOM      3  O   UNL     1       2.471   9.734  18.020  0.00  0.00    +0.000 OA
ATOM      4  H   UNL     1       2.977   9.262  17.334  0.00  0.00    +0.000 HD
ENDBRANCH   2   3
BRANCH   2   5
ATOM      5  C   UNL     1       0.533   9.534  19.533  0.00  0.00    +0.000 C 
BRANCH   5   6
ATOM      6  N   UNL     1       0.441  11.080  19.380  0.00  0.00    +0.000 NA
BRANCH   6   7
ATOM      7  C   UNL     1      -0.824  11.640  18.639  0.00  0.00    +0.000 C 
ATOM      8  C   UNL     1      -0.570  13.038  18.074  0.00  0.00    +0.000 C 
ATOM      9  C   UNL     1      -1.351  10.609  17.610  0.00  0.00    +0.000 C 
ATOM     10  C   UNL     1      -2.851  10.801  17.450  0.00  0.00    +0.000 C 
ATOM     11  C   UNL     1      -3.313  11.479  18.711  0.00  0.00    +0.000 C 
ATOM     12  C   UNL     1      -2.062  11.696  19.539  0.00  0.00    +0.000 C 
ENDBRANCH   6   7
BRANCH   6  13
ATOM     13  S   UNL     1       0.768  11.860  20.942  0.00  0.00    +0.000 S 
ATOM     14  C   UNL     1       2.085  12.973  20.554  0.00  0.00    +0.000 C 
ATOM     15  O   UNL     1      -0.342  12.700  21.359  0.00  0.00    +0.000 OA
ATOM     16  O   UNL     1       1.271  10.824  21.825  0.00  0.00    +0.000 OA
ENDBRANCH   6  13
ENDBRANCH   5   6
ENDBRANCH   2   5
BRANCH   2  17
ATOM     17  C   UNL     1       2.396   7.803  19.557  0.00  0.00    +0.000 C 
BRANCH  17  18
ATOM     18  N   UNL     1       2.717   6.512  18.959  0.00  0.00    +0.000 N 
ATOM     19  C   UNL     1       3.678   6.348  17.971  0.00  0.00    +0.000 A 
ATOM     20  C   UNL     1       4.577   7.255  17.399  0.00  0.00    +0.000 A 
ATOM     21  C   UNL     1       5.377   6.852  16.332  0.00  0.00    +0.000 A 
ATOM     22  C   UNL     1       5.344   5.531  15.924  0.00  0.00    +0.000 A 
ATOM     23  F   UNL     1       6.159   5.132  14.935  0.00  0.00    +0.000 F 
ATOM     24  C   UNL     1       4.501   4.597  16.534  0.00  0.00    +0.000 A 
ATOM     25  C   UNL     1       3.641   5.019  17.561  0.00  0.00    +0.000 A 
ATOM     26  C   UNL     1       2.661   4.355  18.371  0.00  0.00    +0.000 A 
ATOM     27  C   UNL     1       2.185   3.026  18.402  0.00  0.00    +0.000 A 
ATOM     28  C   UNL     1       1.227   2.678  19.344  0.00  0.00    +0.000 A 
ATOM     29  F   UNL     1       0.741   1.424  19.348  0.00  0.00    +0.000 F 
ATOM     30  C   UNL     1       0.757   3.590  20.274  0.00  0.00    +0.000 A 
ATOM     31  C   UNL     1       1.222   4.910  20.275  0.00  0.00    +0.000 A 
ATOM     32  C   UNL     1       2.154   5.286  19.286  0.00  0.00    +0.000 A 
ENDBRANCH  17  18
ENDBRANCH   2  17
TORSDOF 7
ENDMDL
MODEL 4
REMARK VINA RESULT:      -6.8      1.583      2.045
REMARK  Name = 
REMARK  10 active torsions:
REMARK  status: ('A' for Active; 'I' for Inactive)
REMARK    1  A    between atoms: C_1  and  C_2
REMARK    2  A    between atoms: C_2  and  O_3
REMARK    3  A    between atoms: C_2  and  C_4
REMARK    4  A    between atoms: C_2  and  C_16
REMARK    5  A    between atoms: C_4  and  N_5
REMARK    6  A    between atoms: N_5  and  C_6
REMARK    7  A    between atoms: N_5  and  S_12
REMARK    8  A    between atoms: C_6  and  C_7
REMARK    9  A    between atoms: S_12  and  C_13
REMARK   10  A    between atoms: C_16  and  N_17
REMARK                            x       y       z     vdW  Elec       q    Type
REMARK                         _______ _______ _______ _____ _____    ______ ____
ROOT
ATOM      1  C   UNL     1       1.455   8.025  17.398  0.00  0.00    +0.000 C 
ATOM      2  C   UNL     1       1.848   8.527  18.795  0.00  0.00    +0.000 C 
ENDROOT
BRANCH   2   3
ATOM      3  O   UNL     1       2.561   9.717  18.487  0.00  0.00    +0.000 OA
ATOM      4  H   UNL     1       3.493   9.588  18.741  0.00  0.00    +0.000 HD
ENDBRANCH   2   3
BRANCH   2   5
ATOM      5  C   UNL     1       0.589   8.837  19.679  0.00  0.00    +0.000 C 
BRANCH   5   6
ATOM      6  N   UNL     1       0.595  10.182  20.463  0.00  0.00    +0.000 NA
BRANCH   6   7
ATOM      7  C   UNL     1      -0.191  11.376  19.817  0.00  0.00    +0.000 C 
ATOM      8  C   UNL     1       0.654  12.650  19.781  0.00  0.00    +0.000 C 
ATOM      9  C   UNL     1      -0.792  10.957  18.453  0.00  0.00    +0.000 C 
ATOM     10  C   UNL     1      -2.053  11.768  18.203  0.00  0.00    +0.000 C 
ATOM     11  C   UNL     1      -2.528  12.214  19.559  0.00  0.00    +0.000 C 
ATOM     12  C   UNL     1      -1.504  11.683  20.543  0.00  0.00    +0.000 C 
ENDBRANCH   6   7
BRANCH   6  13
ATOM     13  S   UNL     1       0.193   9.888  22.168  0.00  0.00    +0.000 S 
ATOM     14  C   UNL     1       1.712   9.267  22.825  0.00  0.00    +0.000 C 
ATOM     15  O   UNL     1      -0.058  11.131  22.876  0.00  0.00    +0.000 OA
ATOM     16  O   UNL     1      -0.795   8.826  22.182  0.00  0.00    +0.000 OA
ENDBRANCH   6  13
ENDBRANCH   5   6
ENDBRANCH   2   5
BRANCH   2  17
ATOM     17  C   UNL     1       2.735   7.481  19.521  0.00  0.00    +0.000 C 
BRANCH  17  18
ATOM     18  N   UNL     1       2.944   6.216  18.826  0.00  0.00    +0.000 N 
ATOM     19  C   UNL     1       3.908   6.036  17.844  0.00  0.00    +0.000 A 
ATOM     20  C   UNL     1       4.905   6.893  17.361  0.00  0.00    +0.000 A 
ATOM     21  C   UNL     1       5.687   6.499  16.280  0.00  0.00    +0.000 A 
ATOM     22  C   UNL     1       5.537   5.224  15.765  0.00  0.00    +0.000 A 
ATOM     23  F   UNL     1       6.333   4.825  14.761  0.00  0.00    +0.000 F 
ATOM     24  C   UNL     1       4.592   4.332  16.284  0.00  0.00    +0.000 A 
ATOM     25  C   UNL     1       3.753   4.754  17.328  0.00  0.00    +0.000 A 
ATOM     26  C   UNL     1       2.694   4.128  18.065  0.00  0.00    +0.000 A 
ATOM     27  C   UNL     1       2.091   2.854  17.981  0.00  0.00    +0.000 A 
ATOM     28  C   UNL     1       1.081   2.529  18.875  0.00  0.00    +0.000 A 
ATOM     29  F   UNL     1       0.476   1.333  18.770  0.00  0.00    +0.000 F 
ATOM     30  C   UNL     1       0.679   3.407  19.868  0.00  0.00    +0.000 A 
ATOM     31  C   UNL     1       1.269   4.670  19.983  0.00  0.00    +0.000 A 
ATOM     32  C   UNL     1       2.257   5.029  19.043  0.00  0.00    +0.000 A 
ENDBRANCH  17  18
ENDBRANCH   2  17
TORSDOF 7
ENDMDL
MODEL 5
REMARK VINA RESULT:      -6.7      1.663      2.731
REMARK  Name = 
REMARK  10 active torsions:
REMARK  status: ('A' for Active; 'I' for Inactive)
REMARK    1  A    between atoms: C_1  and  C_2
REMARK    2  A    between atoms: C_2  and  O_3
REMARK    3  A    between atoms: C_2  and  C_4
REMARK    4  A    between atoms: C_2  and  C_16
REMARK    5  A    between atoms: C_4  and  N_5
REMARK    6  A    between atoms: N_5  and  C_6
REMARK    7  A    between atoms: N_5  and  S_12
REMARK    8  A    between atoms: C_6  and  C_7
REMARK    9  A    between atoms: S_12  and  C_13
REMARK   10  A    between atoms: C_16  and  N_17
REMARK                            x       y       z     vdW  Elec       q    Type
REMARK                         _______ _______ _______ _____ _____    ______ ____
ROOT
ATOM      1  C   UNL     1       0.882   7.815  17.366  0.00  0.00    +0.000 C 
ATOM      2  C   UNL     1       1.591   8.746  18.360  0.00  0.00    +0.000 C 
ENDROOT
BRANCH   2   3
ATOM      3  O   UNL     1       2.311   9.609  17.490  0.00  0.00    +0.000 OA
ATOM      4  H   UNL     1       2.514  10.430  17.975  0.00  0.00    +0.000 HD
ENDBRANCH   2   3
BRANCH   2   5
ATOM      5  C   UNL     1       0.569   9.553  19.236  0.00  0.00    +0.000 C 
BRANCH   5   6
ATOM      6  N   UNL     1       1.165  10.568  20.254  0.00  0.00    +0.000 NA
BRANCH   6   7
ATOM      7  C   UNL     1       0.960  12.090  19.933  0.00  0.00    +0.000 C 
ATOM      8  C   UNL     1      -0.506  12.407  19.631  0.00  0.00    +0.000 C 
ATOM      9  C   UNL     1       1.600  12.970  21.034  0.00  0.00    +0.000 C 
ATOM     10  C   UNL     1       2.028  14.292  20.417  0.00  0.00    +0.000 C 
ATOM     11  C   UNL     1       2.193  14.023  18.946  0.00  0.00    +0.000 C 
ATOM     12  C   UNL     1       1.813  12.567  18.754  0.00  0.00    +0.000 C 
ENDBRANCH   6   7
BRANCH   6  13
ATOM     13  S   UNL     1       0.700  10.108  21.906  0.00  0.00    +0.000 S 
ATOM     14  C   UNL     1      -0.289   8.667  21.645  0.00  0.00    +0.000 C 
ATOM     15  O   UNL     1       1.849   9.658  22.674  0.00  0.00    +0.000 OA
ATOM     16  O   UNL     1      -0.144  11.175  22.411  0.00  0.00    +0.000 OA
ENDBRANCH   6  13
ENDBRANCH   5   6
ENDBRANCH   2   5
BRANCH   2  17
ATOM     17  C   UNL     1       2.530   7.935  19.293  0.00  0.00    +0.000 C 
BRANCH  17  18
ATOM     18  N   UNL     1       2.869   6.586  18.854  0.00  0.00    +0.000 N 
ATOM     19  C   UNL     1       3.774   6.320  17.836  0.00  0.00    +0.000 A 
ATOM     20  C   UNL     1       4.596   7.170  17.087  0.00  0.00    +0.000 A 
ATOM     21  C   UNL     1       5.345   6.653  16.034  0.00  0.00    +0.000 A 
ATOM     22  C   UNL     1       5.345   5.288  15.810  0.00  0.00    +0.000 A 
ATOM     23  F   UNL     1       6.113   4.784  14.833  0.00  0.00    +0.000 F 
ATOM     24  C   UNL     1       4.581   4.418  16.597  0.00  0.00    +0.000 A 
ATOM     25  C   UNL     1       3.769   4.948  17.612  0.00  0.00    +0.000 A 
ATOM     26  C   UNL     1       2.870   4.368  18.568  0.00  0.00    +0.000 A 
ATOM     27  C   UNL     1       2.455   3.040  18.810  0.00  0.00    +0.000 A 
ATOM     28  C   UNL     1       1.572   2.793  19.852  0.00  0.00    +0.000 A 
ATOM     29  F   UNL     1       1.143   1.535  20.058  0.00  0.00    +0.000 F 
ATOM     30  C   UNL     1       1.122   3.807  20.680  0.00  0.00    +0.000 A 
ATOM     31  C   UNL     1       1.528   5.130  20.471  0.00  0.00    +0.000 A 
ATOM     32  C   UNL     1       2.381   5.398  19.381  0.00  0.00    +0.000 A 
ENDBRANCH  17  18
ENDBRANCH   2  17
TORSDOF 7
ENDMDL
MODEL 6
REMARK VINA RESULT:      -6.7      1.405      4.027
REMARK  Name = 
REMARK  10 active torsions:
REMARK  status: ('A' for Active; 'I' for Inactive)
REMARK    1  A    between atoms: C_1  and  C_2
REMARK    2  A    between atoms: C_2  and  O_3
REMARK    3  A    between atoms: C_2  and  C_4
REMARK    4  A    between atoms: C_2  and  C_16
REMARK    5  A    between atoms: C_4  and  N_5
REMARK    6  A    between atoms: N_5  and  C_6
REMARK    7  A    between atoms: N_5  and  S_12
REMARK    8  A    between atoms: C_6  and  C_7
REMARK    9  A    between atoms: S_12  and  C_13
REMARK   10  A    between atoms: C_16  and  N_17
REMARK                            x       y       z     vdW  Elec       q    Type
REMARK                         _______ _______ _______ _____ _____    ______ ____
ROOT
ATOM      1  C   UNL     1       1.427   7.733  17.395  0.00  0.00    +0.000 C 
ATOM      2  C   UNL     1       2.028   8.276  18.699  0.00  0.00    +0.000 C 
ENDROOT
BRANCH   2   3
ATOM      3  O   UNL     1       2.723   9.429  18.243  0.00  0.00    +0.000 OA
ATOM      4  H   UNL     1       3.466   9.135  17.685  0.00  0.00    +0.000 HD
ENDBRANCH   2   3
BRANCH   2   5
ATOM      5  C   UNL     1       0.917   8.663  19.738  0.00  0.00    +0.000 C 
BRANCH   5   6
ATOM      6  N   UNL     1       0.899  10.141  20.229  0.00  0.00    +0.000 NA
BRANCH   6   7
ATOM      7  C   UNL     1      -0.014  11.136  19.430  0.00  0.00    +0.000 C 
ATOM      8  C   UNL     1       0.767  12.366  18.968  0.00  0.00    +0.000 C 
ATOM      9  C   UNL     1      -0.777  10.391  18.307  0.00  0.00    +0.000 C 
ATOM     10  C   UNL     1      -2.091  11.111  18.047  0.00  0.00    +0.000 C 
ATOM     11  C   UNL     1      -2.396  11.873  19.308  0.00  0.00    +0.000 C 
ATOM     12  C   UNL     1      -1.228  11.605  20.237  0.00  0.00    +0.000 C 
ENDBRANCH   6   7
BRANCH   6  13
ATOM     13  S   UNL     1       0.656  10.189  21.987  0.00  0.00    +0.000 S 
ATOM     14  C   UNL     1      -0.614   8.986  22.239  0.00  0.00    +0.000 C 
ATOM     15  O   UNL     1       1.819   9.682  22.697  0.00  0.00    +0.000 OA
ATOM     16  O   UNL     1       0.128  11.504  22.297  0.00  0.00    +0.000 OA
ENDBRANCH   6  13
ENDBRANCH   5   6
ENDBRANCH   2   5
BRANCH   2  17
ATOM     17  C   UNL     1       2.980   7.230  19.339  0.00  0.00    +0.000 C 
BRANCH  17  18
ATOM     18  N   UNL     1       3.170   5.990  18.596  0.00  0.00    +0.000 N 
ATOM     19  C   UNL     1       2.453   4.830  18.853  0.00  0.00    +0.000 A 
ATOM     20  C   UNL     1       1.397   4.574  19.735  0.00  0.00    +0.000 A 
ATOM     21  C   UNL     1       0.917   3.275  19.878  0.00  0.00    +0.000 A 
ATOM     22  C   UNL     1       1.424   2.274  19.069  0.00  0.00    +0.000 A 
ATOM     23  F   UNL     1       0.920   1.035  19.166  0.00  0.00    +0.000 F 
ATOM     24  C   UNL     1       2.432   2.530  18.133  0.00  0.00    +0.000 A 
ATOM     25  C   UNL     1       2.967   3.825  18.039  0.00  0.00    +0.000 A 
ATOM     26  C   UNL     1       3.990   4.421  17.230  0.00  0.00    +0.000 A 
ATOM     27  C   UNL     1       4.856   3.900  16.244  0.00  0.00    +0.000 A 
ATOM     28  C   UNL     1       5.740   4.758  15.606  0.00  0.00    +0.000 A 
ATOM     29  F   UNL     1       6.595   4.256  14.697  0.00  0.00    +0.000 F 
ATOM     30  C   UNL     1       5.766   6.114  15.884  0.00  0.00    +0.000 A 
ATOM     31  C   UNL     1       4.908   6.660  16.846  0.00  0.00    +0.000 A 
ATOM     32  C   UNL     1       4.046   5.785  17.538  0.00  0.00    +0.000 A 
ENDBRANCH  17  18
ENDBRANCH   2  17
TORSDOF 7
ENDMDL
MODEL 7
REMARK VINA RESULT:      -6.5      1.665      1.818
REMARK  Name = 
REMARK  10 active torsions:
REMARK  status: ('A' for Active; 'I' for Inactive)
REMARK    1  A    between atoms: C_1  and  C_2
REMARK    2  A    between atoms: C_2  and  O_3
REMARK    3  A    between atoms: C_2  and  C_4
REMARK    4  A    between atoms: C_2  and  C_16
REMARK    5  A    between atoms: C_4  and  N_5
REMARK    6  A    between atoms: N_5  and  C_6
REMARK    7  A    between atoms: N_5  and  S_12
REMARK    8  A    between atoms: C_6  and  C_7
REMARK    9  A    between atoms: S_12  and  C_13
REMARK   10  A    between atoms: C_16  and  N_17
REMARK                            x       y       z     vdW  Elec       q    Type
REMARK                         _______ _______ _______ _____ _____    ______ ____
ROOT
ATOM      1  C   UNL     1       2.476   9.584  18.073  0.00  0.00    +0.000 C 
ATOM      2  C   UNL     1       1.652   8.457  18.713  0.00  0.00    +0.000 C 
ENDROOT
BRANCH   2   3
ATOM      3  O   UNL     1       2.259   8.343  19.993  0.00  0.00    +0.000 OA
ATOM      4  H   UNL     1       2.566   9.227  20.265  0.00  0.00    +0.000 HD
ENDBRANCH   2   3
BRANCH   2   5
ATOM      5  C   UNL     1       0.136   8.841  18.840  0.00  0.00    +0.000 C 
BRANCH   5   6
ATOM      6  N   UNL     1      -0.199  10.360  18.920  0.00  0.00    +0.000 NA
BRANCH   6   7
ATOM      7  C   UNL     1      -1.412  10.858  18.059  0.00  0.00    +0.000 C 
ATOM      8  C   UNL     1      -1.284  12.343  17.716  0.00  0.00    +0.000 C 
ATOM      9  C   UNL     1      -1.632   9.928  16.840  0.00  0.00    +0.000 C 
ATOM     10  C   UNL     1      -3.105   9.954  16.464  0.00  0.00    +0.000 C 
ATOM     11  C   UNL     1      -3.836  10.382  17.707  0.00  0.00    +0.000 C 
ATOM     12  C   UNL     1      -2.761  10.632  18.746  0.00  0.00    +0.000 C 
ENDBRANCH   6   7
BRANCH   6  13
ATOM     13  S   UNL     1      -0.258  10.875  20.619  0.00  0.00    +0.000 S 
ATOM     14  C   UNL     1       1.189  11.879  20.772  0.00  0.00    +0.000 C 
ATOM     15  O   UNL     1      -1.379  11.766  20.864  0.00  0.00    +0.000 OA
ATOM     16  O   UNL     1      -0.088   9.677  21.421  0.00  0.00    +0.000 OA
ENDBRANCH   6  13
ENDBRANCH   5   6
ENDBRANCH   2   5
BRANCH   2  17
ATOM     17  C   UNL     1       1.778   7.151  17.884  0.00  0.00    +0.000 C 
BRANCH  17  18
ATOM     18  N   UNL     1       2.679   6.134  18.413  0.00  0.00    +0.000 N 
ATOM     19  C   UNL     1       3.999   5.998  18.005  0.00  0.00    +0.000 A 
ATOM     20  C   UNL     1       4.781   6.770  17.138  0.00  0.00    +0.000 A 
ATOM     21  C   UNL     1       6.067   6.349  16.812  0.00  0.00    +0.000 A 
ATOM     22  C   UNL     1       6.590   5.228  17.431  0.00  0.00    +0.000 A 
ATOM     23  F   UNL     1       7.850   4.858  17.160  0.00  0.00    +0.000 F 
ATOM     24  C   UNL     1       5.843   4.487  18.353  0.00  0.00    +0.000 A 
ATOM     25  C   UNL     1       4.520   4.869  18.629  0.00  0.00    +0.000 A 
ATOM     26  C   UNL     1       3.492   4.344  19.479  0.00  0.00    +0.000 A 
ATOM     27  C   UNL     1       3.436   3.221  20.334  0.00  0.00    +0.000 A 
ATOM     28  C   UNL     1       2.278   2.990  21.063  0.00  0.00    +0.000 A 
ATOM     29  F   UNL     1       2.206   1.898  21.845  0.00  0.00    +0.000 F 
ATOM     30  C   UNL     1       1.196   3.852  21.002  0.00  0.00    +0.000 A 
ATOM     31  C   UNL     1       1.230   4.980  20.174  0.00  0.00    +0.000 A 
ATOM     32  C   UNL     1       2.381   5.191  19.388  0.00  0.00    +0.000 A 
ENDBRANCH  17  18
ENDBRANCH   2  17
TORSDOF 7
ENDMDL
MODEL 8
REMARK VINA RESULT:      -6.5      0.989      3.707
REMARK  Name = 
REMARK  10 active torsions:
REMARK  status: ('A' for Active; 'I' for Inactive)
REMARK    1  A    between atoms: C_1  and  C_2
REMARK    2  A    between atoms: C_2  and  O_3
REMARK    3  A    between atoms: C_2  and  C_4
REMARK    4  A    between atoms: C_2  and  C_16
REMARK    5  A    between atoms: C_4  and  N_5
REMARK    6  A    between atoms: N_5  and  C_6
REMARK    7  A    between atoms: N_5  and  S_12
REMARK    8  A    between atoms: C_6  and  C_7
REMARK    9  A    between atoms: S_12  and  C_13
REMARK   10  A    between atoms: C_16  and  N_17
REMARK                            x       y       z     vdW  Elec       q    Type
REMARK                         _______ _______ _______ _____ _____    ______ ____
ROOT
ATOM      1  C   UNL     1       0.879   8.056  17.358  0.00  0.00    +0.000 C 
ATOM      2  C   UNL     1       1.519   8.945  18.435  0.00  0.00    +0.000 C 
ENDROOT
BRANCH   2   3
ATOM      3  O   UNL     1       2.096   9.982  17.653  0.00  0.00    +0.000 OA
ATOM      4  H   UNL     1       2.904   9.634  17.234  0.00  0.00    +0.000 HD
ENDBRANCH   2   3
BRANCH   2   5
ATOM      5  C   UNL     1       0.449   9.518  19.430  0.00  0.00    +0.000 C 
BRANCH   5   6
ATOM      6  N   UNL     1       0.293  11.067  19.476  0.00  0.00    +0.000 NA
BRANCH   6   7
ATOM      7  C   UNL     1      -0.923  11.674  18.692  0.00  0.00    +0.000 C 
ATOM      8  C   UNL     1      -0.548  12.989  18.008  0.00  0.00    +0.000 C 
ATOM      9  C   UNL     1      -1.552  10.612  17.757  0.00  0.00    +0.000 C 
ATOM     10  C   UNL     1      -3.029  10.926  17.583  0.00  0.00    +0.000 C 
ATOM     11  C   UNL     1      -3.416  11.749  18.782  0.00  0.00    +0.000 C 
ATOM     12  C   UNL     1      -2.141  11.921  19.586  0.00  0.00    +0.000 C 
ENDBRANCH   6   7
BRANCH   6  13
ATOM     13  S   UNL     1       0.430  11.636  21.153  0.00  0.00    +0.000 S 
ATOM     14  C   UNL     1       1.233  13.200  20.970  0.00  0.00    +0.000 C 
ATOM     15  O   UNL     1      -0.874  11.932  21.721  0.00  0.00    +0.000 OA
ATOM     16  O   UNL     1       1.330  10.720  21.829  0.00  0.00    +0.000 OA
ENDBRANCH   6  13
ENDBRANCH   5   6
ENDBRANCH   2   5
BRANCH   2  17
ATOM     17  C   UNL     1       2.584   8.150  19.236  0.00  0.00    +0.000 C 
BRANCH  17  18
ATOM     18  N   UNL     1       2.891   6.809  18.750  0.00  0.00    +0.000 N 
ATOM     19  C   UNL     1       2.368   5.655  19.316  0.00  0.00    +0.000 A 
ATOM     20  C   UNL     1       1.429   5.472  20.338  0.00  0.00    +0.000 A 
ATOM     21  C   UNL     1       1.151   4.188  20.797  0.00  0.00    +0.000 A 
ATOM     22  C   UNL     1       1.731   3.103  20.164  0.00  0.00    +0.000 A 
ATOM     23  F   UNL     1       1.416   1.864  20.569  0.00  0.00    +0.000 F 
ATOM     24  C   UNL     1       2.617   3.269  19.094  0.00  0.00    +0.000 A 
ATOM     25  C   UNL     1       2.954   4.567  18.678  0.00  0.00    +0.000 A 
ATOM     26  C   UNL     1       3.817   5.090  17.659  0.00  0.00    +0.000 A 
ATOM     27  C   UNL     1       4.670   4.475  16.717  0.00  0.00    +0.000 A 
ATOM     28  C   UNL     1       5.372   5.274  15.825  0.00  0.00    +0.000 A 
ATOM     29  F   UNL     1       6.217   4.693  14.955  0.00  0.00    +0.000 F 
ATOM     30  C   UNL     1       5.226   6.651  15.812  0.00  0.00    +0.000 A 
ATOM     31  C   UNL     1       4.377   7.286  16.725  0.00  0.00    +0.000 A 
ATOM     32  C   UNL     1       3.703   6.486  17.671  0.00  0.00    +0.000 A 
ENDBRANCH  17  18
ENDBRANCH   2  17
TORSDOF 7
ENDMDL
MODEL 9
REMARK VINA RESULT:      -6.4      1.855      4.239
REMARK  Name = 
REMARK  10 active torsions:
REMARK  status: ('A' for Active; 'I' for Inactive)
REMARK    1  A    between atoms: C_1  and  C_2
REMARK    2  A    between atoms: C_2  and  O_3
REMARK    3  A    between atoms: C_2  and  C_4
REMARK    4  A    between atoms: C_2  and  C_16
REMARK    5  A    between atoms: C_4  and  N_5
REMARK    6  A    between atoms: N_5  and  C_6
REMARK    7  A    between atoms: N_5  and  S_12
REMARK    8  A    between atoms: C_6  and  C_7
REMARK    9  A    between atoms: S_12  and  C_13
REMARK   10  A    between atoms: C_16  and  N_17
REMARK                            x       y       z     vdW  Elec       q    Type
REMARK                         _______ _______ _______ _____ _____    ______ ____
ROOT
ATOM      1  C   UNL     1       1.276   8.200  17.387  0.00  0.00    +0.000 C 
ATOM      2  C   UNL     1       1.647   8.753  18.771  0.00  0.00    +0.000 C 
ENDROOT
BRANCH   2   3
ATOM      3  O   UNL     1       2.469   9.862  18.432  0.00  0.00    +0.000 OA
ATOM      4  H   UNL     1       3.059  10.045  19.186  0.00  0.00    +0.000 HD
ENDBRANCH   2   3
BRANCH   2   5
ATOM      5  C   UNL     1       0.379   9.216  19.573  0.00  0.00    +0.000 C 
BRANCH   5   6
ATOM      6  N   UNL     1       0.585  10.356  20.614  0.00  0.00    +0.000 NA
BRANCH   6   7
ATOM      7  C   UNL     1      -0.047  11.749  20.265  0.00  0.00    +0.000 C 
ATOM      8  C   UNL     1      -1.540  11.786  20.595  0.00  0.00    +0.000 C 
ATOM      9  C   UNL     1       0.784  12.895  20.893  0.00  0.00    +0.000 C 
ATOM     10  C   UNL     1       0.639  14.136  20.026  0.00  0.00    +0.000 C 
ATOM     11  C   UNL     1       0.247  13.638  18.662  0.00  0.00    +0.000 C 
ATOM     12  C   UNL     1       0.136  12.132  18.794  0.00  0.00    +0.000 C 
ENDBRANCH   6   7
BRANCH   6  13
ATOM     13  S   UNL     1       0.184   9.766  22.240  0.00  0.00    +0.000 S 
ATOM     14  C   UNL     1       1.747   9.204  22.847  0.00  0.00    +0.000 C 
ATOM     15  O   UNL     1      -0.206  10.855  23.119  0.00  0.00    +0.000 OA
ATOM     16  O   UNL     1      -0.691   8.622  22.062  0.00  0.00    +0.000 OA
ENDBRANCH   6  13
ENDBRANCH   5   6
ENDBRANCH   2   5
BRANCH   2  17
ATOM     17  C   UNL     1       2.410   7.686  19.599  0.00  0.00    +0.000 C 
BRANCH  17  18
ATOM     18  N   UNL     1       2.749   6.449  18.904  0.00  0.00    +0.000 N 
ATOM     19  C   UNL     1       2.172   5.223  19.203  0.00  0.00    +0.000 A 
ATOM     20  C   UNL     1       1.147   4.879  20.092  0.00  0.00    +0.000 A 
ATOM     21  C   UNL     1       0.822   3.539  20.283  0.00  0.00    +0.000 A 
ATOM     22  C   UNL     1       1.448   2.575  19.513  0.00  0.00    +0.000 A 
ATOM     23  F   UNL     1       1.091   1.289  19.657  0.00  0.00    +0.000 F 
ATOM     24  C   UNL     1       2.425   2.912  18.570  0.00  0.00    +0.000 A 
ATOM     25  C   UNL     1       2.804   4.257  18.429  0.00  0.00    +0.000 A 
ATOM     26  C   UNL     1       3.756   4.937  17.599  0.00  0.00    +0.000 A 
ATOM     27  C   UNL     1       4.684   4.485  16.636  0.00  0.00    +0.000 A 
ATOM     28  C   UNL     1       5.465   5.417  15.967  0.00  0.00    +0.000 A 
ATOM     29  F   UNL     1       6.379   4.985  15.080  0.00  0.00    +0.000 F 
ATOM     30  C   UNL     1       5.330   6.776  16.194  0.00  0.00    +0.000 A 
ATOM     31  C   UNL     1       4.408   7.253  17.133  0.00  0.00    +0.000 A 
ATOM     32  C   UNL     1       3.650   6.309  17.857  0.00  0.00    +0.000 A 
ENDBRANCH  17  18
ENDBRANCH   2  17
TORSDOF 7
ENDMDL
