MODEL 1
REMARK VINA RESULT:      -8.3      0.000      0.000
REMARK  Name = 
REMARK  10 active torsions:
REMARK  status: ('A' for Active; 'I' for Inactive)
REMARK    1  A    between atoms: C_1  and  C_2
REMARK    2  A    between atoms: C_6  and  N_7
REMARK    3  A    between atoms: C_8  and  C_10
REMARK    4  A    between atoms: C_14  and  C_15
REMARK    5  A    between atoms: N_17  and  C_18
REMARK    6  A    between atoms: C_22  and  O_24
REMARK    7  A    between atoms: O_24  and  C_25
REMARK    8  A    between atoms: C_25  and  C_26
REMARK    9  A    between atoms: C_25  and  C_27
REMARK   10  A    between atoms: C_25  and  C_28
REMARK                            x       y       z     vdW  Elec       q    Type
REMARK                         _______ _______ _______ _____ _____    ______ ____
ROOT
ATOM      1  C   UNL     1       3.120   4.620  19.305  0.00  0.00    +0.000 A 
ATOM      2  N   UNL     1       2.521   3.577  19.982  0.00  0.00    +0.000 N 
ATOM      3  C   UNL     1       1.519   4.077  20.755  0.00  0.00    +0.000 A 
ATOM      4  N   UNL     1       1.417   5.380  20.625  0.00  0.00    +0.000 NA
ATOM      5  C   UNL     1       2.370   5.730  19.677  0.00  0.00    +0.000 A 
ATOM      6  H   UNL     1       2.822   2.612  19.919  0.00  0.00    +0.000 HD
ENDROOT
BRANCH   1   8
ATOM      7  N   UNL     1       4.227   4.798  17.172  0.00  0.00    +0.000 N 
ATOM      8  C   UNL     1       4.296   4.391  18.488  0.00  0.00    +0.000 C 
ATOM      9  O   UNL     1       5.278   3.863  19.003  0.00  0.00    +0.000 OA
ATOM     10  H   UNL     1       3.305   5.028  16.804  0.00  0.00    +0.000 HD
BRANCH   7  16
ATOM     11  C   UNL     1       5.700   3.408  12.689  0.00  0.00    +0.000 C 
ATOM     12  C   UNL     1       5.986   4.105  13.986  0.00  0.00    +0.000 A 
ATOM     13  C   UNL     1       7.241   4.671  14.232  0.00  0.00    +0.000 A 
ATOM     14  C   UNL     1       7.497   5.309  15.444  0.00  0.00    +0.000 A 
ATOM     15  C   UNL     1       6.511   5.373  16.429  0.00  0.00    +0.000 A 
ATOM     16  C   UNL     1       5.261   4.796  16.214  0.00  0.00    +0.000 A 
ATOM     17  C   UNL     1       4.997   4.183  14.979  0.00  0.00    +0.000 A 
ENDBRANCH   7  16
ENDBRANCH   1   8
BRANCH   5  18
ATOM     18  C   UNL     1       2.535   7.102  19.208  0.00  0.00    +0.000 C 
ATOM     19  O   UNL     1       3.390   7.405  18.380  0.00  0.00    +0.000 OA
ATOM     20  N   UNL     1       1.723   8.016  19.829  0.00  0.00    +0.000 N 
ATOM     21  H   UNL     1       0.987   7.623  20.409  0.00  0.00    +0.000 HD
BRANCH  20  22
ATOM     22  C   UNL     1       1.815   9.451  19.576  0.00  0.00    +0.000 C 
ATOM     23  C   UNL     1       0.960  10.287  20.548  0.00  0.00    +0.000 C 
ATOM     24  C   UNL     1      -0.520  10.030  20.314  0.00  0.00    +0.000 C 
ATOM     25  N   UNL     1      -0.859  10.344  18.932  0.00  0.00    +0.000 N 
ATOM     26  C   UNL     1      -1.851  11.276  18.698  0.00  0.00    +0.000 C 
ATOM     27  O   UNL     1      -2.420  11.865  19.609  0.00  0.00    +0.000 OA
ATOM     28  C   UNL     1      -0.105   9.628  17.909  0.00  0.00    +0.000 C 
ATOM     29  C   UNL     1       1.405   9.784  18.132  0.00  0.00    +0.000 C 
BRANCH  26  30
ATOM     30  O   UNL     1      -2.127  11.468  17.376  0.00  0.00    +0.000 OA
BRANCH  30  31
ATOM     31  C   UNL     1      -3.290  10.801  16.812  0.00  0.00    +0.000 C 
ATOM     32  C   UNL     1      -4.528  11.711  16.855  0.00  0.00    +0.000 C 
ATOM     33  C   UNL     1      -2.959  10.523  15.336  0.00  0.00    +0.000 C 
ATOM     34  C   UNL     1      -3.537   9.447  17.495  0.00  0.00    +0.000 C 
ENDBRANCH  30  31
ENDBRANCH  26  30
ENDBRANCH  20  22
ENDBRANCH   5  18
TORSDOF 6
ENDMDL
MODEL 2
REMARK VINA RESULT:      -8.1      2.385      4.129
REMARK  Name = 
REMARK  10 active torsions:
REMARK  status: ('A' for Active; 'I' for Inactive)
REMARK    1  A    between atoms: C_1  and  C_2
REMARK    2  A    between atoms: C_6  and  N_7
REMARK    3  A    between atoms: C_8  and  C_10
REMARK    4  A    between atoms: C_14  and  C_15
REMARK    5  A    between atoms: N_17  and  C_18
REMARK    6  A    between atoms: C_22  and  O_24
REMARK    7  A    between atoms: O_24  and  C_25
REMARK    8  A    between atoms: C_25  and  C_26
REMARK    9  A    between atoms: C_25  and  C_27
REMARK   10  A    between atoms: C_25  and  C_28
REMARK                            x       y       z     vdW  Elec       q    Type
REMARK                         _______ _______ _______ _____ _____    ______ ____
ROOT
ATOM      1  C   UNL     1       6.890   5.559  17.847  0.00  0.00    +0.000 A 
ATOM      2  N   UNL     1       8.122   5.697  18.450  0.00  0.00    +0.000 N 
ATOM      3  C   UNL     1       7.967   5.574  19.796  0.00  0.00    +0.000 A 
ATOM      4  N   UNL     1       6.711   5.358  20.116  0.00  0.00    +0.000 NA
ATOM      5  C   UNL     1       6.031   5.286  18.906  0.00  0.00    +0.000 A 
ATOM      6  H   UNL     1       8.981   5.890  17.949  0.00  0.00    +0.000 HD
ENDROOT
BRANCH   1   8
ATOM      7  N   UNL     1       7.323   4.814  15.597  0.00  0.00    +0.000 N 
ATOM      8  C   UNL     1       6.740   5.756  16.418  0.00  0.00    +0.000 C 
ATOM      9  O   UNL     1       6.108   6.731  16.020  0.00  0.00    +0.000 OA
ATOM     10  H   UNL     1       7.991   4.173  16.023  0.00  0.00    +0.000 HD
BRANCH   7  16
ATOM     11  C   UNL     1       5.201   2.592  11.754  0.00  0.00    +0.000 C 
ATOM     12  C   UNL     1       6.165   3.609  12.290  0.00  0.00    +0.000 A 
ATOM     13  C   UNL     1       6.955   4.371  11.424  0.00  0.00    +0.000 A 
ATOM     14  C   UNL     1       7.852   5.307  11.933  0.00  0.00    +0.000 A 
ATOM     15  C   UNL     1       7.984   5.480  13.311  0.00  0.00    +0.000 A 
ATOM     16  C   UNL     1       7.224   4.714  14.193  0.00  0.00    +0.000 A 
ATOM     17  C   UNL     1       6.298   3.795  13.675  0.00  0.00    +0.000 A 
ENDBRANCH   7  16
ENDBRANCH   1   8
BRANCH   5  18
ATOM     18  C   UNL     1       4.603   4.997  18.831  0.00  0.00    +0.000 C 
ATOM     19  O   UNL     1       4.173   4.007  18.243  0.00  0.00    +0.000 OA
ATOM     20  N   UNL     1       3.799   5.956  19.390  0.00  0.00    +0.000 N 
ATOM     21  H   UNL     1       4.280   6.663  19.940  0.00  0.00    +0.000 HD
BRANCH  20  22
ATOM     22  C   UNL     1       2.342   5.902  19.320  0.00  0.00    +0.000 C 
ATOM     23  C   UNL     1       1.772   6.639  18.093  0.00  0.00    +0.000 C 
ATOM     24  C   UNL     1       2.016   8.135  18.207  0.00  0.00    +0.000 C 
ATOM     25  N   UNL     1       1.411   8.637  19.433  0.00  0.00    +0.000 N 
ATOM     26  C   UNL     1       0.482   9.654  19.335  0.00  0.00    +0.000 C 
ATOM     27  O   UNL     1       0.130  10.113  18.256  0.00  0.00    +0.000 OA
ATOM     28  C   UNL     1       1.856   8.007  20.672  0.00  0.00    +0.000 C 
ATOM     29  C   UNL     1       1.707   6.482  20.595  0.00  0.00    +0.000 C 
BRANCH  26  30
ATOM     30  O   UNL     1       0.009  10.087  20.538  0.00  0.00    +0.000 OA
BRANCH  30  31
ATOM     31  C   UNL     1      -0.097  11.520  20.762  0.00  0.00    +0.000 C 
ATOM     32  C   UNL     1      -1.206  12.138  19.897  0.00  0.00    +0.000 C 
ATOM     33  C   UNL     1      -0.492  11.702  22.238  0.00  0.00    +0.000 C 
ATOM     34  C   UNL     1       1.259  12.213  20.557  0.00  0.00    +0.000 C 
ENDBRANCH  30  31
ENDBRANCH  26  30
ENDBRANCH  20  22
ENDBRANCH   5  18
TORSDOF 6
ENDMDL
MODEL 3
REMARK VINA RESULT:      -7.6      3.104     10.479
REMARK  Name = 
REMARK  10 active torsions:
REMARK  status: ('A' for Active; 'I' for Inactive)
REMARK    1  A    between atoms: C_1  and  C_2
REMARK    2  A    between atoms: C_6  and  N_7
REMARK    3  A    between atoms: C_8  and  C_10
REMARK    4  A    between atoms: C_14  and  C_15
REMARK    5  A    between atoms: N_17  and  C_18
REMARK    6  A    between atoms: C_22  and  O_24
REMARK    7  A    between atoms: O_24  and  C_25
REMARK    8  A    between atoms: C_25  and  C_26
REMARK    9  A    between atoms: C_25  and  C_27
REMARK   10  A    between atoms: C_25  and  C_28
REMARK                            x       y       z     vdW  Elec       q    Type
REMARK                         _______ _______ _______ _____ _____    ______ ____
ROOT
ATOM      1  C   UNL     1      -3.806  11.513  17.776  0.00  0.00    +0.000 A 
ATOM      2  N   UNL     1      -4.575  11.084  16.714  0.00  0.00    +0.000 N 
ATOM      3  C   UNL     1      -3.755  10.811  15.662  0.00  0.00    +0.000 A 
ATOM      4  N   UNL     1      -2.496  11.029  15.967  0.00  0.00    +0.000 NA
ATOM      5  C   UNL     1      -2.502  11.410  17.303  0.00  0.00    +0.000 A 
ATOM      6  H   UNL     1      -5.586  11.023  16.733  0.00  0.00    +0.000 HD
ENDROOT
BRANCH   1   8
ATOM      7  N   UNL     1      -3.658  12.763  19.830  0.00  0.00    +0.000 N 
ATOM      8  C   UNL     1      -4.430  11.979  18.999  0.00  0.00    +0.000 C 
ATOM      9  O   UNL     1      -5.596  11.664  19.223  0.00  0.00    +0.000 OA
ATOM     10  H   UNL     1      -2.656  12.787  19.650  0.00  0.00    +0.000 HD
BRANCH   7  16
ATOM     11  C   UNL     1      -4.345  12.510  24.695  0.00  0.00    +0.000 C 
ATOM     12  C   UNL     1      -4.398  13.299  23.421  0.00  0.00    +0.000 A 
ATOM     13  C   UNL     1      -4.878  14.612  23.413  0.00  0.00    +0.000 A 
ATOM     14  C   UNL     1      -4.930  15.333  22.222  0.00  0.00    +0.000 A 
ATOM     15  C   UNL     1      -4.522  14.746  21.024  0.00  0.00    +0.000 A 
ATOM     16  C   UNL     1      -4.062  13.431  21.005  0.00  0.00    +0.000 A 
ATOM     17  C   UNL     1      -3.981  12.720  22.212  0.00  0.00    +0.000 A 
ENDBRANCH   7  16
ENDBRANCH   1   8
BRANCH   5  18
ATOM     18  C   UNL     1      -1.274  11.689  18.039  0.00  0.00    +0.000 C 
ATOM     19  O   UNL     1      -0.879  12.837  18.231  0.00  0.00    +0.000 OA
ATOM     20  N   UNL     1      -0.569  10.574  18.413  0.00  0.00    +0.000 N 
ATOM     21  H   UNL     1      -1.057   9.689  18.295  0.00  0.00    +0.000 HD
BRANCH  20  22
ATOM     22  C   UNL     1       0.736  10.646  19.061  0.00  0.00    +0.000 C 
ATOM     23  C   UNL     1       1.905  10.415  18.085  0.00  0.00    +0.000 C 
ATOM     24  C   UNL     1       1.898   8.984  17.572  0.00  0.00    +0.000 C 
ATOM     25  N   UNL     1       1.980   8.061  18.696  0.00  0.00    +0.000 N 
ATOM     26  C   UNL     1       3.018   7.150  18.721  0.00  0.00    +0.000 C 
ATOM     27  O   UNL     1       3.882   7.123  17.853  0.00  0.00    +0.000 OA
ATOM     28  C   UNL     1       0.935   8.188  19.707  0.00  0.00    +0.000 C 
ATOM     29  C   UNL     1       0.837   9.633  20.214  0.00  0.00    +0.000 C 
BRANCH  26  30
ATOM     30  O   UNL     1       2.982   6.301  19.787  0.00  0.00    +0.000 OA
BRANCH  30  31
ATOM     31  C   UNL     1       2.637   4.909  19.548  0.00  0.00    +0.000 C 
ATOM     32  C   UNL     1       1.899   4.741  18.211  0.00  0.00    +0.000 C 
ATOM     33  C   UNL     1       3.966   4.141  19.454  0.00  0.00    +0.000 C 
ATOM     34  C   UNL     1       1.846   4.325  20.729  0.00  0.00    +0.000 C 
ENDBRANCH  30  31
ENDBRANCH  26  30
ENDBRANCH  20  22
ENDBRANCH   5  18
TORSDOF 6
ENDMDL
MODEL 4
REMARK VINA RESULT:      -7.6      1.991      2.512
REMARK  Name = 
REMARK  10 active torsions:
REMARK  status: ('A' for Active; 'I' for Inactive)
REMARK    1  A    between atoms: C_1  and  C_2
REMARK    2  A    between atoms: C_6  and  N_7
REMARK    3  A    between atoms: C_8  and  C_10
REMARK    4  A    between atoms: C_14  and  C_15
REMARK    5  A    between atoms: N_17  and  C_18
REMARK    6  A    between atoms: C_22  and  O_24
REMARK    7  A    between atoms: O_24  and  C_25
REMARK    8  A    between atoms: C_25  and  C_26
REMARK    9  A    between atoms: C_25  and  C_27
REMARK   10  A    between atoms: C_25  and  C_28
REMARK                            x       y       z     vdW  Elec       q    Type
REMARK                         _______ _______ _______ _____ _____    ______ ____
ROOT
ATOM      1  C   UNL     1       2.474   3.934  19.122  0.00  0.00    +0.000 A 
ATOM      2  N   UNL     1       1.621   2.873  19.344  0.00  0.00    +0.000 N 
ATOM      3  C   UNL     1       0.631   3.275  20.186  0.00  0.00    +0.000 A 
ATOM      4  N   UNL     1       0.776   4.535  20.529  0.00  0.00    +0.000 NA
ATOM      5  C   UNL     1       1.888   4.981  19.825  0.00  0.00    +0.000 A 
ATOM      6  H   UNL     1       1.755   1.947  18.954  0.00  0.00    +0.000 HD
ENDROOT
BRANCH   1   8
ATOM      7  N   UNL     1       3.880   4.627  17.293  0.00  0.00    +0.000 N 
ATOM      8  C   UNL     1       3.686   3.759  18.346  0.00  0.00    +0.000 C 
ATOM      9  O   UNL     1       4.467   2.867  18.667  0.00  0.00    +0.000 OA
ATOM     10  H   UNL     1       3.081   5.183  16.994  0.00  0.00    +0.000 HD
BRANCH   7  16
ATOM     11  C   UNL     1       5.972   3.552  12.971  0.00  0.00    +0.000 C 
ATOM     12  C   UNL     1       6.050   4.206  14.319  0.00  0.00    +0.000 A 
ATOM     13  C   UNL     1       7.222   4.844  14.737  0.00  0.00    +0.000 A 
ATOM     14  C   UNL     1       7.285   5.440  15.994  0.00  0.00    +0.000 A 
ATOM     15  C   UNL     1       6.188   5.391  16.855  0.00  0.00    +0.000 A 
ATOM     16  C   UNL     1       5.018   4.740  16.468  0.00  0.00    +0.000 A 
ATOM     17  C   UNL     1       4.948   4.169  15.187  0.00  0.00    +0.000 A 
ENDBRANCH   7  16
ENDBRANCH   1   8
BRANCH   5  18
ATOM     18  C   UNL     1       2.348   6.364  19.892  0.00  0.00    +0.000 C 
ATOM     19  O   UNL     1       3.380   6.731  19.335  0.00  0.00    +0.000 OA
ATOM     20  N   UNL     1       1.587   7.179  20.690  0.00  0.00    +0.000 N 
ATOM     21  H   UNL     1       0.703   6.784  21.001  0.00  0.00    +0.000 HD
BRANCH  20  22
ATOM     22  C   UNL     1       1.945   8.565  20.971  0.00  0.00    +0.000 C 
ATOM     23  C   UNL     1       1.436   9.052  22.341  0.00  0.00    +0.000 C 
ATOM     24  C   UNL     1      -0.083   9.121  22.353  0.00  0.00    +0.000 C 
ATOM     25  N   UNL     1      -0.541  10.008  21.292  0.00  0.00    +0.000 N 
ATOM     26  C   UNL     1      -1.334  11.084  21.637  0.00  0.00    +0.000 C 
ATOM     27  O   UNL     1      -1.629  11.331  22.800  0.00  0.00    +0.000 OA
ATOM     28  C   UNL     1      -0.111   9.665  19.940  0.00  0.00    +0.000 C 
ATOM     29  C   UNL     1       1.414   9.505  19.875  0.00  0.00    +0.000 C 
BRANCH  26  30
ATOM     30  O   UNL     1      -1.750  11.827  20.571  0.00  0.00    +0.000 OA
BRANCH  30  31
ATOM     31  C   UNL     1      -1.121  13.119  20.344  0.00  0.00    +0.000 C 
ATOM     32  C   UNL     1       0.226  13.218  21.078  0.00  0.00    +0.000 C 
ATOM     33  C   UNL     1      -0.843  13.209  18.834  0.00  0.00    +0.000 C 
ATOM     34  C   UNL     1      -2.072  14.269  20.711  0.00  0.00    +0.000 C 
ENDBRANCH  30  31
ENDBRANCH  26  30
ENDBRANCH  20  22
ENDBRANCH   5  18
TORSDOF 6
ENDMDL
MODEL 5
REMARK VINA RESULT:      -7.2      1.854      2.622
REMARK  Name = 
REMARK  10 active torsions:
REMARK  status: ('A' for Active; 'I' for Inactive)
REMARK    1  A    between atoms: C_1  and  C_2
REMARK    2  A    between atoms: C_6  and  N_7
REMARK    3  A    between atoms: C_8  and  C_10
REMARK    4  A    between atoms: C_14  and  C_15
REMARK    5  A    between atoms: N_17  and  C_18
REMARK    6  A    between atoms: C_22  and  O_24
REMARK    7  A    between atoms: O_24  and  C_25
REMARK    8  A    between atoms: C_25  and  C_26
REMARK    9  A    between atoms: C_25  and  C_27
REMARK   10  A    between atoms: C_25  and  C_28
REMARK                            x       y       z     vdW  Elec       q    Type
REMARK                         _______ _______ _______ _____ _____    ______ ____
ROOT
ATOM      1  C   UNL     1       3.430   5.720  19.355  0.00  0.00    +0.000 A 
ATOM      2  N   UNL     1       3.091   4.865  20.384  0.00  0.00    +0.000 N 
ATOM      3  C   UNL     1       2.022   5.383  21.048  0.00  0.00    +0.000 A 
ATOM      4  N   UNL     1       1.634   6.521  20.518  0.00  0.00    +0.000 NA
ATOM      5  C   UNL     1       2.465   6.718  19.421  0.00  0.00    +0.000 A 
ATOM      6  H   UNL     1       3.594   4.014  20.604  0.00  0.00    +0.000 HD
ENDROOT
BRANCH   1   8
ATOM      7  N   UNL     1       4.405   5.268  17.198  0.00  0.00    +0.000 N 
ATOM      8  C   UNL     1       4.609   5.471  18.547  0.00  0.00    +0.000 C 
ATOM      9  O   UNL     1       5.708   5.461  19.094  0.00  0.00    +0.000 OA
ATOM     10  H   UNL     1       3.449   5.092  16.893  0.00  0.00    +0.000 HD
BRANCH   7  16
ATOM     11  C   UNL     1       5.545   3.422  12.783  0.00  0.00    +0.000 C 
ATOM     12  C   UNL     1       5.940   4.209  13.997  0.00  0.00    +0.000 A 
ATOM     13  C   UNL     1       7.235   4.720  14.127  0.00  0.00    +0.000 A 
ATOM     14  C   UNL     1       7.593   5.442  15.263  0.00  0.00    +0.000 A 
ATOM     15  C   UNL     1       6.670   5.646  16.289  0.00  0.00    +0.000 A 
ATOM     16  C   UNL     1       5.382   5.126  16.191  0.00  0.00    +0.000 A 
ATOM     17  C   UNL     1       5.015   4.427  15.030  0.00  0.00    +0.000 A 
ENDBRANCH   7  16
ENDBRANCH   1   8
BRANCH   5  18
ATOM     18  C   UNL     1       2.314   7.859  18.525  0.00  0.00    +0.000 C 
ATOM     19  O   UNL     1       3.111   8.079  17.616  0.00  0.00    +0.000 OA
ATOM     20  N   UNL     1       1.273   8.695  18.838  0.00  0.00    +0.000 N 
ATOM     21  H   UNL     1       0.626   8.342  19.539  0.00  0.00    +0.000 HD
BRANCH  20  22
ATOM     22  C   UNL     1       1.025   9.945  18.128  0.00  0.00    +0.000 C 
ATOM     23  C   UNL     1       1.687  11.161  18.803  0.00  0.00    +0.000 C 
ATOM     24  C   UNL     1       1.041  11.442  20.150  0.00  0.00    +0.000 C 
ATOM     25  N   UNL     1      -0.386  11.671  19.970  0.00  0.00    +0.000 N 
ATOM     26  C   UNL     1      -0.920  12.863  20.419  0.00  0.00    +0.000 C 
ATOM     27  O   UNL     1      -0.226  13.738  20.923  0.00  0.00    +0.000 OA
ATOM     28  C   UNL     1      -1.131  10.595  19.323  0.00  0.00    +0.000 C 
ATOM     29  C   UNL     1      -0.484  10.209  17.987  0.00  0.00    +0.000 C 
BRANCH  26  30
ATOM     30  O   UNL     1      -2.269  12.964  20.247  0.00  0.00    +0.000 OA
BRANCH  30  31
ATOM     31  C   UNL     1      -3.107  13.082  21.430  0.00  0.00    +0.000 C 
ATOM     32  C   UNL     1      -2.526  12.281  22.606  0.00  0.00    +0.000 C 
ATOM     33  C   UNL     1      -3.098  14.569  21.822  0.00  0.00    +0.000 C 
ATOM     34  C   UNL     1      -4.560  12.692  21.119  0.00  0.00    +0.000 C 
ENDBRANCH  30  31
ENDBRANCH  26  30
ENDBRANCH  20  22
ENDBRANCH   5  18
TORSDOF 6
ENDMDL
MODEL 6
REMARK VINA RESULT:      -7.0      3.048      4.868
REMARK  Name = 
REMARK  10 active torsions:
REMARK  status: ('A' for Active; 'I' for Inactive)
REMARK    1  A    between atoms: C_1  and  C_2
REMARK    2  A    between atoms: C_6  and  N_7
REMARK    3  A    between atoms: C_8  and  C_10
REMARK    4  A    between atoms: C_14  and  C_15
REMARK    5  A    between atoms: N_17  and  C_18
REMARK    6  A    between atoms: C_22  and  O_24
REMARK    7  A    between atoms: O_24  and  C_25
REMARK    8  A    between atoms: C_25  and  C_26
REMARK    9  A    between atoms: C_25  and  C_27
REMARK   10  A    between atoms: C_25  and  C_28
REMARK                            x       y       z     vdW  Elec       q    Type
REMARK                         _______ _______ _______ _____ _____    ______ ____
ROOT
ATOM      1  C   UNL     1       1.501   8.748  20.502  0.00  0.00    +0.000 A 
ATOM      2  N   UNL     1       1.621   8.196  21.761  0.00  0.00    +0.000 N 
ATOM      3  C   UNL     1       1.204   9.109  22.680  0.00  0.00    +0.000 A 
ATOM      4  N   UNL     1       0.813  10.224  22.105  0.00  0.00    +0.000 NA
ATOM      5  C   UNL     1       0.935   9.995  20.740  0.00  0.00    +0.000 A 
ATOM      6  H   UNL     1       1.992   7.271  21.943  0.00  0.00    +0.000 HD
ENDROOT
BRANCH   1   8
ATOM      7  N   UNL     1       2.722   6.894  19.565  0.00  0.00    +0.000 N 
ATOM      8  C   UNL     1       1.980   8.033  19.335  0.00  0.00    +0.000 C 
ATOM      9  O   UNL     1       1.698   8.468  18.221  0.00  0.00    +0.000 OA
ATOM     10  H   UNL     1       3.067   6.746  20.512  0.00  0.00    +0.000 HD
BRANCH   7  16
ATOM     11  C   UNL     1       2.433   2.336  17.735  0.00  0.00    +0.000 C 
ATOM     12  C   UNL     1       3.047   3.705  17.707  0.00  0.00    +0.000 A 
ATOM     13  C   UNL     1       4.075   4.009  16.810  0.00  0.00    +0.000 A 
ATOM     14  C   UNL     1       4.642   5.280  16.799  0.00  0.00    +0.000 A 
ATOM     15  C   UNL     1       4.204   6.257  17.694  0.00  0.00    +0.000 A 
ATOM     16  C   UNL     1       3.197   5.968  18.613  0.00  0.00    +0.000 A 
ATOM     17  C   UNL     1       2.605   4.696  18.599  0.00  0.00    +0.000 A 
ENDBRANCH   7  16
ENDBRANCH   1   8
BRANCH   5  18
ATOM     18  C   UNL     1       0.541  10.988  19.746  0.00  0.00    +0.000 C 
ATOM     19  O   UNL     1       1.367  11.558  19.037  0.00  0.00    +0.000 OA
ATOM     20  N   UNL     1      -0.798  11.282  19.736  0.00  0.00    +0.000 N 
ATOM     21  H   UNL     1      -1.386  10.663  20.289  0.00  0.00    +0.000 HD
BRANCH  20  22
ATOM     22  C   UNL     1      -1.371  12.325  18.891  0.00  0.00    +0.000 C 
ATOM     23  C   UNL     1      -1.392  13.706  19.572  0.00  0.00    +0.000 C 
ATOM     24  C   UNL     1      -2.354  13.706  20.749  0.00  0.00    +0.000 C 
ATOM     25  N   UNL     1      -3.687  13.340  20.291  0.00  0.00    +0.000 N 
ATOM     26  C   UNL     1      -4.726  14.218  20.533  0.00  0.00    +0.000 C 
ATOM     27  O   UNL     1      -4.551  15.299  21.082  0.00  0.00    +0.000 OA
ATOM     28  C   UNL     1      -3.801  12.054  19.610  0.00  0.00    +0.000 C 
ATOM     29  C   UNL     1      -2.798  11.958  18.453  0.00  0.00    +0.000 C 
BRANCH  26  30
ATOM     30  O   UNL     1      -5.941  13.766  20.109  0.00  0.00    +0.000 OA
BRANCH  30  31
ATOM     31  C   UNL     1      -6.842  13.187  21.092  0.00  0.00    +0.000 C 
ATOM     32  C   UNL     1      -6.110  12.887  22.409  0.00  0.00    +0.000 C 
ATOM     33  C   UNL     1      -7.914  14.252  21.379  0.00  0.00    +0.000 C 
ATOM     34  C   UNL     1      -7.557  11.950  20.526  0.00  0.00    +0.000 C 
ENDBRANCH  30  31
ENDBRANCH  26  30
ENDBRANCH  20  22
ENDBRANCH   5  18
TORSDOF 6
ENDMDL
MODEL 7
REMARK VINA RESULT:      -7.0      3.240     10.851
REMARK  Name = 
REMARK  10 active torsions:
REMARK  status: ('A' for Active; 'I' for Inactive)
REMARK    1  A    between atoms: C_1  and  C_2
REMARK    2  A    between atoms: C_6  and  N_7
REMARK    3  A    between atoms: C_8  and  C_10
REMARK    4  A    between atoms: C_14  and  C_15
REMARK    5  A    between atoms: N_17  and  C_18
REMARK    6  A    between atoms: C_22  and  O_24
REMARK    7  A    between atoms: O_24  and  C_25
REMARK    8  A    between atoms: C_25  and  C_26
REMARK    9  A    between atoms: C_25  and  C_27
REMARK   10  A    between atoms: C_25  and  C_28
REMARK                            x       y       z     vdW  Elec       q    Type
REMARK                         _______ _______ _______ _____ _____    ______ ____
ROOT
ATOM      1  C   UNL     1      -3.899  11.503  17.796  0.00  0.00    +0.000 A 
ATOM      2  N   UNL     1      -4.510  11.279  16.579  0.00  0.00    +0.000 N 
ATOM      3  C   UNL     1      -3.556  10.949  15.666  0.00  0.00    +0.000 A 
ATOM      4  N   UNL     1      -2.359  10.939  16.206  0.00  0.00    +0.000 NA
ATOM      5  C   UNL     1      -2.560  11.224  17.551  0.00  0.00    +0.000 A 
ATOM      6  H   UNL     1      -5.504  11.381  16.416  0.00  0.00    +0.000 HD
ENDROOT
BRANCH   1   8
ATOM      7  N   UNL     1      -4.160  13.067  19.611  0.00  0.00    +0.000 N 
ATOM      8  C   UNL     1      -4.667  11.980  18.930  0.00  0.00    +0.000 C 
ATOM      9  O   UNL     1      -5.714  11.406  19.217  0.00  0.00    +0.000 OA
ATOM     10  H   UNL     1      -3.194  13.328  19.418  0.00  0.00    +0.000 HD
BRANCH   7  16
ATOM     11  C   UNL     1      -7.357  16.574  20.910  0.00  0.00    +0.000 C 
ATOM     12  C   UNL     1      -6.357  15.525  21.301  0.00  0.00    +0.000 A 
ATOM     13  C   UNL     1      -6.019  15.325  22.642  0.00  0.00    +0.000 A 
ATOM     14  C   UNL     1      -5.084  14.354  22.992  0.00  0.00    +0.000 A 
ATOM     15  C   UNL     1      -4.462  13.586  22.007  0.00  0.00    +0.000 A 
ATOM     16  C   UNL     1      -4.766  13.785  20.662  0.00  0.00    +0.000 A 
ATOM     17  C   UNL     1      -5.734  14.742  20.317  0.00  0.00    +0.000 A 
ENDBRANCH   7  16
ENDBRANCH   1   8
BRANCH   5  18
ATOM     18  C   UNL     1      -1.464  11.248  18.514  0.00  0.00    +0.000 C 
ATOM     19  O   UNL     1      -1.539  11.881  19.564  0.00  0.00    +0.000 OA
ATOM     20  N   UNL     1      -0.335  10.585  18.107  0.00  0.00    +0.000 N 
ATOM     21  H   UNL     1      -0.441  10.012  17.275  0.00  0.00    +0.000 HD
BRANCH  20  22
ATOM     22  C   UNL     1       0.902  10.587  18.881  0.00  0.00    +0.000 C 
ATOM     23  C   UNL     1       2.147  10.283  18.026  0.00  0.00    +0.000 C 
ATOM     24  C   UNL     1       2.108   8.851  17.517  0.00  0.00    +0.000 C 
ATOM     25  N   UNL     1       2.025   7.933  18.644  0.00  0.00    +0.000 N 
ATOM     26  C   UNL     1       3.002   6.964  18.773  0.00  0.00    +0.000 C 
ATOM     27  O   UNL     1       3.944   6.882  17.995  0.00  0.00    +0.000 OA
ATOM     28  C   UNL     1       0.894   8.126  19.547  0.00  0.00    +0.000 C 
ATOM     29  C   UNL     1       0.830   9.578  20.040  0.00  0.00    +0.000 C 
BRANCH  26  30
ATOM     30  O   UNL     1       2.811   6.126  19.831  0.00  0.00    +0.000 OA
BRANCH  30  31
ATOM     31  C   UNL     1       2.485   4.735  19.559  0.00  0.00    +0.000 C 
ATOM     32  C   UNL     1       3.719   3.833  19.716  0.00  0.00    +0.000 C 
ATOM     33  C   UNL     1       1.453   4.314  20.619  0.00  0.00    +0.000 C 
ATOM     34  C   UNL     1       1.822   4.583  18.181  0.00  0.00    +0.000 C 
ENDBRANCH  30  31
ENDBRANCH  26  30
ENDBRANCH  20  22
ENDBRANCH   5  18
TORSDOF 6
ENDMDL
MODEL 8
REMARK VINA RESULT:      -7.0      2.990      4.720
REMARK  Name = 
REMARK  10 active torsions:
REMARK  status: ('A' for Active; 'I' for Inactive)
REMARK    1  A    between atoms: C_1  and  C_2
REMARK    2  A    between atoms: C_6  and  N_7
REMARK    3  A    between atoms: C_8  and  C_10
REMARK    4  A    between atoms: C_14  and  C_15
REMARK    5  A    between atoms: N_17  and  C_18
REMARK    6  A    between atoms: C_22  and  O_24
REMARK    7  A    between atoms: O_24  and  C_25
REMARK    8  A    between atoms: C_25  and  C_26
REMARK    9  A    between atoms: C_25  and  C_27
REMARK   10  A    between atoms: C_25  and  C_28
REMARK                            x       y       z     vdW  Elec       q    Type
REMARK                         _______ _______ _______ _____ _____    ______ ____
ROOT
ATOM      1  C   UNL     1       1.554   8.617  20.305  0.00  0.00    +0.000 A 
ATOM      2  N   UNL     1       1.714   8.093  21.571  0.00  0.00    +0.000 N 
ATOM      3  C   UNL     1       1.304   9.017  22.482  0.00  0.00    +0.000 A 
ATOM      4  N   UNL     1       0.881  10.113  21.896  0.00  0.00    +0.000 NA
ATOM      5  C   UNL     1       0.973   9.860  20.532  0.00  0.00    +0.000 A 
ATOM      6  H   UNL     1       2.105   7.178  21.760  0.00  0.00    +0.000 HD
ENDROOT
BRANCH   1   8
ATOM      7  N   UNL     1       2.836   6.805  19.370  0.00  0.00    +0.000 N 
ATOM      8  C   UNL     1       2.015   7.888  19.139  0.00  0.00    +0.000 C 
ATOM      9  O   UNL     1       1.650   8.262  18.028  0.00  0.00    +0.000 OA
ATOM     10  H   UNL     1       3.237   6.714  20.302  0.00  0.00    +0.000 HD
BRANCH   7  16
ATOM     11  C   UNL     1       6.384   5.620  16.174  0.00  0.00    +0.000 C 
ATOM     12  C   UNL     1       5.083   5.289  16.844  0.00  0.00    +0.000 A 
ATOM     13  C   UNL     1       4.375   4.135  16.498  0.00  0.00    +0.000 A 
ATOM     14  C   UNL     1       3.165   3.841  17.122  0.00  0.00    +0.000 A 
ATOM     15  C   UNL     1       2.639   4.704  18.084  0.00  0.00    +0.000 A 
ATOM     16  C   UNL     1       3.318   5.872  18.427  0.00  0.00    +0.000 A 
ATOM     17  C   UNL     1       4.553   6.147  17.820  0.00  0.00    +0.000 A 
ENDBRANCH   7  16
ENDBRANCH   1   8
BRANCH   5  18
ATOM     18  C   UNL     1       0.536  10.826  19.530  0.00  0.00    +0.000 C 
ATOM     19  O   UNL     1       1.329  11.362  18.759  0.00  0.00    +0.000 OA
ATOM     20  N   UNL     1      -0.797  11.139  19.584  0.00  0.00    +0.000 N 
ATOM     21  H   UNL     1      -1.361  10.547  20.188  0.00  0.00    +0.000 HD
BRANCH  20  22
ATOM     22  C   UNL     1      -1.402  12.163  18.738  0.00  0.00    +0.000 C 
ATOM     23  C   UNL     1      -1.348  13.569  19.364  0.00  0.00    +0.000 C 
ATOM     24  C   UNL     1      -2.229  13.637  20.601  0.00  0.00    +0.000 C 
ATOM     25  N   UNL     1      -3.597  13.287  20.247  0.00  0.00    +0.000 N 
ATOM     26  C   UNL     1      -4.598  14.198  20.522  0.00  0.00    +0.000 C 
ATOM     27  O   UNL     1      -4.363  15.295  21.015  0.00  0.00    +0.000 OA
ATOM     28  C   UNL     1      -3.784  11.979  19.626  0.00  0.00    +0.000 C 
ATOM     29  C   UNL     1      -2.863  11.815  18.409  0.00  0.00    +0.000 C 
BRANCH  26  30
ATOM     30  O   UNL     1      -5.848  13.760  20.197  0.00  0.00    +0.000 OA
BRANCH  30  31
ATOM     31  C   UNL     1      -6.753  13.395  21.275  0.00  0.00    +0.000 C 
ATOM     32  C   UNL     1      -7.771  14.513  21.549  0.00  0.00    +0.000 C 
ATOM     33  C   UNL     1      -7.528  12.157  20.793  0.00  0.00    +0.000 C 
ATOM     34  C   UNL     1      -5.974  12.992  22.537  0.00  0.00    +0.000 C 
ENDBRANCH  30  31
ENDBRANCH  26  30
ENDBRANCH  20  22
ENDBRANCH   5  18
TORSDOF 6
ENDMDL
MODEL 9
REMARK VINA RESULT:      -6.9      3.138     10.620
REMARK  Name = 
REMARK  10 active torsions:
REMARK  status: ('A' for Active; 'I' for Inactive)
REMARK    1  A    between atoms: C_1  and  C_2
REMARK    2  A    between atoms: C_6  and  N_7
REMARK    3  A    between atoms: C_8  and  C_10
REMARK    4  A    between atoms: C_14  and  C_15
REMARK    5  A    between atoms: N_17  and  C_18
REMARK    6  A    between atoms: C_22  and  O_24
REMARK    7  A    between atoms: O_24  and  C_25
REMARK    8  A    between atoms: C_25  and  C_26
REMARK    9  A    between atoms: C_25  and  C_27
REMARK   10  A    between atoms: C_25  and  C_28
REMARK                            x       y       z     vdW  Elec       q    Type
REMARK                         _______ _______ _______ _____ _____    ______ ____
ROOT
ATOM      1  C   UNL     1      -4.125  11.534  17.360  0.00  0.00    +0.000 A 
ATOM      2  N   UNL     1      -4.697  11.122  16.175  0.00  0.00    +0.000 N 
ATOM      3  C   UNL     1      -3.714  10.681  15.344  0.00  0.00    +0.000 A 
ATOM      4  N   UNL     1      -2.532  10.773  15.910  0.00  0.00    +0.000 NA
ATOM      5  C   UNL     1      -2.775  11.248  17.193  0.00  0.00    +0.000 A 
ATOM      6  H   UNL     1      -5.688  11.179  15.973  0.00  0.00    +0.000 HD
ENDROOT
BRANCH   1   8
ATOM      7  N   UNL     1      -4.682  11.771  19.692  0.00  0.00    +0.000 N 
ATOM      8  C   UNL     1      -4.931  12.157  18.392  0.00  0.00    +0.000 C 
ATOM      9  O   UNL     1      -5.775  12.986  18.062  0.00  0.00    +0.000 OA
ATOM     10  H   UNL     1      -4.115  10.936  19.830  0.00  0.00    +0.000 HD
BRANCH   7  16
ATOM     11  C   UNL     1      -3.910  14.259  23.866  0.00  0.00    +0.000 C 
ATOM     12  C   UNL     1      -4.851  13.544  22.941  0.00  0.00    +0.000 A 
ATOM     13  C   UNL     1      -6.198  13.381  23.278  0.00  0.00    +0.000 A 
ATOM     14  C   UNL     1      -7.059  12.708  22.415  0.00  0.00    +0.000 A 
ATOM     15  C   UNL     1      -6.584  12.175  21.216  0.00  0.00    +0.000 A 
ATOM     16  C   UNL     1      -5.239  12.306  20.872  0.00  0.00    +0.000 A 
ATOM     17  C   UNL     1      -4.382  13.013  21.729  0.00  0.00    +0.000 A 
ENDBRANCH   7  16
ENDBRANCH   1   8
BRANCH   5  18
ATOM     18  C   UNL     1      -1.707  11.434  18.170  0.00  0.00    +0.000 C 
ATOM     19  O   UNL     1      -1.748  12.329  19.011  0.00  0.00    +0.000 OA
ATOM     20  N   UNL     1      -0.636  10.593  18.009  0.00  0.00    +0.000 N 
ATOM     21  H   UNL     1      -0.775   9.829  17.353  0.00  0.00    +0.000 HD
BRANCH  20  22
ATOM     22  C   UNL     1       0.575  10.695  18.817  0.00  0.00    +0.000 C 
ATOM     23  C   UNL     1       1.863  10.493  17.996  0.00  0.00    +0.000 C 
ATOM     24  C   UNL     1       1.954   9.063  17.490  0.00  0.00    +0.000 C 
ATOM     25  N   UNL     1       1.915   8.141  18.618  0.00  0.00    +0.000 N 
ATOM     26  C   UNL     1       2.963   7.255  18.775  0.00  0.00    +0.000 C 
ATOM     27  O   UNL     1       3.930   7.249  18.023  0.00  0.00    +0.000 OA
ATOM     28  C   UNL     1       0.748   8.243  19.488  0.00  0.00    +0.000 C 
ATOM     29  C   UNL     1       0.553   9.684  19.975  0.00  0.00    +0.000 C 
BRANCH  26  30
ATOM     30  O   UNL     1       2.812   6.404  19.830  0.00  0.00    +0.000 OA
BRANCH  30  31
ATOM     31  C   UNL     1       2.514   5.008  19.553  0.00  0.00    +0.000 C 
ATOM     32  C   UNL     1       1.434   4.471  20.505  0.00  0.00    +0.000 C 
ATOM     33  C   UNL     1       1.950   4.960  18.123  0.00  0.00    +0.000 C 
ATOM     34  C   UNL     1       3.791   4.155  19.576  0.00  0.00    +0.000 C 
ENDBRANCH  30  31
ENDBRANCH  26  30
ENDBRANCH  20  22
ENDBRANCH   5  18
TORSDOF 6
ENDMDL
