MODEL 1
REMARK VINA RESULT:      -7.1      0.000      0.000
REMARK  Name = 
REMARK  13 active torsions:
REMARK  status: ('A' for Active; 'I' for Inactive)
REMARK    1  A    between atoms: C_1  and  C_2
REMARK    2  A    between atoms: C_3  and  N_4
REMARK    3  A    between atoms: N_4  and  C_5
REMARK    4  A    between atoms: N_4  and  S_17
REMARK    5  A    between atoms: C_5  and  C_6
REMARK    6  A    between atoms: C_10  and  O_11
REMARK    7  A    between atoms: O_11  and  C_12
REMARK    8  A    between atoms: S_17  and  C_20
REMARK    9  A    between atoms: C_20  and  C_21
REMARK   10  A    between atoms: C_21  and  C_22
REMARK   11  A    between atoms: C_22  and  C_23
REMARK   12  A    between atoms: C_22  and  C_24
REMARK   13  A    between atoms: C_22  and  O_25
REMARK                            x       y       z     vdW  Elec       q    Type
REMARK                         _______ _______ _______ _____ _____    ______ ____
ROOT
ATOM      1  N   UNL     1      -0.197  11.519  19.776  0.00  0.00    +0.000 N 
ENDROOT
BRANCH   1   4
ATOM      2  C   UNL     1      -1.728  10.246  17.419  0.00  0.00    +0.000 C 
ATOM      3  C   UNL     1      -2.301  11.101  18.504  0.00  0.00    +0.000 A 
ATOM      4  C   UNL     1      -1.625  11.612  19.597  0.00  0.00    +0.000 A 
ATOM      5  S   UNL     1      -2.689  12.323  20.725  0.00  0.00    +0.000 S 
ATOM      6  C   UNL     1      -3.974  12.369  19.579  0.00  0.00    +0.000 A 
ATOM      7  C   UNL     1      -5.193  13.068  19.677  0.00  0.00    +0.000 A 
ATOM      8  C   UNL     1      -6.140  12.925  18.659  0.00  0.00    +0.000 A 
ATOM      9  C   UNL     1      -5.906  12.066  17.595  0.00  0.00    +0.000 A 
ATOM     10  C   UNL     1      -4.691  11.382  17.500  0.00  0.00    +0.000 A 
ATOM     11  C   UNL     1      -3.675  11.568  18.475  0.00  0.00    +0.000 A 
ENDBRANCH   1   4
BRANCH   1  12
ATOM     12  S   UNL     1       0.589  13.035  19.918  0.00  0.00    +0.000 S 
ATOM     13  O   UNL     1      -0.325  14.067  19.465  0.00  0.00    +0.000 OA
ATOM     14  O   UNL     1       1.165  13.102  21.249  0.00  0.00    +0.000 OA
BRANCH  12  15
ATOM     15  C   UNL     1       1.978  13.026  18.745  0.00  0.00    +0.000 C 
BRANCH  15  16
ATOM     16  C   UNL     1       2.287  14.458  18.279  0.00  0.00    +0.000 C 
BRANCH  16  17
ATOM     17  C   UNL     1       3.728  14.945  18.540  0.00  0.00    +0.000 C 
ATOM     18  C   UNL     1       3.855  16.429  18.169  0.00  0.00    +0.000 C 
ATOM     19  C   UNL     1       4.175  14.759  19.993  0.00  0.00    +0.000 C 
BRANCH  17  20
ATOM     20  O   UNL     1       4.619  14.189  17.720  0.00  0.00    +0.000 OA
ATOM     21  H   UNL     1       5.527  14.489  17.904  0.00  0.00    +0.000 HD
ENDBRANCH  17  20
ENDBRANCH  16  17
ENDBRANCH  15  16
ENDBRANCH  12  15
ENDBRANCH   1  12
BRANCH   1  22
ATOM     22  C   UNL     1       0.367  10.413  20.595  0.00  0.00    +0.000 C 
BRANCH  22  23
ATOM     23  C   UNL     1       1.112   9.362  19.776  0.00  0.00    +0.000 A 
ATOM     24  C   UNL     1       1.408   9.590  18.421  0.00  0.00    +0.000 A 
ATOM     25  C   UNL     1       2.160   8.669  17.688  0.00  0.00    +0.000 A 
ATOM     26  C   UNL     1       2.595   7.489  18.288  0.00  0.00    +0.000 A 
ATOM     27  C   UNL     1       2.259   7.210  19.613  0.00  0.00    +0.000 A 
ATOM     28  C   UNL     1       1.561   8.163  20.363  0.00  0.00    +0.000 A 
BRANCH  27  29
ATOM     29  O   UNL     1       2.738   6.027  20.098  0.00  0.00    +0.000 OA
BRANCH  29  30
ATOM     30  C   UNL     1       1.921   4.875  19.975  0.00  0.00    +0.000 C 
ATOM     31  F   UNL     1       1.490   4.622  18.723  0.00  0.00    +0.000 F 
ATOM     32  F   UNL     1       2.616   3.797  20.404  0.00  0.00    +0.000 F 
ATOM     33  F   UNL     1       0.843   5.022  20.778  0.00  0.00    +0.000 F 
ENDBRANCH  29  30
ENDBRANCH  27  29
ENDBRANCH  22  23
ENDBRANCH   1  22
TORSDOF 10
ENDMDL
MODEL 2
REMARK VINA RESULT:      -7.0      6.262      9.552
REMARK  Name = 
REMARK  13 active torsions:
REMARK  status: ('A' for Active; 'I' for Inactive)
REMARK    1  A    between atoms: C_1  and  C_2
REMARK    2  A    between atoms: C_3  and  N_4
REMARK    3  A    between atoms: N_4  and  C_5
REMARK    4  A    between atoms: N_4  and  S_17
REMARK    5  A    between atoms: C_5  and  C_6
REMARK    6  A    between atoms: C_10  and  O_11
REMARK    7  A    between atoms: O_11  and  C_12
REMARK    8  A    between atoms: S_17  and  C_20
REMARK    9  A    between atoms: C_20  and  C_21
REMARK   10  A    between atoms: C_21  and  C_22
REMARK   11  A    between atoms: C_22  and  C_23
REMARK   12  A    between atoms: C_22  and  C_24
REMARK   13  A    between atoms: C_22  and  O_25
REMARK                            x       y       z     vdW  Elec       q    Type
REMARK                         _______ _______ _______ _____ _____    ______ ____
ROOT
ATOM      1  N   UNL     1       5.244   4.908  16.700  0.00  0.00    +0.000 N 
ENDROOT
BRANCH   1   4
ATOM      2  C   UNL     1       2.610   3.382  16.197  0.00  0.00    +0.000 C 
ATOM      3  C   UNL     1       3.274   3.616  17.516  0.00  0.00    +0.000 A 
ATOM      4  C   UNL     1       4.490   4.239  17.731  0.00  0.00    +0.000 A 
ATOM      5  S   UNL     1       5.006   4.081  19.349  0.00  0.00    +0.000 S 
ATOM      6  C   UNL     1       3.437   3.597  19.869  0.00  0.00    +0.000 A 
ATOM      7  C   UNL     1       2.957   3.501  21.190  0.00  0.00    +0.000 A 
ATOM      8  C   UNL     1       1.661   3.024  21.407  0.00  0.00    +0.000 A 
ATOM      9  C   UNL     1       0.880   2.600  20.342  0.00  0.00    +0.000 A 
ATOM     10  C   UNL     1       1.359   2.706  19.034  0.00  0.00    +0.000 A 
ATOM     11  C   UNL     1       2.639   3.263  18.773  0.00  0.00    +0.000 A 
ENDBRANCH   1   4
BRANCH   1  12
ATOM     12  S   UNL     1       5.208   6.618  16.806  0.00  0.00    +0.000 S 
ATOM     13  O   UNL     1       6.439   7.063  17.433  0.00  0.00    +0.000 OA
ATOM     14  O   UNL     1       4.828   7.126  15.500  0.00  0.00    +0.000 OA
BRANCH  12  15
ATOM     15  C   UNL     1       3.863   7.051  17.949  0.00  0.00    +0.000 C 
BRANCH  15  16
ATOM     16  C   UNL     1       2.791   7.876  17.219  0.00  0.00    +0.000 C 
BRANCH  16  17
ATOM     17  C   UNL     1       1.966   8.829  18.108  0.00  0.00    +0.000 C 
ATOM     18  C   UNL     1       0.565   9.023  17.511  0.00  0.00    +0.000 C 
ATOM     19  C   UNL     1       1.824   8.339  19.551  0.00  0.00    +0.000 C 
BRANCH  17  20
ATOM     20  O   UNL     1       2.625  10.095  18.151  0.00  0.00    +0.000 OA
ATOM     21  H   UNL     1       1.980  10.762  18.444  0.00  0.00    +0.000 HD
ENDBRANCH  17  20
ENDBRANCH  16  17
ENDBRANCH  15  16
ENDBRANCH  12  15
ENDBRANCH   1  12
BRANCH   1  22
ATOM     22  C   UNL     1       6.521   4.312  16.225  0.00  0.00    +0.000 C 
BRANCH  22  23
ATOM     23  C   UNL     1       6.673   4.321  14.705  0.00  0.00    +0.000 A 
ATOM     24  C   UNL     1       7.515   5.254  14.077  0.00  0.00    +0.000 A 
ATOM     25  C   UNL     1       7.722   5.216  12.696  0.00  0.00    +0.000 A 
ATOM     26  C   UNL     1       7.063   4.266  11.918  0.00  0.00    +0.000 A 
ATOM     27  C   UNL     1       6.173   3.369  12.510  0.00  0.00    +0.000 A 
ATOM     28  C   UNL     1       6.016   3.369  13.901  0.00  0.00    +0.000 A 
BRANCH  27  29
ATOM     29  O   UNL     1       5.583   2.484  11.655  0.00  0.00    +0.000 OA
BRANCH  29  30
ATOM     30  C   UNL     1       6.362   1.401  11.173  0.00  0.00    +0.000 C 
ATOM     31  F   UNL     1       7.642   1.398  11.596  0.00  0.00    +0.000 F 
ATOM     32  F   UNL     1       5.789   0.240  11.567  0.00  0.00    +0.000 F 
ATOM     33  F   UNL     1       6.356   1.432   9.822  0.00  0.00    +0.000 F 
ENDBRANCH  29  30
ENDBRANCH  27  29
ENDBRANCH  22  23
ENDBRANCH   1  22
TORSDOF 10
ENDMDL
MODEL 3
REMARK VINA RESULT:      -7.0      1.140      1.274
REMARK  Name = 
REMARK  13 active torsions:
REMARK  status: ('A' for Active; 'I' for Inactive)
REMARK    1  A    between atoms: C_1  and  C_2
REMARK    2  A    between atoms: C_3  and  N_4
REMARK    3  A    between atoms: N_4  and  C_5
REMARK    4  A    between atoms: N_4  and  S_17
REMARK    5  A    between atoms: C_5  and  C_6
REMARK    6  A    between atoms: C_10  and  O_11
REMARK    7  A    between atoms: O_11  and  C_12
REMARK    8  A    between atoms: S_17  and  C_20
REMARK    9  A    between atoms: C_20  and  C_21
REMARK   10  A    between atoms: C_21  and  C_22
REMARK   11  A    between atoms: C_22  and  C_23
REMARK   12  A    between atoms: C_22  and  C_24
REMARK   13  A    between atoms: C_22  and  O_25
REMARK                            x       y       z     vdW  Elec       q    Type
REMARK                         _______ _______ _______ _____ _____    ______ ____
ROOT
ATOM      1  N   UNL     1      -0.031  11.309  19.240  0.00  0.00    +0.000 N 
ENDROOT
BRANCH   1   4
ATOM      2  C   UNL     1      -1.845   9.991  17.121  0.00  0.00    +0.000 C 
ATOM      3  C   UNL     1      -2.274  10.893  18.234  0.00  0.00    +0.000 A 
ATOM      4  C   UNL     1      -1.468  11.426  19.224  0.00  0.00    +0.000 A 
ATOM      5  S   UNL     1      -2.383  12.194  20.441  0.00  0.00    +0.000 S 
ATOM      6  C   UNL     1      -3.791  12.229  19.449  0.00  0.00    +0.000 A 
ATOM      7  C   UNL     1      -4.979  12.955  19.662  0.00  0.00    +0.000 A 
ATOM      8  C   UNL     1      -6.040  12.798  18.765  0.00  0.00    +0.000 A 
ATOM      9  C   UNL     1      -5.943  11.900  17.712  0.00  0.00    +0.000 A 
ATOM     10  C   UNL     1      -4.759  11.188  17.502  0.00  0.00    +0.000 A 
ATOM     11  C   UNL     1      -3.635  11.386  18.347  0.00  0.00    +0.000 A 
ENDBRANCH   1   4
BRANCH   1  12
ATOM     12  S   UNL     1       0.792  12.781  18.937  0.00  0.00    +0.000 S 
ATOM     13  O   UNL     1       2.050  12.474  18.282  0.00  0.00    +0.000 OA
ATOM     14  O   UNL     1      -0.155  13.687  18.313  0.00  0.00    +0.000 OA
BRANCH  12  15
ATOM     15  C   UNL     1       1.216  13.497  20.553  0.00  0.00    +0.000 C 
BRANCH  15  16
ATOM     16  C   UNL     1       1.396  15.018  20.429  0.00  0.00    +0.000 C 
BRANCH  16  17
ATOM     17  C   UNL     1       2.826  15.492  20.095  0.00  0.00    +0.000 C 
ATOM     18  C   UNL     1       2.865  16.083  18.679  0.00  0.00    +0.000 C 
ATOM     19  C   UNL     1       3.363  16.534  21.081  0.00  0.00    +0.000 C 
BRANCH  17  20
ATOM     20  O   UNL     1       3.702  14.366  20.146  0.00  0.00    +0.000 OA
ATOM     21  H   UNL     1       4.209  14.339  19.316  0.00  0.00    +0.000 HD
ENDBRANCH  17  20
ENDBRANCH  16  17
ENDBRANCH  15  16
ENDBRANCH  12  15
ENDBRANCH   1  12
BRANCH   1  22
ATOM     22  C   UNL     1       0.618  10.389  20.212  0.00  0.00    +0.000 C 
BRANCH  22  23
ATOM     23  C   UNL     1       1.302   9.191  19.559  0.00  0.00    +0.000 A 
ATOM     24  C   UNL     1       1.629   9.213  18.193  0.00  0.00    +0.000 A 
ATOM     25  C   UNL     1       2.328   8.154  17.607  0.00  0.00    +0.000 A 
ATOM     26  C   UNL     1       2.678   7.042  18.370  0.00  0.00    +0.000 A 
ATOM     27  C   UNL     1       2.309   6.969  19.713  0.00  0.00    +0.000 A 
ATOM     28  C   UNL     1       1.665   8.057  20.313  0.00  0.00    +0.000 A 
BRANCH  27  29
ATOM     29  O   UNL     1       2.703   5.836  20.364  0.00  0.00    +0.000 OA
BRANCH  29  30
ATOM     30  C   UNL     1       1.839   4.713  20.335  0.00  0.00    +0.000 C 
ATOM     31  F   UNL     1       1.754   4.100  19.137  0.00  0.00    +0.000 F 
ATOM     32  F   UNL     1       2.269   3.804  21.239  0.00  0.00    +0.000 F 
ATOM     33  F   UNL     1       0.600   5.111  20.701  0.00  0.00    +0.000 F 
ENDBRANCH  29  30
ENDBRANCH  27  29
ENDBRANCH  22  23
ENDBRANCH   1  22
TORSDOF 10
ENDMDL
MODEL 4
REMARK VINA RESULT:      -7.0      0.920      1.474
REMARK  Name = 
REMARK  13 active torsions:
REMARK  status: ('A' for Active; 'I' for Inactive)
REMARK    1  A    between atoms: C_1  and  C_2
REMARK    2  A    between atoms: C_3  and  N_4
REMARK    3  A    between atoms: N_4  and  C_5
REMARK    4  A    between atoms: N_4  and  S_17
REMARK    5  A    between atoms: C_5  and  C_6
REMARK    6  A    between atoms: C_10  and  O_11
REMARK    7  A    between atoms: O_11  and  C_12
REMARK    8  A    between atoms: S_17  and  C_20
REMARK    9  A    between atoms: C_20  and  C_21
REMARK   10  A    between atoms: C_21  and  C_22
REMARK   11  A    between atoms: C_22  and  C_23
REMARK   12  A    between atoms: C_22  and  C_24
REMARK   13  A    between atoms: C_22  and  O_25
REMARK                            x       y       z     vdW  Elec       q    Type
REMARK                         _______ _______ _______ _____ _____    ______ ____
ROOT
ATOM      1  N   UNL     1      -0.078  11.538  19.626  0.00  0.00    +0.000 N 
ENDROOT
BRANCH   1   4
ATOM      2  C   UNL     1      -2.289  12.644  21.472  0.00  0.00    +0.000 C 
ATOM      3  C   UNL     1      -2.444  12.200  20.053  0.00  0.00    +0.000 A 
ATOM      4  C   UNL     1      -1.438  11.770  19.206  0.00  0.00    +0.000 A 
ATOM      5  S   UNL     1      -1.991  11.596  17.602  0.00  0.00    +0.000 S 
ATOM      6  C   UNL     1      -3.640  11.640  18.099  0.00  0.00    +0.000 A 
ATOM      7  C   UNL     1      -4.779  11.304  17.340  0.00  0.00    +0.000 A 
ATOM      8  C   UNL     1      -6.045  11.469  17.910  0.00  0.00    +0.000 A 
ATOM      9  C   UNL     1      -6.180  12.005  19.182  0.00  0.00    +0.000 A 
ATOM     10  C   UNL     1      -5.046  12.329  19.931  0.00  0.00    +0.000 A 
ATOM     11  C   UNL     1      -3.744  12.097  19.414  0.00  0.00    +0.000 A 
ENDBRANCH   1   4
BRANCH   1  12
ATOM     12  S   UNL     1       0.795  12.968  19.986  0.00  0.00    +0.000 S 
ATOM     13  O   UNL     1       0.076  14.095  19.423  0.00  0.00    +0.000 OA
ATOM     14  O   UNL     1       1.113  12.937  21.402  0.00  0.00    +0.000 OA
BRANCH  12  15
ATOM     15  C   UNL     1       2.374  12.866  19.092  0.00  0.00    +0.000 C 
BRANCH  15  16
ATOM     16  C   UNL     1       2.438  13.949  18.004  0.00  0.00    +0.000 C 
BRANCH  16  17
ATOM     17  C   UNL     1       3.593  14.963  18.143  0.00  0.00    +0.000 C 
ATOM     18  C   UNL     1       3.296  16.214  17.304  0.00  0.00    +0.000 C 
ATOM     19  C   UNL     1       3.851  15.389  19.590  0.00  0.00    +0.000 C 
BRANCH  17  20
ATOM     20  O   UNL     1       4.791  14.359  17.656  0.00  0.00    +0.000 OA
ATOM     21  H   UNL     1       5.255  13.957  18.410  0.00  0.00    +0.000 HD
ENDBRANCH  17  20
ENDBRANCH  16  17
ENDBRANCH  15  16
ENDBRANCH  12  15
ENDBRANCH   1  12
BRANCH   1  22
ATOM     22  C   UNL     1       0.235  10.354  20.470  0.00  0.00    +0.000 C 
BRANCH  22  23
ATOM     23  C   UNL     1       1.017   9.268  19.736  0.00  0.00    +0.000 A 
ATOM     24  C   UNL     1       1.278   9.382  18.360  0.00  0.00    +0.000 A 
ATOM     25  C   UNL     1       2.062   8.433  17.699  0.00  0.00    +0.000 A 
ATOM     26  C   UNL     1       2.567   7.337  18.397  0.00  0.00    +0.000 A 
ATOM     27  C   UNL     1       2.269   7.169  19.749  0.00  0.00    +0.000 A 
ATOM     28  C   UNL     1       1.537   8.152  20.423  0.00  0.00    +0.000 A 
BRANCH  27  29
ATOM     29  O   UNL     1       2.816   6.062  20.331  0.00  0.00    +0.000 OA
BRANCH  29  30
ATOM     30  C   UNL     1       1.982   4.933  20.535  0.00  0.00    +0.000 C 
ATOM     31  F   UNL     1       2.082   3.982  19.585  0.00  0.00    +0.000 F 
ATOM     32  F   UNL     1       2.290   4.369  21.725  0.00  0.00    +0.000 F 
ATOM     33  F   UNL     1       0.697   5.350  20.592  0.00  0.00    +0.000 F 
ENDBRANCH  29  30
ENDBRANCH  27  29
ENDBRANCH  22  23
ENDBRANCH   1  22
TORSDOF 10
ENDMDL
MODEL 5
REMARK VINA RESULT:      -7.0      2.231      5.794
REMARK  Name = 
REMARK  13 active torsions:
REMARK  status: ('A' for Active; 'I' for Inactive)
REMARK    1  A    between atoms: C_1  and  C_2
REMARK    2  A    between atoms: C_3  and  N_4
REMARK    3  A    between atoms: N_4  and  C_5
REMARK    4  A    between atoms: N_4  and  S_17
REMARK    5  A    between atoms: C_5  and  C_6
REMARK    6  A    between atoms: C_10  and  O_11
REMARK    7  A    between atoms: O_11  and  C_12
REMARK    8  A    between atoms: S_17  and  C_20
REMARK    9  A    between atoms: C_20  and  C_21
REMARK   10  A    between atoms: C_21  and  C_22
REMARK   11  A    between atoms: C_22  and  C_23
REMARK   12  A    between atoms: C_22  and  C_24
REMARK   13  A    between atoms: C_22  and  O_25
REMARK                            x       y       z     vdW  Elec       q    Type
REMARK                         _______ _______ _______ _____ _____    ______ ____
ROOT
ATOM      1  N   UNL     1       0.843  11.124  18.943  0.00  0.00    +0.000 N 
ENDROOT
BRANCH   1   4
ATOM      2  C   UNL     1       0.601  12.874  21.473  0.00  0.00    +0.000 C 
ATOM      3  C   UNL     1       1.352  13.204  20.222  0.00  0.00    +0.000 A 
ATOM      4  C   UNL     1       1.517  12.388  19.117  0.00  0.00    +0.000 A 
ATOM      5  S   UNL     1       2.644  13.036  18.013  0.00  0.00    +0.000 S 
ATOM      6  C   UNL     1       2.573  14.589  18.755  0.00  0.00    +0.000 A 
ATOM      7  C   UNL     1       3.073  15.808  18.256  0.00  0.00    +0.000 A 
ATOM      8  C   UNL     1       2.970  16.957  19.045  0.00  0.00    +0.000 A 
ATOM      9  C   UNL     1       2.434  16.887  20.322  0.00  0.00    +0.000 A 
ATOM     10  C   UNL     1       1.933  15.677  20.809  0.00  0.00    +0.000 A 
ATOM     11  C   UNL     1       1.947  14.509  20.001  0.00  0.00    +0.000 A 
ENDBRANCH   1   4
BRANCH   1  12
ATOM     12  S   UNL     1      -0.833  11.266  18.616  0.00  0.00    +0.000 S 
ATOM     13  O   UNL     1      -1.563  10.944  19.828  0.00  0.00    +0.000 OA
ATOM     14  O   UNL     1      -1.039  12.542  17.955  0.00  0.00    +0.000 OA
BRANCH  12  15
ATOM     15  C   UNL     1      -1.250   9.976  17.406  0.00  0.00    +0.000 C 
BRANCH  15  16
ATOM     16  C   UNL     1      -2.775   9.852  17.266  0.00  0.00    +0.000 C 
BRANCH  16  17
ATOM     17  C   UNL     1      -3.416  10.730  16.170  0.00  0.00    +0.000 C 
ATOM     18  C   UNL     1      -3.831   9.860  14.977  0.00  0.00    +0.000 C 
ATOM     19  C   UNL     1      -4.637  11.513  16.660  0.00  0.00    +0.000 C 
BRANCH  17  20
ATOM     20  O   UNL     1      -2.448  11.683  15.728  0.00  0.00    +0.000 OA
ATOM     21  H   UNL     1      -2.423  11.659  14.756  0.00  0.00    +0.000 HD
ENDBRANCH  17  20
ENDBRANCH  16  17
ENDBRANCH  15  16
ENDBRANCH  12  15
ENDBRANCH   1  12
BRANCH   1  22
ATOM     22  C   UNL     1       1.548  10.008  18.258  0.00  0.00    +0.000 C 
BRANCH  22  23
ATOM     23  C   UNL     1       1.705   8.761  19.124  0.00  0.00    +0.000 A 
ATOM     24  C   UNL     1       1.081   8.679  20.380  0.00  0.00    +0.000 A 
ATOM     25  C   UNL     1       1.153   7.510  21.141  0.00  0.00    +0.000 A 
ATOM     26  C   UNL     1       1.881   6.417  20.674  0.00  0.00    +0.000 A 
ATOM     27  C   UNL     1       2.563   6.496  19.459  0.00  0.00    +0.000 A 
ATOM     28  C   UNL     1       2.437   7.645  18.670  0.00  0.00    +0.000 A 
BRANCH  27  29
ATOM     29  O   UNL     1       3.243   5.369  19.099  0.00  0.00    +0.000 OA
BRANCH  29  30
ATOM     30  C   UNL     1       2.880   4.728  17.888  0.00  0.00    +0.000 C 
ATOM     31  F   UNL     1       3.004   3.385  17.904  0.00  0.00    +0.000 F 
ATOM     32  F   UNL     1       1.592   5.025  17.603  0.00  0.00    +0.000 F 
ATOM     33  F   UNL     1       3.652   5.218  16.892  0.00  0.00    +0.000 F 
ENDBRANCH  29  30
ENDBRANCH  27  29
ENDBRANCH  22  23
ENDBRANCH   1  22
TORSDOF 10
ENDMDL
MODEL 6
REMARK VINA RESULT:      -7.0      5.814      9.251
REMARK  Name = 
REMARK  13 active torsions:
REMARK  status: ('A' for Active; 'I' for Inactive)
REMARK    1  A    between atoms: C_1  and  C_2
REMARK    2  A    between atoms: C_3  and  N_4
REMARK    3  A    between atoms: N_4  and  C_5
REMARK    4  A    between atoms: N_4  and  S_17
REMARK    5  A    between atoms: C_5  and  C_6
REMARK    6  A    between atoms: C_10  and  O_11
REMARK    7  A    between atoms: O_11  and  C_12
REMARK    8  A    between atoms: S_17  and  C_20
REMARK    9  A    between atoms: C_20  and  C_21
REMARK   10  A    between atoms: C_21  and  C_22
REMARK   11  A    between atoms: C_22  and  C_23
REMARK   12  A    between atoms: C_22  and  C_24
REMARK   13  A    between atoms: C_22  and  O_25
REMARK                            x       y       z     vdW  Elec       q    Type
REMARK                         _______ _______ _______ _____ _____    ______ ____
ROOT
ATOM      1  N   UNL     1       5.206   5.007  16.732  0.00  0.00    +0.000 N 
ENDROOT
BRANCH   1   4
ATOM      2  C   UNL     1       2.643   3.366  16.227  0.00  0.00    +0.000 C 
ATOM      3  C   UNL     1       3.250   3.697  17.553  0.00  0.00    +0.000 A 
ATOM      4  C   UNL     1       4.436   4.373  17.774  0.00  0.00    +0.000 A 
ATOM      5  S   UNL     1       4.898   4.323  19.415  0.00  0.00    +0.000 S 
ATOM      6  C   UNL     1       3.327   3.816  19.907  0.00  0.00    +0.000 A 
ATOM      7  C   UNL     1       2.802   3.778  21.214  0.00  0.00    +0.000 A 
ATOM      8  C   UNL     1       1.515   3.270  21.413  0.00  0.00    +0.000 A 
ATOM      9  C   UNL     1       0.787   2.761  20.348  0.00  0.00    +0.000 A 
ATOM     10  C   UNL     1       1.310   2.809  19.053  0.00  0.00    +0.000 A 
ATOM     11  C   UNL     1       2.580   3.393  18.805  0.00  0.00    +0.000 A 
ENDBRANCH   1   4
BRANCH   1  12
ATOM     12  S   UNL     1       5.188   6.720  16.796  0.00  0.00    +0.000 S 
ATOM     13  O   UNL     1       6.441   7.168  17.375  0.00  0.00    +0.000 OA
ATOM     14  O   UNL     1       4.774   7.198  15.491  0.00  0.00    +0.000 OA
BRANCH  12  15
ATOM     15  C   UNL     1       3.882   7.194  17.968  0.00  0.00    +0.000 C 
BRANCH  15  16
ATOM     16  C   UNL     1       2.741   7.911  17.228  0.00  0.00    +0.000 C 
BRANCH  16  17
ATOM     17  C   UNL     1       1.887   8.866  18.089  0.00  0.00    +0.000 C 
ATOM     18  C   UNL     1       2.493  10.276  18.065  0.00  0.00    +0.000 C 
ATOM     19  C   UNL     1       0.428   8.947  17.635  0.00  0.00    +0.000 C 
BRANCH  17  20
ATOM     20  O   UNL     1       1.890   8.390  19.435  0.00  0.00    +0.000 OA
ATOM     21  H   UNL     1       1.364   7.572  19.467  0.00  0.00    +0.000 HD
ENDBRANCH  17  20
ENDBRANCH  16  17
ENDBRANCH  15  16
ENDBRANCH  12  15
ENDBRANCH   1  12
BRANCH   1  22
ATOM     22  C   UNL     1       6.480   4.386  16.282  0.00  0.00    +0.000 C 
BRANCH  22  23
ATOM     23  C   UNL     1       6.678   4.421  14.769  0.00  0.00    +0.000 A 
ATOM     24  C   UNL     1       7.633   5.276  14.193  0.00  0.00    +0.000 A 
ATOM     25  C   UNL     1       7.875   5.254  12.817  0.00  0.00    +0.000 A 
ATOM     26  C   UNL     1       7.142   4.404  11.992  0.00  0.00    +0.000 A 
ATOM     27  C   UNL     1       6.144   3.592  12.532  0.00  0.00    +0.000 A 
ATOM     28  C   UNL     1       5.946   3.569  13.917  0.00  0.00    +0.000 A 
BRANCH  27  29
ATOM     29  O   UNL     1       5.488   2.800  11.634  0.00  0.00    +0.000 OA
BRANCH  29  30
ATOM     30  C   UNL     1       4.138   3.108  11.333  0.00  0.00    +0.000 C 
ATOM     31  F   UNL     1       3.324   3.176  12.406  0.00  0.00    +0.000 F 
ATOM     32  F   UNL     1       4.091   4.300  10.696  0.00  0.00    +0.000 F 
ATOM     33  F   UNL     1       3.658   2.166  10.490  0.00  0.00    +0.000 F 
ENDBRANCH  29  30
ENDBRANCH  27  29
ENDBRANCH  22  23
ENDBRANCH   1  22
TORSDOF 10
ENDMDL
MODEL 7
REMARK VINA RESULT:      -6.9      1.484      1.848
REMARK  Name = 
REMARK  13 active torsions:
REMARK  status: ('A' for Active; 'I' for Inactive)
REMARK    1  A    between atoms: C_1  and  C_2
REMARK    2  A    between atoms: C_3  and  N_4
REMARK    3  A    between atoms: N_4  and  C_5
REMARK    4  A    between atoms: N_4  and  S_17
REMARK    5  A    between atoms: C_5  and  C_6
REMARK    6  A    between atoms: C_10  and  O_11
REMARK    7  A    between atoms: O_11  and  C_12
REMARK    8  A    between atoms: S_17  and  C_20
REMARK    9  A    between atoms: C_20  and  C_21
REMARK   10  A    between atoms: C_21  and  C_22
REMARK   11  A    between atoms: C_22  and  C_23
REMARK   12  A    between atoms: C_22  and  C_24
REMARK   13  A    between atoms: C_22  and  O_25
REMARK                            x       y       z     vdW  Elec       q    Type
REMARK                         _______ _______ _______ _____ _____    ______ ____
ROOT
ATOM      1  N   UNL     1       0.267  11.003  19.364  0.00  0.00    +0.000 N 
ENDROOT
BRANCH   1   4
ATOM      2  C   UNL     1      -1.620   9.933  17.170  0.00  0.00    +0.000 C 
ATOM      3  C   UNL     1      -1.991  10.806  18.326  0.00  0.00    +0.000 A 
ATOM      4  C   UNL     1      -1.158  11.226  19.347  0.00  0.00    +0.000 A 
ATOM      5  S   UNL     1      -2.025  11.996  20.597  0.00  0.00    +0.000 S 
ATOM      6  C   UNL     1      -3.417  12.185  19.601  0.00  0.00    +0.000 A 
ATOM      7  C   UNL     1      -4.551  12.985  19.846  0.00  0.00    +0.000 A 
ATOM      8  C   UNL     1      -5.612  12.953  18.936  0.00  0.00    +0.000 A 
ATOM      9  C   UNL     1      -5.572  12.106  17.839  0.00  0.00    +0.000 A 
ATOM     10  C   UNL     1      -4.442  11.321  17.598  0.00  0.00    +0.000 A 
ATOM     11  C   UNL     1      -3.313  11.391  18.457  0.00  0.00    +0.000 A 
ENDBRANCH   1   4
BRANCH   1  12
ATOM     12  S   UNL     1       1.196  12.399  19.011  0.00  0.00    +0.000 S 
ATOM     13  O   UNL     1       2.312  12.005  18.171  0.00  0.00    +0.000 OA
ATOM     14  O   UNL     1       0.277  13.431  18.568  0.00  0.00    +0.000 OA
BRANCH  12  15
ATOM     15  C   UNL     1       1.911  12.973  20.581  0.00  0.00    +0.000 C 
BRANCH  15  16
ATOM     16  C   UNL     1       2.543  14.362  20.400  0.00  0.00    +0.000 C 
BRANCH  16  17
ATOM     17  C   UNL     1       2.417  15.313  21.608  0.00  0.00    +0.000 C 
ATOM     18  C   UNL     1       2.916  16.714  21.228  0.00  0.00    +0.000 C 
ATOM     19  C   UNL     1       0.986  15.425  22.141  0.00  0.00    +0.000 C 
BRANCH  17  20
ATOM     20  O   UNL     1       3.229  14.810  22.670  0.00  0.00    +0.000 OA
ATOM     21  H   UNL     1       2.708  14.154  23.164  0.00  0.00    +0.000 HD
ENDBRANCH  17  20
ENDBRANCH  16  17
ENDBRANCH  15  16
ENDBRANCH  12  15
ENDBRANCH   1  12
BRANCH   1  22
ATOM     22  C   UNL     1       0.850  10.069  20.364  0.00  0.00    +0.000 C 
BRANCH  22  23
ATOM     23  C   UNL     1       1.426   8.796  19.751  0.00  0.00    +0.000 A 
ATOM     24  C   UNL     1       1.745   8.743  18.383  0.00  0.00    +0.000 A 
ATOM     25  C   UNL     1       2.348   7.609  17.832  0.00  0.00    +0.000 A 
ATOM     26  C   UNL     1       2.609   6.499  18.633  0.00  0.00    +0.000 A 
ATOM     27  C   UNL     1       2.243   6.504  19.979  0.00  0.00    +0.000 A 
ATOM     28  C   UNL     1       1.698   7.662  20.542  0.00  0.00    +0.000 A 
BRANCH  27  29
ATOM     29  O   UNL     1       2.546   5.365  20.668  0.00  0.00    +0.000 OA
BRANCH  29  30
ATOM     30  C   UNL     1       1.666   4.259  20.549  0.00  0.00    +0.000 C 
ATOM     31  F   UNL     1       1.928   3.442  19.509  0.00  0.00    +0.000 F 
ATOM     32  F   UNL     1       1.730   3.524  21.684  0.00  0.00    +0.000 F 
ATOM     33  F   UNL     1       0.403   4.723  20.424  0.00  0.00    +0.000 F 
ENDBRANCH  29  30
ENDBRANCH  27  29
ENDBRANCH  22  23
ENDBRANCH   1  22
TORSDOF 10
ENDMDL
MODEL 8
REMARK VINA RESULT:      -6.9      6.252      9.519
REMARK  Name = 
REMARK  13 active torsions:
REMARK  status: ('A' for Active; 'I' for Inactive)
REMARK    1  A    between atoms: C_1  and  C_2
REMARK    2  A    between atoms: C_3  and  N_4
REMARK    3  A    between atoms: N_4  and  C_5
REMARK    4  A    between atoms: N_4  and  S_17
REMARK    5  A    between atoms: C_5  and  C_6
REMARK    6  A    between atoms: C_10  and  O_11
REMARK    7  A    between atoms: O_11  and  C_12
REMARK    8  A    between atoms: S_17  and  C_20
REMARK    9  A    between atoms: C_20  and  C_21
REMARK   10  A    between atoms: C_21  and  C_22
REMARK   11  A    between atoms: C_22  and  C_23
REMARK   12  A    between atoms: C_22  and  C_24
REMARK   13  A    between atoms: C_22  and  O_25
REMARK                            x       y       z     vdW  Elec       q    Type
REMARK                         _______ _______ _______ _____ _____    ______ ____
ROOT
ATOM      1  N   UNL     1       5.273   5.005  16.598  0.00  0.00    +0.000 N 
ENDROOT
BRANCH   1   4
ATOM      2  C   UNL     1       2.777   3.243  16.166  0.00  0.00    +0.000 C 
ATOM      3  C   UNL     1       3.348   3.684  17.475  0.00  0.00    +0.000 A 
ATOM      4  C   UNL     1       4.506   4.415  17.668  0.00  0.00    +0.000 A 
ATOM      5  S   UNL     1       4.940   4.493  19.316  0.00  0.00    +0.000 S 
ATOM      6  C   UNL     1       3.379   3.965  19.817  0.00  0.00    +0.000 A 
ATOM      7  C   UNL     1       2.832   3.996  21.115  0.00  0.00    +0.000 A 
ATOM      8  C   UNL     1       1.560   3.458  21.328  0.00  0.00    +0.000 A 
ATOM      9  C   UNL     1       0.869   2.852  20.289  0.00  0.00    +0.000 A 
ATOM     10  C   UNL     1       1.413   2.831  19.002  0.00  0.00    +0.000 A 
ATOM     11  C   UNL     1       2.667   3.443  18.735  0.00  0.00    +0.000 A 
ENDBRANCH   1   4
BRANCH   1  12
ATOM     12  S   UNL     1       5.300   6.718  16.622  0.00  0.00    +0.000 S 
ATOM     13  O   UNL     1       6.603   7.148  17.095  0.00  0.00    +0.000 OA
ATOM     14  O   UNL     1       4.800   7.178  15.339  0.00  0.00    +0.000 OA
BRANCH  12  15
ATOM     15  C   UNL     1       4.096   7.252  17.875  0.00  0.00    +0.000 C 
BRANCH  15  16
ATOM     16  C   UNL     1       3.096   8.245  17.261  0.00  0.00    +0.000 C 
BRANCH  16  17
ATOM     17  C   UNL     1       1.912   8.641  18.168  0.00  0.00    +0.000 C 
ATOM     18  C   UNL     1       2.026   7.927  19.522  0.00  0.00    +0.000 C 
ATOM     19  C   UNL     1       1.815  10.149  18.410  0.00  0.00    +0.000 C 
BRANCH  17  20
ATOM     20  O   UNL     1       0.699   8.232  17.535  0.00  0.00    +0.000 OA
ATOM     21  H   UNL     1       0.818   7.322  17.212  0.00  0.00    +0.000 HD
ENDBRANCH  17  20
ENDBRANCH  16  17
ENDBRANCH  15  16
ENDBRANCH  12  15
ENDBRANCH   1  12
BRANCH   1  22
ATOM     22  C   UNL     1       6.521   4.340  16.140  0.00  0.00    +0.000 C 
BRANCH  22  23
ATOM     23  C   UNL     1       6.698   4.348  14.623  0.00  0.00    +0.000 A 
ATOM     24  C   UNL     1       7.562   5.270  14.010  0.00  0.00    +0.000 A 
ATOM     25  C   UNL     1       7.791   5.229  12.632  0.00  0.00    +0.000 A 
ATOM     26  C   UNL     1       7.132   4.289  11.843  0.00  0.00    +0.000 A 
ATOM     27  C   UNL     1       6.220   3.404  12.420  0.00  0.00    +0.000 A 
ATOM     28  C   UNL     1       6.041   3.405  13.807  0.00  0.00    +0.000 A 
BRANCH  27  29
ATOM     29  O   UNL     1       5.633   2.527  11.554  0.00  0.00    +0.000 OA
BRANCH  29  30
ATOM     30  C   UNL     1       6.381   1.397  11.139  0.00  0.00    +0.000 C 
ATOM     31  F   UNL     1       6.368   1.172   9.809  0.00  0.00    +0.000 F 
ATOM     32  F   UNL     1       7.668   1.557  11.523  0.00  0.00    +0.000 F 
ATOM     33  F   UNL     1       5.892   0.302  11.763  0.00  0.00    +0.000 F 
ENDBRANCH  29  30
ENDBRANCH  27  29
ENDBRANCH  22  23
ENDBRANCH   1  22
TORSDOF 10
ENDMDL
MODEL 9
REMARK VINA RESULT:      -6.9      1.291      1.750
REMARK  Name = 
REMARK  13 active torsions:
REMARK  status: ('A' for Active; 'I' for Inactive)
REMARK    1  A    between atoms: C_1  and  C_2
REMARK    2  A    between atoms: C_3  and  N_4
REMARK    3  A    between atoms: N_4  and  C_5
REMARK    4  A    between atoms: N_4  and  S_17
REMARK    5  A    between atoms: C_5  and  C_6
REMARK    6  A    between atoms: C_10  and  O_11
REMARK    7  A    between atoms: O_11  and  C_12
REMARK    8  A    between atoms: S_17  and  C_20
REMARK    9  A    between atoms: C_20  and  C_21
REMARK   10  A    between atoms: C_21  and  C_22
REMARK   11  A    between atoms: C_22  and  C_23
REMARK   12  A    between atoms: C_22  and  C_24
REMARK   13  A    between atoms: C_22  and  O_25
REMARK                            x       y       z     vdW  Elec       q    Type
REMARK                         _______ _______ _______ _____ _____    ______ ____
ROOT
ATOM      1  N   UNL     1       0.288  11.010  19.270  0.00  0.00    +0.000 N 
ENDROOT
BRANCH   1   4
ATOM      2  C   UNL     1      -1.621   9.875  17.128  0.00  0.00    +0.000 C 
ATOM      3  C   UNL     1      -1.985  10.766  18.274  0.00  0.00    +0.000 A 
ATOM      4  C   UNL     1      -1.140  11.216  19.272  0.00  0.00    +0.000 A 
ATOM      5  S   UNL     1      -1.995  11.999  20.522  0.00  0.00    +0.000 S 
ATOM      6  C   UNL     1      -3.406  12.153  19.545  0.00  0.00    +0.000 A 
ATOM      7  C   UNL     1      -4.546  12.943  19.793  0.00  0.00    +0.000 A 
ATOM      8  C   UNL     1      -5.621  12.881  18.902  0.00  0.00    +0.000 A 
ATOM      9  C   UNL     1      -5.589  12.013  17.821  0.00  0.00    +0.000 A 
ATOM     10  C   UNL     1      -4.453  11.237  17.576  0.00  0.00    +0.000 A 
ATOM     11  C   UNL     1      -3.312  11.338  18.415  0.00  0.00    +0.000 A 
ENDBRANCH   1   4
BRANCH   1  12
ATOM     12  S   UNL     1       1.194  12.411  18.875  0.00  0.00    +0.000 S 
ATOM     13  O   UNL     1       2.377  11.997  18.143  0.00  0.00    +0.000 OA
ATOM     14  O   UNL     1       0.275  13.373  18.296  0.00  0.00    +0.000 OA
BRANCH  12  15
ATOM     15  C   UNL     1       1.781  13.123  20.441  0.00  0.00    +0.000 C 
BRANCH  15  16
ATOM     16  C   UNL     1       2.035  14.630  20.276  0.00  0.00    +0.000 C 
BRANCH  16  17
ATOM     17  C   UNL     1       3.511  15.070  20.383  0.00  0.00    +0.000 C 
ATOM     18  C   UNL     1       4.197  14.329  21.538  0.00  0.00    +0.000 C 
ATOM     19  C   UNL     1       4.307  14.828  19.098  0.00  0.00    +0.000 C 
BRANCH  17  20
ATOM     20  O   UNL     1       3.549  16.472  20.651  0.00  0.00    +0.000 OA
ATOM     21  H   UNL     1       4.003  16.605  21.501  0.00  0.00    +0.000 HD
ENDBRANCH  17  20
ENDBRANCH  16  17
ENDBRANCH  15  16
ENDBRANCH  12  15
ENDBRANCH   1  12
BRANCH   1  22
ATOM     22  C   UNL     1       0.898  10.103  20.278  0.00  0.00    +0.000 C 
BRANCH  22  23
ATOM     23  C   UNL     1       1.461   8.815  19.682  0.00  0.00    +0.000 A 
ATOM     24  C   UNL     1       1.767   8.736  18.313  0.00  0.00    +0.000 A 
ATOM     25  C   UNL     1       2.358   7.589  17.776  0.00  0.00    +0.000 A 
ATOM     26  C   UNL     1       2.619   6.492  18.594  0.00  0.00    +0.000 A 
ATOM     27  C   UNL     1       2.266   6.522  19.943  0.00  0.00    +0.000 A 
ATOM     28  C   UNL     1       1.733   7.694  20.491  0.00  0.00    +0.000 A 
BRANCH  27  29
ATOM     29  O   UNL     1       2.568   5.394  20.649  0.00  0.00    +0.000 OA
BRANCH  29  30
ATOM     30  C   UNL     1       1.671   4.299  20.574  0.00  0.00    +0.000 C 
ATOM     31  F   UNL     1       1.695   3.478  21.644  0.00  0.00    +0.000 F 
ATOM     32  F   UNL     1       0.411   4.772  20.438  0.00  0.00    +0.000 F 
ATOM     33  F   UNL     1       1.965   3.574  19.471  0.00  0.00    +0.000 F 
ENDBRANCH  29  30
ENDBRANCH  27  29
ENDBRANCH  22  23
ENDBRANCH   1  22
TORSDOF 10
ENDMDL
