MODEL 1
REMARK VINA RESULT:      -8.0      0.000      0.000
REMARK  Name = 
REMARK  7 active torsions:
REMARK  status: ('A' for Active; 'I' for Inactive)
REMARK    1  A    between atoms: C_1  and  C_2
REMARK    2  A    between atoms: C_2  and  O_3
REMARK    3  A    between atoms: O_3  and  C_4
REMARK    4  A    between atoms: C_4  and  C_6
REMARK    5  A    between atoms: C_9  and  N_10
REMARK    6  A    between atoms: C_11  and  C_13
REMARK    7  A    between atoms: C_26  and  C_27
REMARK                            x       y       z     vdW  Elec       q    Type
REMARK                         _______ _______ _______ _____ _____    ______ ____
ROOT
ATOM      1  C   UNL     1      -0.060  10.454  19.969  0.00  0.00    +0.000 A 
ATOM      2  C   UNL     1      -0.986  10.352  19.004  0.00  0.00    +0.000 A 
ATOM      3  N   UNL     1      -1.980  11.271  18.812  0.00  0.00    +0.000 N 
ATOM      4  C   UNL     1      -2.417  12.048  19.895  0.00  0.00    +0.000 A 
ATOM      5  C   UNL     1      -3.739  12.528  19.928  0.00  0.00    +0.000 A 
ATOM      6  C   UNL     1      -4.175  13.225  21.049  0.00  0.00    +0.000 A 
ATOM      7  C   UNL     1      -3.290  13.451  22.116  0.00  0.00    +0.000 A 
ATOM      8  C   UNL     1      -1.959  12.997  22.070  0.00  0.00    +0.000 A 
ATOM      9 CL   UNL     1      -0.958  13.308  23.438  0.00  0.00    +0.000 Cl
ATOM     10  C   UNL     1      -1.522  12.276  20.961  0.00  0.00    +0.000 A 
ATOM     11  C   UNL     1      -0.144  11.695  20.791  0.00  0.00    +0.000 A 
ATOM     12  O   UNL     1       0.870  12.204  21.254  0.00  0.00    +0.000 OA
ATOM     13  O   UNL     1      -4.635  12.327  18.894  0.00  0.00    +0.000 OA
ATOM     14  C   UNL     1      -4.183  11.383  17.887  0.00  0.00    +0.000 C 
ATOM     15  C   UNL     1      -4.955  11.579  16.586  0.00  0.00    +0.000 C 
ATOM     16  C   UNL     1      -2.696  11.551  17.592  0.00  0.00    +0.000 C 
ENDROOT
BRANCH   1  18
ATOM     17  N   UNL     1       1.349   8.810  18.856  0.00  0.00    +0.000 N 
ATOM     18  C   UNL     1       0.941   9.355  20.047  0.00  0.00    +0.000 C 
ATOM     19  O   UNL     1       1.323   9.015  21.163  0.00  0.00    +0.000 OA
ATOM     20  H   UNL     1       0.900   9.147  18.009  0.00  0.00    +0.000 HD
BRANCH  17  24
ATOM     21  C   UNL     1       4.333   5.821  18.383  0.00  0.00    +0.000 A 
ATOM     22  C   UNL     1       3.425   5.722  19.431  0.00  0.00    +0.000 A 
ATOM     23  C   UNL     1       2.436   6.697  19.599  0.00  0.00    +0.000 A 
ATOM     24  C   UNL     1       2.324   7.787  18.726  0.00  0.00    +0.000 A 
ATOM     25  C   UNL     1       3.240   7.882  17.676  0.00  0.00    +0.000 A 
ATOM     26  C   UNL     1       4.229   6.904  17.501  0.00  0.00    +0.000 A 
BRANCH  21  27
ATOM     27  C   UNL     1       5.406   4.789  18.294  0.00  0.00    +0.000 C 
ATOM     28  O   UNL     1       5.607   3.930  19.161  0.00  0.00    +0.000 OA
BRANCH  27  29
ATOM     29  O   UNL     1       6.158   5.005  17.193  0.00  0.00    +0.000 OA
BRANCH  29  31
ATOM     30  C   UNL     1       5.544   4.621  14.911  0.00  0.00    +0.000 C 
ATOM     31  C   UNL     1       6.082   3.990  16.183  0.00  0.00    +0.000 C 
ENDBRANCH  29  31
ENDBRANCH  27  29
ENDBRANCH  21  27
ENDBRANCH  17  24
ENDBRANCH   1  18
TORSDOF 5
ENDMDL
MODEL 2
REMARK VINA RESULT:      -8.0      1.011      1.551
REMARK  Name = 
REMARK  7 active torsions:
REMARK  status: ('A' for Active; 'I' for Inactive)
REMARK    1  A    between atoms: C_1  and  C_2
REMARK    2  A    between atoms: C_2  and  O_3
REMARK    3  A    between atoms: O_3  and  C_4
REMARK    4  A    between atoms: C_4  and  C_6
REMARK    5  A    between atoms: C_9  and  N_10
REMARK    6  A    between atoms: C_11  and  C_13
REMARK    7  A    between atoms: C_26  and  C_27
REMARK                            x       y       z     vdW  Elec       q    Type
REMARK                         _______ _______ _______ _____ _____    ______ ____
ROOT
ATOM      1  C   UNL     1       0.031  10.377  20.060  0.00  0.00    +0.000 A 
ATOM      2  C   UNL     1      -0.853  10.251  19.058  0.00  0.00    +0.000 A 
ATOM      3  N   UNL     1      -1.827  11.172  18.791  0.00  0.00    +0.000 N 
ATOM      4  C   UNL     1      -2.302  11.990  19.827  0.00  0.00    +0.000 A 
ATOM      5  C   UNL     1      -3.619  12.484  19.785  0.00  0.00    +0.000 A 
ATOM      6  C   UNL     1      -4.096  13.223  20.860  0.00  0.00    +0.000 A 
ATOM      7  C   UNL     1      -3.258  13.477  21.958  0.00  0.00    +0.000 A 
ATOM      8  C   UNL     1      -1.931  13.009  21.987  0.00  0.00    +0.000 A 
ATOM      9 CL   UNL     1      -0.989  13.356  23.387  0.00  0.00    +0.000 Cl
ATOM     10  C   UNL     1      -1.453  12.246  20.924  0.00  0.00    +0.000 A 
ATOM     11  C   UNL     1      -0.076  11.646  20.835  0.00  0.00    +0.000 A 
ATOM     12  O   UNL     1       0.922  12.161  21.326  0.00  0.00    +0.000 OA
ATOM     13  O   UNL     1      -4.471  12.257  18.718  0.00  0.00    +0.000 OA
ATOM     14  C   UNL     1      -3.984  11.275  17.765  0.00  0.00    +0.000 C 
ATOM     15  C   UNL     1      -4.696  11.434  16.425  0.00  0.00    +0.000 C 
ATOM     16  C   UNL     1      -2.485  11.418  17.532  0.00  0.00    +0.000 C 
ENDROOT
BRANCH   1  18
ATOM     17  N   UNL     1       1.340   8.571  19.086  0.00  0.00    +0.000 N 
ATOM     18  C   UNL     1       1.014   9.272  20.220  0.00  0.00    +0.000 C 
ATOM     19  O   UNL     1       1.456   9.065  21.346  0.00  0.00    +0.000 OA
ATOM     20  H   UNL     1       0.848   8.811  18.230  0.00  0.00    +0.000 HD
BRANCH  17  24
ATOM     21  C   UNL     1       4.104   5.343  19.006  0.00  0.00    +0.000 A 
ATOM     22  C   UNL     1       4.197   6.347  18.049  0.00  0.00    +0.000 A 
ATOM     23  C   UNL     1       3.296   7.417  18.063  0.00  0.00    +0.000 A 
ATOM     24  C   UNL     1       2.288   7.515  19.031  0.00  0.00    +0.000 A 
ATOM     25  C   UNL     1       2.198   6.503  19.988  0.00  0.00    +0.000 A 
ATOM     26  C   UNL     1       3.103   5.431  19.982  0.00  0.00    +0.000 A 
BRANCH  21  27
ATOM     27  C   UNL     1       5.048   4.193  18.900  0.00  0.00    +0.000 C 
ATOM     28  O   UNL     1       6.265   4.318  18.722  0.00  0.00    +0.000 OA
BRANCH  27  29
ATOM     29  O   UNL     1       4.359   3.031  18.932  0.00  0.00    +0.000 OA
BRANCH  29  31
ATOM     30  C   UNL     1       2.317   2.292  17.924  0.00  0.00    +0.000 C 
ATOM     31  C   UNL     1       3.781   2.621  17.686  0.00  0.00    +0.000 C 
ENDBRANCH  29  31
ENDBRANCH  27  29
ENDBRANCH  21  27
ENDBRANCH  17  24
ENDBRANCH   1  18
TORSDOF 5
ENDMDL
MODEL 3
REMARK VINA RESULT:      -7.9      0.988      1.103
REMARK  Name = 
REMARK  7 active torsions:
REMARK  status: ('A' for Active; 'I' for Inactive)
REMARK    1  A    between atoms: C_1  and  C_2
REMARK    2  A    between atoms: C_2  and  O_3
REMARK    3  A    between atoms: O_3  and  C_4
REMARK    4  A    between atoms: C_4  and  C_6
REMARK    5  A    between atoms: C_9  and  N_10
REMARK    6  A    between atoms: C_11  and  C_13
REMARK    7  A    between atoms: C_26  and  C_27
REMARK                            x       y       z     vdW  Elec       q    Type
REMARK                         _______ _______ _______ _____ _____    ______ ____
ROOT
ATOM      1  C   UNL     1      -0.094  10.485  20.111  0.00  0.00    +0.000 A 
ATOM      2  C   UNL     1      -1.007  10.363  19.136  0.00  0.00    +0.000 A 
ATOM      3  N   UNL     1      -1.984  11.289  18.897  0.00  0.00    +0.000 N 
ATOM      4  C   UNL     1      -2.425  12.109  19.946  0.00  0.00    +0.000 A 
ATOM      5  C   UNL     1      -3.741  12.608  19.942  0.00  0.00    +0.000 A 
ATOM      6  C   UNL     1      -4.183  13.350  21.031  0.00  0.00    +0.000 A 
ATOM      7  C   UNL     1      -3.311  13.600  22.104  0.00  0.00    +0.000 A 
ATOM      8  C   UNL     1      -1.986  13.126  22.094  0.00  0.00    +0.000 A 
ATOM      9 CL   UNL     1      -1.002  13.469  23.466  0.00  0.00    +0.000 Cl
ATOM     10  C   UNL     1      -1.543  12.361  21.017  0.00  0.00    +0.000 A 
ATOM     11  C   UNL     1      -0.172  11.754  20.888  0.00  0.00    +0.000 A 
ATOM     12  O   UNL     1       0.842  12.265  21.349  0.00  0.00    +0.000 OA
ATOM     13  O   UNL     1      -4.624  12.385  18.902  0.00  0.00    +0.000 OA
ATOM     14  C   UNL     1      -4.171  11.401  17.934  0.00  0.00    +0.000 C 
ATOM     15  C   UNL     1      -4.921  11.563  16.616  0.00  0.00    +0.000 C 
ATOM     16  C   UNL     1      -2.678  11.537  17.658  0.00  0.00    +0.000 C 
ENDROOT
BRANCH   1  18
ATOM     17  N   UNL     1       1.232   8.719  19.087  0.00  0.00    +0.000 N 
ATOM     18  C   UNL     1       0.889   9.375  20.242  0.00  0.00    +0.000 C 
ATOM     19  O   UNL     1       1.316   9.126  21.365  0.00  0.00    +0.000 OA
ATOM     20  H   UNL     1       0.750   8.990  18.234  0.00  0.00    +0.000 HD
BRANCH  17  24
ATOM     21  C   UNL     1       4.140   5.637  18.755  0.00  0.00    +0.000 A 
ATOM     22  C   UNL     1       3.233   5.611  19.808  0.00  0.00    +0.000 A 
ATOM     23  C   UNL     1       2.268   6.617  19.930  0.00  0.00    +0.000 A 
ATOM     24  C   UNL     1       2.181   7.666  19.005  0.00  0.00    +0.000 A 
ATOM     25  C   UNL     1       3.096   7.688  17.951  0.00  0.00    +0.000 A 
ATOM     26  C   UNL     1       4.061   6.678  17.822  0.00  0.00    +0.000 A 
BRANCH  21  27
ATOM     27  C   UNL     1       5.187   4.576  18.715  0.00  0.00    +0.000 C 
ATOM     28  O   UNL     1       4.976   3.416  18.343  0.00  0.00    +0.000 OA
BRANCH  27  29
ATOM     29  O   UNL     1       6.342   5.054  19.229  0.00  0.00    +0.000 OA
BRANCH  29  31
ATOM     30  C   UNL     1       7.813   6.734  18.367  0.00  0.00    +0.000 C 
ATOM     31  C   UNL     1       7.395   5.277  18.282  0.00  0.00    +0.000 C 
ENDBRANCH  29  31
ENDBRANCH  27  29
ENDBRANCH  21  27
ENDBRANCH  17  24
ENDBRANCH   1  18
TORSDOF 5
ENDMDL
MODEL 4
REMARK VINA RESULT:      -7.9      3.682      9.763
REMARK  Name = 
REMARK  7 active torsions:
REMARK  status: ('A' for Active; 'I' for Inactive)
REMARK    1  A    between atoms: C_1  and  C_2
REMARK    2  A    between atoms: C_2  and  O_3
REMARK    3  A    between atoms: O_3  and  C_4
REMARK    4  A    between atoms: C_4  and  C_6
REMARK    5  A    between atoms: C_9  and  N_10
REMARK    6  A    between atoms: C_11  and  C_13
REMARK    7  A    between atoms: C_26  and  C_27
REMARK                            x       y       z     vdW  Elec       q    Type
REMARK                         _______ _______ _______ _____ _____    ______ ____
ROOT
ATOM      1  C   UNL     1       2.654   7.310  18.517  0.00  0.00    +0.000 A 
ATOM      2  C   UNL     1       2.075   6.545  19.455  0.00  0.00    +0.000 A 
ATOM      3  N   UNL     1       2.484   5.275  19.752  0.00  0.00    +0.000 N 
ATOM      4  C   UNL     1       3.138   4.516  18.770  0.00  0.00    +0.000 A 
ATOM      5  C   UNL     1       3.042   3.113  18.786  0.00  0.00    +0.000 A 
ATOM      6  C   UNL     1       3.629   2.385  17.758  0.00  0.00    +0.000 A 
ATOM      7  C   UNL     1       4.316   3.057  16.734  0.00  0.00    +0.000 A 
ATOM      8  C   UNL     1       4.437   4.459  16.733  0.00  0.00    +0.000 A 
ATOM      9 CL   UNL     1       5.283   5.190  15.421  0.00  0.00    +0.000 Cl
ATOM     10  C   UNL     1       3.831   5.197  17.747  0.00  0.00    +0.000 A 
ATOM     11  C   UNL     1       3.841   6.698  17.854  0.00  0.00    +0.000 A 
ATOM     12  O   UNL     1       4.767   7.400  17.465  0.00  0.00    +0.000 OA
ATOM     13  O   UNL     1       2.378   2.419  19.782  0.00  0.00    +0.000 OA
ATOM     14  C   UNL     1       1.587   3.256  20.667  0.00  0.00    +0.000 C 
ATOM     15  C   UNL     1       1.301   2.527  21.976  0.00  0.00    +0.000 C 
ATOM     16  C   UNL     1       2.307   4.560  20.991  0.00  0.00    +0.000 C 
ENDROOT
BRANCH   1  18
ATOM     17  N   UNL     1       1.498   9.258  19.406  0.00  0.00    +0.000 N 
ATOM     18  C   UNL     1       2.072   8.663  18.310  0.00  0.00    +0.000 C 
ATOM     19  O   UNL     1       2.141   9.145  17.184  0.00  0.00    +0.000 OA
ATOM     20  H   UNL     1       1.454   8.715  20.263  0.00  0.00    +0.000 HD
BRANCH  17  24
ATOM     21  C   UNL     1      -0.288  13.113  19.521  0.00  0.00    +0.000 A 
ATOM     22  C   UNL     1       0.957  12.953  18.925  0.00  0.00    +0.000 A 
ATOM     23  C   UNL     1       1.558  11.691  18.877  0.00  0.00    +0.000 A 
ATOM     24  C   UNL     1       0.930  10.559  19.416  0.00  0.00    +0.000 A 
ATOM     25  C   UNL     1      -0.319  10.726  20.015  0.00  0.00    +0.000 A 
ATOM     26  C   UNL     1      -0.927  11.989  20.059  0.00  0.00    +0.000 A 
BRANCH  21  27
ATOM     27  C   UNL     1      -0.847  14.493  19.603  0.00  0.00    +0.000 C 
ATOM     28  O   UNL     1      -1.770  14.818  20.360  0.00  0.00    +0.000 OA
BRANCH  27  29
ATOM     29  O   UNL     1      -0.263  15.279  18.672  0.00  0.00    +0.000 OA
BRANCH  29  31
ATOM     30  C   UNL     1      -0.688  17.476  17.820  0.00  0.00    +0.000 C 
ATOM     31  C   UNL     1      -0.178  16.672  19.004  0.00  0.00    +0.000 C 
ENDBRANCH  29  31
ENDBRANCH  27  29
ENDBRANCH  21  27
ENDBRANCH  17  24
ENDBRANCH   1  18
TORSDOF 5
ENDMDL
MODEL 5
REMARK VINA RESULT:      -7.7      1.590      1.972
REMARK  Name = 
REMARK  7 active torsions:
REMARK  status: ('A' for Active; 'I' for Inactive)
REMARK    1  A    between atoms: C_1  and  C_2
REMARK    2  A    between atoms: C_2  and  O_3
REMARK    3  A    between atoms: O_3  and  C_4
REMARK    4  A    between atoms: C_4  and  C_6
REMARK    5  A    between atoms: C_9  and  N_10
REMARK    6  A    between atoms: C_11  and  C_13
REMARK    7  A    between atoms: C_26  and  C_27
REMARK                            x       y       z     vdW  Elec       q    Type
REMARK                         _______ _______ _______ _____ _____    ______ ____
ROOT
ATOM      1  C   UNL     1       0.337  10.890  18.663  0.00  0.00    +0.000 A 
ATOM      2  C   UNL     1      -0.893  10.607  18.209  0.00  0.00    +0.000 A 
ATOM      3  N   UNL     1      -1.971  11.427  18.389  0.00  0.00    +0.000 N 
ATOM      4  C   UNL     1      -1.992  12.305  19.483  0.00  0.00    +0.000 A 
ATOM      5  C   UNL     1      -3.220  12.698  20.045  0.00  0.00    +0.000 A 
ATOM      6  C   UNL     1      -3.216  13.502  21.179  0.00  0.00    +0.000 A 
ATOM      7  C   UNL     1      -1.994  13.918  21.733  0.00  0.00    +0.000 A 
ATOM      8  C   UNL     1      -0.767  13.550  21.153  0.00  0.00    +0.000 A 
ATOM      9 CL   UNL     1       0.678  14.096  21.919  0.00  0.00    +0.000 Cl
ATOM     10  C   UNL     1      -0.762  12.724  20.031  0.00  0.00    +0.000 A 
ATOM     11  C   UNL     1       0.470  12.217  19.330  0.00  0.00    +0.000 A 
ATOM     12  O   UNL     1       1.519  12.846  19.262  0.00  0.00    +0.000 OA
ATOM     13  O   UNL     1      -4.442  12.311  19.524  0.00  0.00    +0.000 OA
ATOM     14  C   UNL     1      -4.355  11.278  18.505  0.00  0.00    +0.000 C 
ATOM     15  C   UNL     1      -5.623  11.258  17.657  0.00  0.00    +0.000 C 
ATOM     16  C   UNL     1      -3.163  11.505  17.582  0.00  0.00    +0.000 C 
ENDROOT
BRANCH   1  18
ATOM     17  N   UNL     1       1.346   8.728  19.141  0.00  0.00    +0.000 N 
ATOM     18  C   UNL     1       1.394   9.878  18.394  0.00  0.00    +0.000 C 
ATOM     19  O   UNL     1       2.228  10.143  17.534  0.00  0.00    +0.000 OA
ATOM     20  H   UNL     1       0.636   8.669  19.865  0.00  0.00    +0.000 HD
BRANCH  17  24
ATOM     21  C   UNL     1       3.956   5.389  18.812  0.00  0.00    +0.000 A 
ATOM     22  C   UNL     1       3.940   6.348  17.805  0.00  0.00    +0.000 A 
ATOM     23  C   UNL     1       3.088   7.453  17.899  0.00  0.00    +0.000 A 
ATOM     24  C   UNL     1       2.239   7.633  18.999  0.00  0.00    +0.000 A 
ATOM     25  C   UNL     1       2.257   6.666  20.006  0.00  0.00    +0.000 A 
ATOM     26  C   UNL     1       3.114   5.559  19.918  0.00  0.00    +0.000 A 
BRANCH  21  27
ATOM     27  C   UNL     1       4.835   4.199  18.624  0.00  0.00    +0.000 C 
ATOM     28  O   UNL     1       5.931   4.059  19.179  0.00  0.00    +0.000 OA
BRANCH  27  29
ATOM     29  O   UNL     1       4.295   3.373  17.700  0.00  0.00    +0.000 OA
BRANCH  29  31
ATOM     30  C   UNL     1       2.139   2.365  17.956  0.00  0.00    +0.000 C 
ATOM     31  C   UNL     1       3.627   2.217  18.221  0.00  0.00    +0.000 C 
ENDBRANCH  29  31
ENDBRANCH  27  29
ENDBRANCH  21  27
ENDBRANCH  17  24
ENDBRANCH   1  18
TORSDOF 5
ENDMDL
MODEL 6
REMARK VINA RESULT:      -7.7      3.329      9.800
REMARK  Name = 
REMARK  7 active torsions:
REMARK  status: ('A' for Active; 'I' for Inactive)
REMARK    1  A    between atoms: C_1  and  C_2
REMARK    2  A    between atoms: C_2  and  O_3
REMARK    3  A    between atoms: O_3  and  C_4
REMARK    4  A    between atoms: C_4  and  C_6
REMARK    5  A    between atoms: C_9  and  N_10
REMARK    6  A    between atoms: C_11  and  C_13
REMARK    7  A    between atoms: C_26  and  C_27
REMARK                            x       y       z     vdW  Elec       q    Type
REMARK                         _______ _______ _______ _____ _____    ______ ____
ROOT
ATOM      1  C   UNL     1       2.584   7.387  18.602  0.00  0.00    +0.000 A 
ATOM      2  C   UNL     1       2.036   6.574  19.518  0.00  0.00    +0.000 A 
ATOM      3  N   UNL     1       2.490   5.311  19.774  0.00  0.00    +0.000 N 
ATOM      4  C   UNL     1       3.166   4.606  18.767  0.00  0.00    +0.000 A 
ATOM      5  C   UNL     1       3.118   3.200  18.740  0.00  0.00    +0.000 A 
ATOM      6  C   UNL     1       3.725   2.525  17.687  0.00  0.00    +0.000 A 
ATOM      7  C   UNL     1       4.383   3.252  16.681  0.00  0.00    +0.000 A 
ATOM      8  C   UNL     1       4.456   4.656  16.724  0.00  0.00    +0.000 A 
ATOM      9 CL   UNL     1       5.270   5.456  15.433  0.00  0.00    +0.000 Cl
ATOM     10  C   UNL     1       3.830   5.341  17.763  0.00  0.00    +0.000 A 
ATOM     11  C   UNL     1       3.788   6.837  17.917  0.00  0.00    +0.000 A 
ATOM     12  O   UNL     1       4.688   7.583  17.546  0.00  0.00    +0.000 OA
ATOM     13  O   UNL     1       2.483   2.452  19.715  0.00  0.00    +0.000 OA
ATOM     14  C   UNL     1       1.668   3.234  20.629  0.00  0.00    +0.000 C 
ATOM     15  C   UNL     1       1.414   2.455  21.916  0.00  0.00    +0.000 C 
ATOM     16  C   UNL     1       2.344   4.552  20.991  0.00  0.00    +0.000 C 
ENDROOT
BRANCH   1  18
ATOM     17  N   UNL     1       1.354   9.260  19.553  0.00  0.00    +0.000 N 
ATOM     18  C   UNL     1       1.954   8.725  18.440  0.00  0.00    +0.000 C 
ATOM     19  O   UNL     1       2.011   9.248  17.332  0.00  0.00    +0.000 OA
ATOM     20  H   UNL     1       1.326   8.686  20.390  0.00  0.00    +0.000 HD
BRANCH  17  24
ATOM     21  C   UNL     1      -0.589  13.035  19.760  0.00  0.00    +0.000 A 
ATOM     22  C   UNL     1       0.779  12.981  19.517  0.00  0.00    +0.000 A 
ATOM     23  C   UNL     1       1.433  11.747  19.444  0.00  0.00    +0.000 A 
ATOM     24  C   UNL     1       0.741  10.539  19.605  0.00  0.00    +0.000 A 
ATOM     25  C   UNL     1      -0.632  10.599  19.851  0.00  0.00    +0.000 A 
ATOM     26  C   UNL     1      -1.293  11.834  19.919  0.00  0.00    +0.000 A 
BRANCH  21  27
ATOM     27  C   UNL     1      -1.218  14.380  19.895  0.00  0.00    +0.000 C 
ATOM     28  O   UNL     1      -0.751  15.410  19.395  0.00  0.00    +0.000 OA
BRANCH  27  29
ATOM     29  O   UNL     1      -2.293  14.302  20.709  0.00  0.00    +0.000 OA
BRANCH  29  31
ATOM     30  C   UNL     1      -2.544  13.735  23.022  0.00  0.00    +0.000 C 
ATOM     31  C   UNL     1      -2.100  14.804  22.038  0.00  0.00    +0.000 C 
ENDBRANCH  29  31
ENDBRANCH  27  29
ENDBRANCH  21  27
ENDBRANCH  17  24
ENDBRANCH   1  18
TORSDOF 5
ENDMDL
MODEL 7
REMARK VINA RESULT:      -7.6      1.257      1.271
REMARK  Name = 
REMARK  7 active torsions:
REMARK  status: ('A' for Active; 'I' for Inactive)
REMARK    1  A    between atoms: C_1  and  C_2
REMARK    2  A    between atoms: C_2  and  O_3
REMARK    3  A    between atoms: O_3  and  C_4
REMARK    4  A    between atoms: C_4  and  C_6
REMARK    5  A    between atoms: C_9  and  N_10
REMARK    6  A    between atoms: C_11  and  C_13
REMARK    7  A    between atoms: C_26  and  C_27
REMARK                            x       y       z     vdW  Elec       q    Type
REMARK                         _______ _______ _______ _____ _____    ______ ____
ROOT
ATOM      1  C   UNL     1       0.313  10.934  18.655  0.00  0.00    +0.000 A 
ATOM      2  C   UNL     1      -0.908  10.645  18.181  0.00  0.00    +0.000 A 
ATOM      3  N   UNL     1      -2.002  11.440  18.377  0.00  0.00    +0.000 N 
ATOM      4  C   UNL     1      -2.047  12.283  19.498  0.00  0.00    +0.000 A 
ATOM      5  C   UNL     1      -3.286  12.638  20.062  0.00  0.00    +0.000 A 
ATOM      6  C   UNL     1      -3.304  13.406  21.220  0.00  0.00    +0.000 A 
ATOM      7  C   UNL     1      -2.094  13.825  21.797  0.00  0.00    +0.000 A 
ATOM      8  C   UNL     1      -0.856  13.496  21.216  0.00  0.00    +0.000 A 
ATOM      9 CL   UNL     1       0.572  14.042  22.011  0.00  0.00    +0.000 Cl
ATOM     10  C   UNL     1      -0.828  12.706  20.069  0.00  0.00    +0.000 A 
ATOM     11  C   UNL     1       0.417  12.241  19.364  0.00  0.00    +0.000 A 
ATOM     12  O   UNL     1       1.457  12.890  19.324  0.00  0.00    +0.000 OA
ATOM     13  O   UNL     1      -4.496  12.246  19.518  0.00  0.00    +0.000 OA
ATOM     14  C   UNL     1      -4.384  11.247  18.469  0.00  0.00    +0.000 C 
ATOM     15  C   UNL     1      -5.644  11.232  17.610  0.00  0.00    +0.000 C 
ATOM     16  C   UNL     1      -3.188  11.522  17.563  0.00  0.00    +0.000 C 
ENDROOT
BRANCH   1  18
ATOM     17  N   UNL     1       1.358   8.777  19.077  0.00  0.00    +0.000 N 
ATOM     18  C   UNL     1       1.390   9.949  18.363  0.00  0.00    +0.000 C 
ATOM     19  O   UNL     1       2.224  10.253  17.517  0.00  0.00    +0.000 OA
ATOM     20  H   UNL     1       0.644   8.685  19.794  0.00  0.00    +0.000 HD
BRANCH  17  24
ATOM     21  C   UNL     1       4.147   5.626  18.479  0.00  0.00    +0.000 A 
ATOM     22  C   UNL     1       3.359   5.634  19.624  0.00  0.00    +0.000 A 
ATOM     23  C   UNL     1       2.435   6.663  19.835  0.00  0.00    +0.000 A 
ATOM     24  C   UNL     1       2.270   7.702  18.909  0.00  0.00    +0.000 A 
ATOM     25  C   UNL     1       3.066   7.690  17.762  0.00  0.00    +0.000 A 
ATOM     26  C   UNL     1       3.990   6.657  17.544  0.00  0.00    +0.000 A 
BRANCH  21  27
ATOM     27  C   UNL     1       5.162   4.541  18.342  0.00  0.00    +0.000 C 
ATOM     28  O   UNL     1       5.685   3.965  19.303  0.00  0.00    +0.000 OA
BRANCH  27  29
ATOM     29  O   UNL     1       5.474   4.369  17.039  0.00  0.00    +0.000 OA
BRANCH  29  31
ATOM     30  C   UNL     1       6.984   4.709  15.212  0.00  0.00    +0.000 C 
ATOM     31  C   UNL     1       6.863   4.510  16.713  0.00  0.00    +0.000 C 
ENDBRANCH  29  31
ENDBRANCH  27  29
ENDBRANCH  21  27
ENDBRANCH  17  24
ENDBRANCH   1  18
TORSDOF 5
ENDMDL
MODEL 8
REMARK VINA RESULT:      -7.5      1.528      1.861
REMARK  Name = 
REMARK  7 active torsions:
REMARK  status: ('A' for Active; 'I' for Inactive)
REMARK    1  A    between atoms: C_1  and  C_2
REMARK    2  A    between atoms: C_2  and  O_3
REMARK    3  A    between atoms: O_3  and  C_4
REMARK    4  A    between atoms: C_4  and  C_6
REMARK    5  A    between atoms: C_9  and  N_10
REMARK    6  A    between atoms: C_11  and  C_13
REMARK    7  A    between atoms: C_26  and  C_27
REMARK                            x       y       z     vdW  Elec       q    Type
REMARK                         _______ _______ _______ _____ _____    ______ ____
ROOT
ATOM      1  C   UNL     1       0.343  10.875  18.628  0.00  0.00    +0.000 A 
ATOM      2  C   UNL     1      -0.888  10.603  18.168  0.00  0.00    +0.000 A 
ATOM      3  N   UNL     1      -1.962  11.428  18.352  0.00  0.00    +0.000 N 
ATOM      4  C   UNL     1      -1.980  12.297  19.453  0.00  0.00    +0.000 A 
ATOM      5  C   UNL     1      -3.208  12.692  20.016  0.00  0.00    +0.000 A 
ATOM      6  C   UNL     1      -3.202  13.487  21.157  0.00  0.00    +0.000 A 
ATOM      7  C   UNL     1      -1.979  13.891  21.717  0.00  0.00    +0.000 A 
ATOM      8  C   UNL     1      -0.752  13.520  21.137  0.00  0.00    +0.000 A 
ATOM      9 CL   UNL     1       0.693  14.051  21.911  0.00  0.00    +0.000 Cl
ATOM     10  C   UNL     1      -0.749  12.704  20.008  0.00  0.00    +0.000 A 
ATOM     11  C   UNL     1       0.481  12.195  19.307  0.00  0.00    +0.000 A 
ATOM     12  O   UNL     1       1.535  12.818  19.246  0.00  0.00    +0.000 OA
ATOM     13  O   UNL     1      -4.430  12.316  19.488  0.00  0.00    +0.000 OA
ATOM     14  C   UNL     1      -4.347  11.292  18.461  0.00  0.00    +0.000 C 
ATOM     15  C   UNL     1      -5.613  11.286  17.610  0.00  0.00    +0.000 C 
ATOM     16  C   UNL     1      -3.151  11.519  17.543  0.00  0.00    +0.000 C 
ENDROOT
BRANCH   1  18
ATOM     17  N   UNL     1       1.346   8.709  19.102  0.00  0.00    +0.000 N 
ATOM     18  C   UNL     1       1.394   9.858  18.354  0.00  0.00    +0.000 C 
ATOM     19  O   UNL     1       2.224  10.120  17.488  0.00  0.00    +0.000 OA
ATOM     20  H   UNL     1       0.640   8.653  19.830  0.00  0.00    +0.000 HD
BRANCH  17  24
ATOM     21  C   UNL     1       3.944   5.361  18.761  0.00  0.00    +0.000 A 
ATOM     22  C   UNL     1       3.907   6.305  17.741  0.00  0.00    +0.000 A 
ATOM     23  C   UNL     1       3.059   7.414  17.839  0.00  0.00    +0.000 A 
ATOM     24  C   UNL     1       2.234   7.610  18.955  0.00  0.00    +0.000 A 
ATOM     25  C   UNL     1       2.274   6.658  19.975  0.00  0.00    +0.000 A 
ATOM     26  C   UNL     1       3.128   5.549  19.883  0.00  0.00    +0.000 A 
BRANCH  21  27
ATOM     27  C   UNL     1       4.817   4.167  18.570  0.00  0.00    +0.000 C 
ATOM     28  O   UNL     1       4.521   3.209  17.846  0.00  0.00    +0.000 OA
BRANCH  27  29
ATOM     29  O   UNL     1       5.901   4.260  19.370  0.00  0.00    +0.000 OA
BRANCH  29  31
ATOM     30  C   UNL     1       7.649   4.901  17.864  0.00  0.00    +0.000 C 
ATOM     31  C   UNL     1       6.811   5.324  19.058  0.00  0.00    +0.000 C 
ENDBRANCH  29  31
ENDBRANCH  27  29
ENDBRANCH  21  27
ENDBRANCH  17  24
ENDBRANCH   1  18
TORSDOF 5
ENDMDL
MODEL 9
REMARK VINA RESULT:      -7.5      0.901      1.240
REMARK  Name = 
REMARK  7 active torsions:
REMARK  status: ('A' for Active; 'I' for Inactive)
REMARK    1  A    between atoms: C_1  and  C_2
REMARK    2  A    between atoms: C_2  and  O_3
REMARK    3  A    between atoms: O_3  and  C_4
REMARK    4  A    between atoms: C_4  and  C_6
REMARK    5  A    between atoms: C_9  and  N_10
REMARK    6  A    between atoms: C_11  and  C_13
REMARK    7  A    between atoms: C_26  and  C_27
REMARK                            x       y       z     vdW  Elec       q    Type
REMARK                         _______ _______ _______ _____ _____    ______ ____
ROOT
ATOM      1  C   UNL     1       0.264  10.053  19.417  0.00  0.00    +0.000 A 
ATOM      2  C   UNL     1      -0.608  10.030  18.398  0.00  0.00    +0.000 A 
ATOM      3  N   UNL     1      -1.607  10.949  18.238  0.00  0.00    +0.000 N 
ATOM      4  C   UNL     1      -2.114  11.617  19.362  0.00  0.00    +0.000 A 
ATOM      5  C   UNL     1      -3.444  12.074  19.368  0.00  0.00    +0.000 A 
ATOM      6  C   UNL     1      -3.951  12.659  20.522  0.00  0.00    +0.000 A 
ATOM      7  C   UNL     1      -3.129  12.796  21.652  0.00  0.00    +0.000 A 
ATOM      8  C   UNL     1      -1.789  12.366  21.637  0.00  0.00    +0.000 A 
ATOM      9 CL   UNL     1      -0.868  12.561  23.080  0.00  0.00    +0.000 Cl
ATOM     10  C   UNL     1      -1.281  11.757  20.492  0.00  0.00    +0.000 A 
ATOM     11  C   UNL     1       0.114  11.211  20.344  0.00  0.00    +0.000 A 
ATOM     12  O   UNL     1       1.093  11.688  20.907  0.00  0.00    +0.000 OA
ATOM     13  O   UNL     1      -4.281  11.959  18.272  0.00  0.00    +0.000 OA
ATOM     14  C   UNL     1      -3.759  11.119  17.208  0.00  0.00    +0.000 C 
ATOM     15  C   UNL     1      -4.465  11.425  15.891  0.00  0.00    +0.000 C 
ATOM     16  C   UNL     1      -2.262  11.333  17.012  0.00  0.00    +0.000 C 
ENDROOT
BRANCH   1  18
ATOM     17  N   UNL     1       1.741   8.522  18.235  0.00  0.00    +0.000 N 
ATOM     18  C   UNL     1       1.278   8.965  19.449  0.00  0.00    +0.000 C 
ATOM     19  O   UNL     1       1.622   8.542  20.548  0.00  0.00    +0.000 OA
ATOM     20  H   UNL     1       1.319   8.920  17.401  0.00  0.00    +0.000 HD
BRANCH  17  24
ATOM     21  C   UNL     1       4.632   5.447  17.735  0.00  0.00    +0.000 A 
ATOM     22  C   UNL     1       4.970   6.760  17.431  0.00  0.00    +0.000 A 
ATOM     23  C   UNL     1       4.031   7.784  17.592  0.00  0.00    +0.000 A 
ATOM     24  C   UNL     1       2.737   7.525  18.064  0.00  0.00    +0.000 A 
ATOM     25  C   UNL     1       2.402   6.204  18.365  0.00  0.00    +0.000 A 
ATOM     26  C   UNL     1       3.343   5.175  18.211  0.00  0.00    +0.000 A 
BRANCH  21  27
ATOM     27  C   UNL     1       5.652   4.390  17.478  0.00  0.00    +0.000 C 
ATOM     28  O   UNL     1       6.681   4.251  18.149  0.00  0.00    +0.000 OA
BRANCH  27  29
ATOM     29  O   UNL     1       5.322   3.695  16.368  0.00  0.00    +0.000 OA
BRANCH  29  31
ATOM     30  C   UNL     1       6.690   4.358  14.518  0.00  0.00    +0.000 C 
ATOM     31  C   UNL     1       5.311   4.448  15.148  0.00  0.00    +0.000 C 
ENDBRANCH  29  31
ENDBRANCH  27  29
ENDBRANCH  21  27
ENDBRANCH  17  24
ENDBRANCH   1  18
TORSDOF 5
ENDMDL
