MODEL 1
REMARK VINA RESULT:      -7.1      0.000      0.000
REMARK  Name = 
REMARK  11 active torsions:
REMARK  status: ('A' for Active; 'I' for Inactive)
REMARK    1  A    between atoms: C_1  and  C_2
REMARK    2  A    between atoms: C_2  and  O_3
REMARK    3  A    between atoms: O_3  and  C_4
REMARK    4  A    between atoms: C_4  and  C_6
REMARK    5  A    between atoms: C_6  and  N_7
REMARK    6  A    between atoms: N_7  and  C_19
REMARK    7  A    between atoms: C_8  and  C_10
REMARK    8  A    between atoms: C_15  and  N_16
REMARK    9  A    between atoms: C_19  and  C_20
REMARK   10  A    between atoms: C_19  and  C_21
REMARK   11  A    between atoms: C_19  and  C_22
REMARK                            x       y       z     vdW  Elec       q    Type
REMARK                         _______ _______ _______ _____ _____    ______ ____
ROOT
ATOM      1  N   UNL     1       5.467   4.526  16.979  0.00  0.00    +0.000 N 
ATOM      2  C   UNL     1       4.054   4.435  17.217  0.00  0.00    +0.000 C 
ATOM      3  O   UNL     1       3.405   3.627  16.558  0.00  0.00    +0.000 OA
ENDROOT
BRANCH   2   4
ATOM      4  C   UNL     1       3.254   5.243  18.246  0.00  0.00    +0.000 A 
ATOM      5  C   UNL     1       2.974   6.614  18.137  0.00  0.00    +0.000 A 
ATOM      6  C   UNL     1       2.327   7.388  19.107  0.00  0.00    +0.000 A 
ATOM      7  C   UNL     1       1.884   6.802  20.267  0.00  0.00    +0.000 A 
ATOM      8  C   UNL     1       2.073   5.435  20.425  0.00  0.00    +0.000 A 
ATOM      9  C   UNL     1       2.742   4.675  19.427  0.00  0.00    +0.000 A 
BRANCH   9  10
ATOM     10  N   UNL     1       2.850   3.262  19.726  0.00  0.00    +0.000 N 
ATOM     11  O   UNL     1       3.946   2.865  20.152  0.00  0.00    +0.000 OA
ATOM     12  O   UNL     1       1.906   2.541  19.369  0.00  0.00    +0.000 OA
ENDBRANCH   9  10
ENDBRANCH   2   4
BRANCH   1  13
ATOM     13  C   UNL     1       6.488   5.295  17.764  0.00  0.00    +0.000 C 
ATOM     14  C   UNL     1       6.257   5.383  19.302  0.00  0.00    +0.000 C 
ATOM     15  C   UNL     1       7.847   4.535  17.685  0.00  0.00    +0.000 C 
ATOM     16  C   UNL     1       6.422   6.795  17.351  0.00  0.00    +0.000 C 
ENDBRANCH   1  13
BRANCH   1  17
ATOM     17  C   UNL     1       5.981   3.717  15.840  0.00  0.00    +0.000 C 
BRANCH  17  18
ATOM     18  C   UNL     1       6.114   4.437  14.495  0.00  0.00    +0.000 C 
ATOM     19  O   UNL     1       6.957   5.302  14.279  0.00  0.00    +0.000 OA
BRANCH  18  20
ATOM     20  O   UNL     1       5.156   4.048  13.610  0.00  0.00    +0.000 OA
BRANCH  20  22
ATOM     21  C   UNL     1       4.460   3.198  11.457  0.00  0.00    +0.000 C 
ATOM     22  C   UNL     1       5.620   3.416  12.409  0.00  0.00    +0.000 C 
ENDBRANCH  20  22
ENDBRANCH  18  20
ENDBRANCH  17  18
ENDBRANCH   1  17
TORSDOF 7
ENDMDL
MODEL 2
REMARK VINA RESULT:      -7.0      2.404      4.083
REMARK  Name = 
REMARK  11 active torsions:
REMARK  status: ('A' for Active; 'I' for Inactive)
REMARK    1  A    between atoms: C_1  and  C_2
REMARK    2  A    between atoms: C_2  and  O_3
REMARK    3  A    between atoms: O_3  and  C_4
REMARK    4  A    between atoms: C_4  and  C_6
REMARK    5  A    between atoms: C_6  and  N_7
REMARK    6  A    between atoms: N_7  and  C_19
REMARK    7  A    between atoms: C_8  and  C_10
REMARK    8  A    between atoms: C_15  and  N_16
REMARK    9  A    between atoms: C_19  and  C_20
REMARK   10  A    between atoms: C_19  and  C_21
REMARK   11  A    between atoms: C_19  and  C_22
REMARK                            x       y       z     vdW  Elec       q    Type
REMARK                         _______ _______ _______ _____ _____    ______ ____
ROOT
ATOM      1  N   UNL     1       5.721   5.051  17.836  0.00  0.00    +0.000 N 
ATOM      2  C   UNL     1       5.317   4.719  19.172  0.00  0.00    +0.000 C 
ATOM      3  O   UNL     1       6.181   4.662  20.044  0.00  0.00    +0.000 OA
ENDROOT
BRANCH   2   4
ATOM      4  C   UNL     1       3.885   4.440  19.645  0.00  0.00    +0.000 A 
ATOM      5  C   UNL     1       2.935   5.433  19.933  0.00  0.00    +0.000 A 
ATOM      6  C   UNL     1       1.656   5.204  20.453  0.00  0.00    +0.000 A 
ATOM      7  C   UNL     1       1.235   3.919  20.692  0.00  0.00    +0.000 A 
ATOM      8  C   UNL     1       2.097   2.877  20.380  0.00  0.00    +0.000 A 
ATOM      9  C   UNL     1       3.395   3.139  19.861  0.00  0.00    +0.000 A 
BRANCH   9  10
ATOM     10  N   UNL     1       4.173   1.952  19.569  0.00  0.00    +0.000 N 
ATOM     11  O   UNL     1       3.796   1.263  18.609  0.00  0.00    +0.000 OA
ATOM     12  O   UNL     1       5.034   1.630  20.401  0.00  0.00    +0.000 OA
ENDBRANCH   9  10
ENDBRANCH   2   4
BRANCH   1  13
ATOM     13  C   UNL     1       4.847   5.351  16.655  0.00  0.00    +0.000 C 
ATOM     14  C   UNL     1       5.563   5.475  15.276  0.00  0.00    +0.000 C 
ATOM     15  C   UNL     1       3.902   4.133  16.418  0.00  0.00    +0.000 C 
ATOM     16  C   UNL     1       4.238   6.774  16.821  0.00  0.00    +0.000 C 
ENDBRANCH   1  13
BRANCH   1  17
ATOM     17  C   UNL     1       7.189   5.157  17.615  0.00  0.00    +0.000 C 
BRANCH  17  18
ATOM     18  C   UNL     1       7.857   6.459  18.068  0.00  0.00    +0.000 C 
ATOM     19  O   UNL     1       8.376   6.599  19.171  0.00  0.00    +0.000 OA
BRANCH  18  20
ATOM     20  O   UNL     1       7.745   7.442  17.132  0.00  0.00    +0.000 OA
BRANCH  20  22
ATOM     21  C   UNL     1       8.501   9.539  18.068  0.00  0.00    +0.000 C 
ATOM     22  C   UNL     1       7.309   8.724  17.607  0.00  0.00    +0.000 C 
ENDBRANCH  20  22
ENDBRANCH  18  20
ENDBRANCH  17  18
ENDBRANCH   1  17
TORSDOF 7
ENDMDL
MODEL 3
REMARK VINA RESULT:      -6.9      0.244      1.165
REMARK  Name = 
REMARK  11 active torsions:
REMARK  status: ('A' for Active; 'I' for Inactive)
REMARK    1  A    between atoms: C_1  and  C_2
REMARK    2  A    between atoms: C_2  and  O_3
REMARK    3  A    between atoms: O_3  and  C_4
REMARK    4  A    between atoms: C_4  and  C_6
REMARK    5  A    between atoms: C_6  and  N_7
REMARK    6  A    between atoms: N_7  and  C_19
REMARK    7  A    between atoms: C_8  and  C_10
REMARK    8  A    between atoms: C_15  and  N_16
REMARK    9  A    between atoms: C_19  and  C_20
REMARK   10  A    between atoms: C_19  and  C_21
REMARK   11  A    between atoms: C_19  and  C_22
REMARK                            x       y       z     vdW  Elec       q    Type
REMARK                         _______ _______ _______ _____ _____    ______ ____
ROOT
ATOM      1  N   UNL     1       5.385   4.578  17.055  0.00  0.00    +0.000 N 
ATOM      2  C   UNL     1       3.962   4.562  17.239  0.00  0.00    +0.000 C 
ATOM      3  O   UNL     1       3.295   3.796  16.549  0.00  0.00    +0.000 OA
ENDROOT
BRANCH   2   4
ATOM      4  C   UNL     1       3.168   5.405  18.244  0.00  0.00    +0.000 A 
ATOM      5  C   UNL     1       2.996   6.796  18.156  0.00  0.00    +0.000 A 
ATOM      6  C   UNL     1       2.356   7.595  19.110  0.00  0.00    +0.000 A 
ATOM      7  C   UNL     1       1.807   7.018  20.229  0.00  0.00    +0.000 A 
ATOM      8  C   UNL     1       1.886   5.638  20.362  0.00  0.00    +0.000 A 
ATOM      9  C   UNL     1       2.552   4.852  19.381  0.00  0.00    +0.000 A 
BRANCH   9  10
ATOM     10  N   UNL     1       2.538   3.428  19.649  0.00  0.00    +0.000 N 
ATOM     11  O   UNL     1       1.498   2.817  19.359  0.00  0.00    +0.000 OA
ATOM     12  O   UNL     1       3.490   2.973  20.301  0.00  0.00    +0.000 OA
ENDBRANCH   9  10
ENDBRANCH   2   4
BRANCH   1  13
ATOM     13  C   UNL     1       6.416   5.285  17.885  0.00  0.00    +0.000 C 
ATOM     14  C   UNL     1       7.871   4.734  17.798  0.00  0.00    +0.000 C 
ATOM     15  C   UNL     1       6.586   6.733  17.332  0.00  0.00    +0.000 C 
ATOM     16  C   UNL     1       6.089   5.071  19.392  0.00  0.00    +0.000 C 
ENDBRANCH   1  13
BRANCH   1  17
ATOM     17  C   UNL     1       5.897   3.750  15.929  0.00  0.00    +0.000 C 
BRANCH  17  18
ATOM     18  C   UNL     1       6.075   4.461  14.584  0.00  0.00    +0.000 C 
ATOM     19  O   UNL     1       6.932   5.316  14.385  0.00  0.00    +0.000 OA
BRANCH  18  20
ATOM     20  O   UNL     1       5.137   4.076  13.675  0.00  0.00    +0.000 OA
BRANCH  20  22
ATOM     21  C   UNL     1       4.510   3.218  11.504  0.00  0.00    +0.000 C 
ATOM     22  C   UNL     1       5.621   3.367  12.525  0.00  0.00    +0.000 C 
ENDBRANCH  20  22
ENDBRANCH  18  20
ENDBRANCH  17  18
ENDBRANCH   1  17
TORSDOF 7
ENDMDL
MODEL 4
REMARK VINA RESULT:      -6.8      1.783      3.062
REMARK  Name = 
REMARK  11 active torsions:
REMARK  status: ('A' for Active; 'I' for Inactive)
REMARK    1  A    between atoms: C_1  and  C_2
REMARK    2  A    between atoms: C_2  and  O_3
REMARK    3  A    between atoms: O_3  and  C_4
REMARK    4  A    between atoms: C_4  and  C_6
REMARK    5  A    between atoms: C_6  and  N_7
REMARK    6  A    between atoms: N_7  and  C_19
REMARK    7  A    between atoms: C_8  and  C_10
REMARK    8  A    between atoms: C_15  and  N_16
REMARK    9  A    between atoms: C_19  and  C_20
REMARK   10  A    between atoms: C_19  and  C_21
REMARK   11  A    between atoms: C_19  and  C_22
REMARK                            x       y       z     vdW  Elec       q    Type
REMARK                         _______ _______ _______ _____ _____    ______ ____
ROOT
ATOM      1  N   UNL     1       5.341   5.644  18.094  0.00  0.00    +0.000 N 
ATOM      2  C   UNL     1       5.092   4.980  19.341  0.00  0.00    +0.000 C 
ATOM      3  O   UNL     1       6.038   4.800  20.104  0.00  0.00    +0.000 OA
ENDROOT
BRANCH   2   4
ATOM      4  C   UNL     1       3.733   4.478  19.846  0.00  0.00    +0.000 A 
ATOM      5  C   UNL     1       2.681   5.310  20.258  0.00  0.00    +0.000 A 
ATOM      6  C   UNL     1       1.470   4.873  20.808  0.00  0.00    +0.000 A 
ATOM      7  C   UNL     1       1.230   3.529  20.951  0.00  0.00    +0.000 A 
ATOM      8  C   UNL     1       2.201   2.638  20.514  0.00  0.00    +0.000 A 
ATOM      9  C   UNL     1       3.426   3.111  19.968  0.00  0.00    +0.000 A 
BRANCH   9  10
ATOM     10  N   UNL     1       4.333   2.064  19.542  0.00  0.00    +0.000 N 
ATOM     11  O   UNL     1       4.084   1.520  18.454  0.00  0.00    +0.000 OA
ATOM     12  O   UNL     1       5.171   1.680  20.371  0.00  0.00    +0.000 OA
ENDBRANCH   9  10
ENDBRANCH   2   4
BRANCH   1  13
ATOM     13  C   UNL     1       4.339   6.130  17.089  0.00  0.00    +0.000 C 
ATOM     14  C   UNL     1       4.914   6.748  15.779  0.00  0.00    +0.000 C 
ATOM     15  C   UNL     1       3.550   4.901  16.545  0.00  0.00    +0.000 C 
ATOM     16  C   UNL     1       3.561   7.337  17.690  0.00  0.00    +0.000 C 
ENDBRANCH   1  13
BRANCH   1  17
ATOM     17  C   UNL     1       6.771   5.924  17.789  0.00  0.00    +0.000 C 
BRANCH  17  18
ATOM     18  C   UNL     1       7.572   4.782  17.157  0.00  0.00    +0.000 C 
ATOM     19  O   UNL     1       8.318   4.050  17.800  0.00  0.00    +0.000 OA
BRANCH  18  20
ATOM     20  O   UNL     1       7.402   4.725  15.808  0.00  0.00    +0.000 OA
BRANCH  20  22
ATOM     21  C   UNL     1       6.228   3.915  13.856  0.00  0.00    +0.000 C 
ATOM     22  C   UNL     1       6.549   3.680  15.319  0.00  0.00    +0.000 C 
ENDBRANCH  20  22
ENDBRANCH  18  20
ENDBRANCH  17  18
ENDBRANCH   1  17
TORSDOF 7
ENDMDL
MODEL 5
REMARK VINA RESULT:      -6.8      2.138      4.007
REMARK  Name = 
REMARK  11 active torsions:
REMARK  status: ('A' for Active; 'I' for Inactive)
REMARK    1  A    between atoms: C_1  and  C_2
REMARK    2  A    between atoms: C_2  and  O_3
REMARK    3  A    between atoms: O_3  and  C_4
REMARK    4  A    between atoms: C_4  and  C_6
REMARK    5  A    between atoms: C_6  and  N_7
REMARK    6  A    between atoms: N_7  and  C_19
REMARK    7  A    between atoms: C_8  and  C_10
REMARK    8  A    between atoms: C_15  and  N_16
REMARK    9  A    between atoms: C_19  and  C_20
REMARK   10  A    between atoms: C_19  and  C_21
REMARK   11  A    between atoms: C_19  and  C_22
REMARK                            x       y       z     vdW  Elec       q    Type
REMARK                         _______ _______ _______ _____ _____    ______ ____
ROOT
ATOM      1  N   UNL     1       5.715   4.762  17.866  0.00  0.00    +0.000 N 
ATOM      2  C   UNL     1       5.301   4.653  19.235  0.00  0.00    +0.000 C 
ATOM      3  O   UNL     1       6.145   4.812  20.113  0.00  0.00    +0.000 OA
ENDROOT
BRANCH   2   4
ATOM      4  C   UNL     1       3.877   4.374  19.733  0.00  0.00    +0.000 A 
ATOM      5  C   UNL     1       2.907   5.362  19.967  0.00  0.00    +0.000 A 
ATOM      6  C   UNL     1       1.637   5.138  20.508  0.00  0.00    +0.000 A 
ATOM      7  C   UNL     1       1.244   3.862  20.828  0.00  0.00    +0.000 A 
ATOM      8  C   UNL     1       2.127   2.821  20.574  0.00  0.00    +0.000 A 
ATOM      9  C   UNL     1       3.417   3.079  20.032  0.00  0.00    +0.000 A 
BRANCH   9  10
ATOM     10  N   UNL     1       4.218   1.893  19.808  0.00  0.00    +0.000 N 
ATOM     11  O   UNL     1       5.150   1.692  20.603  0.00  0.00    +0.000 OA
ATOM     12  O   UNL     1       4.021   1.277  18.749  0.00  0.00    +0.000 OA
ENDBRANCH   9  10
ENDBRANCH   2   4
BRANCH   1  13
ATOM     13  C   UNL     1       4.852   4.785  16.639  0.00  0.00    +0.000 C 
ATOM     14  C   UNL     1       3.506   4.006  16.724  0.00  0.00    +0.000 C 
ATOM     15  C   UNL     1       4.364   6.247  16.405  0.00  0.00    +0.000 C 
ATOM     16  C   UNL     1       5.581   4.026  15.491  0.00  0.00    +0.000 C 
ENDBRANCH   1  13
BRANCH   1  17
ATOM     17  C   UNL     1       7.179   4.920  17.647  0.00  0.00    +0.000 C 
BRANCH  17  18
ATOM     18  C   UNL     1       7.647   6.274  17.106  0.00  0.00    +0.000 C 
ATOM     19  O   UNL     1       7.855   6.486  15.916  0.00  0.00    +0.000 OA
BRANCH  18  20
ATOM     20  O   UNL     1       7.861   7.176  18.104  0.00  0.00    +0.000 OA
BRANCH  20  22
ATOM     21  C   UNL     1       8.721   9.383  18.588  0.00  0.00    +0.000 C 
ATOM     22  C   UNL     1       7.773   8.561  17.737  0.00  0.00    +0.000 C 
ENDBRANCH  20  22
ENDBRANCH  18  20
ENDBRANCH  17  18
ENDBRANCH   1  17
TORSDOF 7
ENDMDL
MODEL 6
REMARK VINA RESULT:      -6.6      1.548      2.375
REMARK  Name = 
REMARK  11 active torsions:
REMARK  status: ('A' for Active; 'I' for Inactive)
REMARK    1  A    between atoms: C_1  and  C_2
REMARK    2  A    between atoms: C_2  and  O_3
REMARK    3  A    between atoms: O_3  and  C_4
REMARK    4  A    between atoms: C_4  and  C_6
REMARK    5  A    between atoms: C_6  and  N_7
REMARK    6  A    between atoms: N_7  and  C_19
REMARK    7  A    between atoms: C_8  and  C_10
REMARK    8  A    between atoms: C_15  and  N_16
REMARK    9  A    between atoms: C_19  and  C_20
REMARK   10  A    between atoms: C_19  and  C_21
REMARK   11  A    between atoms: C_19  and  C_22
REMARK                            x       y       z     vdW  Elec       q    Type
REMARK                         _______ _______ _______ _____ _____    ______ ____
ROOT
ATOM      1  N   UNL     1       4.524   5.077  17.049  0.00  0.00    +0.000 N 
ATOM      2  C   UNL     1       3.649   3.969  17.306  0.00  0.00    +0.000 C 
ATOM      3  O   UNL     1       3.575   3.079  16.463  0.00  0.00    +0.000 OA
ENDROOT
BRANCH   2   4
ATOM      4  C   UNL     1       2.793   3.761  18.562  0.00  0.00    +0.000 A 
ATOM      5  C   UNL     1       1.638   4.498  18.868  0.00  0.00    +0.000 A 
ATOM      6  C   UNL     1       0.897   4.389  20.050  0.00  0.00    +0.000 A 
ATOM      7  C   UNL     1       1.270   3.481  21.010  0.00  0.00    +0.000 A 
ATOM      8  C   UNL     1       2.372   2.674  20.758  0.00  0.00    +0.000 A 
ATOM      9  C   UNL     1       3.112   2.814  19.551  0.00  0.00    +0.000 A 
BRANCH   9  10
ATOM     10  N   UNL     1       4.223   1.893  19.423  0.00  0.00    +0.000 N 
ATOM     11  O   UNL     1       4.031   0.882  18.731  0.00  0.00    +0.000 OA
ATOM     12  O   UNL     1       5.206   2.099  20.152  0.00  0.00    +0.000 OA
ENDBRANCH   9  10
ENDBRANCH   2   4
BRANCH   1  13
ATOM     13  C   UNL     1       4.916   6.181  17.986  0.00  0.00    +0.000 C 
ATOM     14  C   UNL     1       6.043   7.139  17.495  0.00  0.00    +0.000 C 
ATOM     15  C   UNL     1       3.708   7.156  18.134  0.00  0.00    +0.000 C 
ATOM     16  C   UNL     1       5.563   5.562  19.259  0.00  0.00    +0.000 C 
ENDBRANCH   1  13
BRANCH   1  17
ATOM     17  C   UNL     1       5.153   5.101  15.700  0.00  0.00    +0.000 C 
BRANCH  17  18
ATOM     18  C   UNL     1       6.481   4.352  15.552  0.00  0.00    +0.000 C 
ATOM     19  O   UNL     1       7.297   4.248  16.462  0.00  0.00    +0.000 OA
BRANCH  18  20
ATOM     20  O   UNL     1       6.664   3.883  14.287  0.00  0.00    +0.000 OA
BRANCH  20  22
ATOM     21  C   UNL     1       5.840   3.185  12.125  0.00  0.00    +0.000 C 
ATOM     22  C   UNL     1       5.494   3.813  13.461  0.00  0.00    +0.000 C 
ENDBRANCH  20  22
ENDBRANCH  18  20
ENDBRANCH  17  18
ENDBRANCH   1  17
TORSDOF 7
ENDMDL
MODEL 7
REMARK VINA RESULT:      -6.5      2.331      5.748
REMARK  Name = 
REMARK  11 active torsions:
REMARK  status: ('A' for Active; 'I' for Inactive)
REMARK    1  A    between atoms: C_1  and  C_2
REMARK    2  A    between atoms: C_2  and  O_3
REMARK    3  A    between atoms: O_3  and  C_4
REMARK    4  A    between atoms: C_4  and  C_6
REMARK    5  A    between atoms: C_6  and  N_7
REMARK    6  A    between atoms: N_7  and  C_19
REMARK    7  A    between atoms: C_8  and  C_10
REMARK    8  A    between atoms: C_15  and  N_16
REMARK    9  A    between atoms: C_19  and  C_20
REMARK   10  A    between atoms: C_19  and  C_21
REMARK   11  A    between atoms: C_19  and  C_22
REMARK                            x       y       z     vdW  Elec       q    Type
REMARK                         _______ _______ _______ _____ _____    ______ ____
ROOT
ATOM      1  N   UNL     1       3.705   5.046  19.296  0.00  0.00    +0.000 N 
ATOM      2  C   UNL     1       4.750   4.234  18.742  0.00  0.00    +0.000 C 
ATOM      3  O   UNL     1       5.176   3.297  19.413  0.00  0.00    +0.000 OA
ENDROOT
BRANCH   2   4
ATOM      4  C   UNL     1       5.392   4.401  17.359  0.00  0.00    +0.000 A 
ATOM      5  C   UNL     1       4.799   3.995  16.153  0.00  0.00    +0.000 A 
ATOM      6  C   UNL     1       5.405   4.053  14.893  0.00  0.00    +0.000 A 
ATOM      7  C   UNL     1       6.672   4.566  14.766  0.00  0.00    +0.000 A 
ATOM      8  C   UNL     1       7.306   5.041  15.907  0.00  0.00    +0.000 A 
ATOM      9  C   UNL     1       6.669   4.961  17.176  0.00  0.00    +0.000 A 
BRANCH   9  10
ATOM     10  N   UNL     1       7.446   5.510  18.269  0.00  0.00    +0.000 N 
ATOM     11  O   UNL     1       8.105   4.704  18.944  0.00  0.00    +0.000 OA
ATOM     12  O   UNL     1       7.252   6.703  18.548  0.00  0.00    +0.000 OA
ENDBRANCH   9  10
ENDBRANCH   2   4
BRANCH   1  13
ATOM     13  C   UNL     1       2.909   6.120  18.615  0.00  0.00    +0.000 C 
ATOM     14  C   UNL     1       3.704   7.089  17.689  0.00  0.00    +0.000 C 
ATOM     15  C   UNL     1       1.929   5.444  17.608  0.00  0.00    +0.000 C 
ATOM     16  C   UNL     1       2.352   7.099  19.689  0.00  0.00    +0.000 C 
ENDBRANCH   1  13
BRANCH   1  17
ATOM     17  C   UNL     1       3.340   4.749  20.708  0.00  0.00    +0.000 C 
BRANCH  17  18
ATOM     18  C   UNL     1       2.391   3.568  20.935  0.00  0.00    +0.000 C 
ATOM     19  O   UNL     1       2.336   2.944  21.990  0.00  0.00    +0.000 OA
BRANCH  18  20
ATOM     20  O   UNL     1       1.677   3.265  19.816  0.00  0.00    +0.000 OA
BRANCH  20  22
ATOM     21  C   UNL     1       2.257   1.949  17.873  0.00  0.00    +0.000 C 
ATOM     22  C   UNL     1       1.810   1.925  19.321  0.00  0.00    +0.000 C 
ENDBRANCH  20  22
ENDBRANCH  18  20
ENDBRANCH  17  18
ENDBRANCH   1  17
TORSDOF 7
ENDMDL
MODEL 8
REMARK VINA RESULT:      -6.5      2.266      5.698
REMARK  Name = 
REMARK  11 active torsions:
REMARK  status: ('A' for Active; 'I' for Inactive)
REMARK    1  A    between atoms: C_1  and  C_2
REMARK    2  A    between atoms: C_2  and  O_3
REMARK    3  A    between atoms: O_3  and  C_4
REMARK    4  A    between atoms: C_4  and  C_6
REMARK    5  A    between atoms: C_6  and  N_7
REMARK    6  A    between atoms: N_7  and  C_19
REMARK    7  A    between atoms: C_8  and  C_10
REMARK    8  A    between atoms: C_15  and  N_16
REMARK    9  A    between atoms: C_19  and  C_20
REMARK   10  A    between atoms: C_19  and  C_21
REMARK   11  A    between atoms: C_19  and  C_22
REMARK                            x       y       z     vdW  Elec       q    Type
REMARK                         _______ _______ _______ _____ _____    ______ ____
ROOT
ATOM      1  N   UNL     1       3.514   4.360  17.687  0.00  0.00    +0.000 N 
ATOM      2  C   UNL     1       4.892   4.196  17.321  0.00  0.00    +0.000 C 
ATOM      3  O   UNL     1       5.198   3.228  16.630  0.00  0.00    +0.000 OA
ENDROOT
BRANCH   2   4
ATOM      4  C   UNL     1       6.048   5.134  17.693  0.00  0.00    +0.000 A 
ATOM      5  C   UNL     1       6.672   5.168  18.950  0.00  0.00    +0.000 A 
ATOM      6  C   UNL     1       7.662   6.077  19.338  0.00  0.00    +0.000 A 
ATOM      7  C   UNL     1       8.118   7.016  18.444  0.00  0.00    +0.000 A 
ATOM      8  C   UNL     1       7.589   7.011  17.160  0.00  0.00    +0.000 A 
ATOM      9  C   UNL     1       6.576   6.081  16.797  0.00  0.00    +0.000 A 
BRANCH   9  10
ATOM     10  N   UNL     1       6.135   6.187  15.421  0.00  0.00    +0.000 N 
ATOM     11  O   UNL     1       5.122   6.874  15.212  0.00  0.00    +0.000 OA
ATOM     12  O   UNL     1       6.693   5.448  14.596  0.00  0.00    +0.000 OA
ENDBRANCH   9  10
ENDBRANCH   2   4
BRANCH   1  13
ATOM     13  C   UNL     1       2.872   5.534  18.366  0.00  0.00    +0.000 C 
ATOM     14  C   UNL     1       3.402   6.943  17.961  0.00  0.00    +0.000 C 
ATOM     15  C   UNL     1       1.381   5.610  17.916  0.00  0.00    +0.000 C 
ATOM     16  C   UNL     1       3.215   5.494  19.884  0.00  0.00    +0.000 C 
ENDBRANCH   1  13
BRANCH   1  17
ATOM     17  C   UNL     1       2.608   3.244  17.301  0.00  0.00    +0.000 C 
BRANCH  17  18
ATOM     18  C   UNL     1       2.469   2.098  18.306  0.00  0.00    +0.000 C 
ATOM     19  O   UNL     1       3.399   1.361  18.617  0.00  0.00    +0.000 OA
BRANCH  18  20
ATOM     20  O   UNL     1       1.190   1.963  18.753  0.00  0.00    +0.000 OA
BRANCH  20  22
ATOM     21  C   UNL     1       1.487   2.546  21.079  0.00  0.00    +0.000 C 
ATOM     22  C   UNL     1       0.777   2.875  19.781  0.00  0.00    +0.000 C 
ENDBRANCH  20  22
ENDBRANCH  18  20
ENDBRANCH  17  18
ENDBRANCH   1  17
TORSDOF 7
ENDMDL
MODEL 9
REMARK VINA RESULT:      -6.5      2.324      5.780
REMARK  Name = 
REMARK  11 active torsions:
REMARK  status: ('A' for Active; 'I' for Inactive)
REMARK    1  A    between atoms: C_1  and  C_2
REMARK    2  A    between atoms: C_2  and  O_3
REMARK    3  A    between atoms: O_3  and  C_4
REMARK    4  A    between atoms: C_4  and  C_6
REMARK    5  A    between atoms: C_6  and  N_7
REMARK    6  A    between atoms: N_7  and  C_19
REMARK    7  A    between atoms: C_8  and  C_10
REMARK    8  A    between atoms: C_15  and  N_16
REMARK    9  A    between atoms: C_19  and  C_20
REMARK   10  A    between atoms: C_19  and  C_21
REMARK   11  A    between atoms: C_19  and  C_22
REMARK                            x       y       z     vdW  Elec       q    Type
REMARK                         _______ _______ _______ _____ _____    ______ ____
ROOT
ATOM      1  N   UNL     1       3.685   5.122  19.254  0.00  0.00    +0.000 N 
ATOM      2  C   UNL     1       4.742   4.304  18.731  0.00  0.00    +0.000 C 
ATOM      3  O   UNL     1       5.163   3.383  19.426  0.00  0.00    +0.000 OA
ENDROOT
BRANCH   2   4
ATOM      4  C   UNL     1       5.403   4.447  17.354  0.00  0.00    +0.000 A 
ATOM      5  C   UNL     1       4.819   4.040  16.144  0.00  0.00    +0.000 A 
ATOM      6  C   UNL     1       5.441   4.075  14.892  0.00  0.00    +0.000 A 
ATOM      7  C   UNL     1       6.718   4.566  14.776  0.00  0.00    +0.000 A 
ATOM      8  C   UNL     1       7.345   5.041  15.920  0.00  0.00    +0.000 A 
ATOM      9  C   UNL     1       6.692   4.984  17.182  0.00  0.00    +0.000 A 
BRANCH   9  10
ATOM     10  N   UNL     1       7.465   5.531  18.279  0.00  0.00    +0.000 N 
ATOM     11  O   UNL     1       7.529   6.767  18.353  0.00  0.00    +0.000 OA
ATOM     12  O   UNL     1       8.137   4.727  18.944  0.00  0.00    +0.000 OA
ENDBRANCH   9  10
ENDBRANCH   2   4
BRANCH   1  13
ATOM     13  C   UNL     1       2.895   6.178  18.539  0.00  0.00    +0.000 C 
ATOM     14  C   UNL     1       2.077   7.157  19.435  0.00  0.00    +0.000 C 
ATOM     15  C   UNL     1       3.891   7.146  17.831  0.00  0.00    +0.000 C 
ATOM     16  C   UNL     1       1.767   5.496  17.711  0.00  0.00    +0.000 C 
ENDBRANCH   1  13
BRANCH   1  17
ATOM     17  C   UNL     1       3.301   4.851  20.666  0.00  0.00    +0.000 C 
BRANCH  17  18
ATOM     18  C   UNL     1       2.481   3.582  20.919  0.00  0.00    +0.000 C 
ATOM     19  O   UNL     1       2.710   2.809  21.843  0.00  0.00    +0.000 OA
BRANCH  18  20
ATOM     20  O   UNL     1       1.526   3.393  19.967  0.00  0.00    +0.000 OA
BRANCH  20  22
ATOM     21  C   UNL     1       2.221   1.999  18.118  0.00  0.00    +0.000 C 
ATOM     22  C   UNL     1       1.435   2.073  19.413  0.00  0.00    +0.000 C 
ENDBRANCH  20  22
ENDBRANCH  18  20
ENDBRANCH  17  18
ENDBRANCH   1  17
TORSDOF 7
ENDMDL
