MODEL 1
REMARK VINA RESULT:      -7.2      0.000      0.000
REMARK  Name = 
REMARK  6 active torsions:
REMARK  status: ('A' for Active; 'I' for Inactive)
REMARK    1  A    between atoms: C_1  and  C_2
REMARK    2  A    between atoms: C_2  and  C_3
REMARK    3  A    between atoms: C_2  and  C_4
REMARK    4  A    between atoms: C_7  and  O_8
REMARK    5  A    between atoms: O_8  and  C_9
REMARK    6  A    between atoms: C_18  and  C_19
REMARK                            x       y       z     vdW  Elec       q    Type
REMARK                         _______ _______ _______ _____ _____    ______ ____
ROOT
ATOM      1  C   UNL     1       1.695   7.561  20.025  0.00  0.00    +0.000 C 
ATOM      2  O   UNL     1       1.816   6.560  20.722  0.00  0.00    +0.000 OA
ATOM      3  N   UNL     1       0.975   8.664  20.452  0.00  0.00    +0.000 N 
ATOM      4  C   UNL     1       0.114   8.508  21.625  0.00  0.00    +0.000 C 
ATOM      5  C   UNL     1       0.155   9.759  22.504  0.00  0.00    +0.000 C 
ATOM      6  N   UNL     1      -0.226  10.913  21.683  0.00  0.00    +0.000 N 
ATOM      7  C   UNL     1      -1.002  11.941  22.177  0.00  0.00    +0.000 A 
ATOM      8  C   UNL     1      -1.994  11.708  23.129  0.00  0.00    +0.000 A 
ATOM      9  C   UNL     1      -2.843  12.733  23.546  0.00  0.00    +0.000 A 
ATOM     10  C   UNL     1      -2.675  13.985  22.990  0.00  0.00    +0.000 A 
ATOM     11  N   UNL     1      -1.714  14.223  22.083  0.00  0.00    +0.000 NA
ATOM     12  N   UNL     1      -0.883  13.189  21.681  0.00  0.00    +0.000 NA
ATOM     13  C   UNL     1       0.622  11.145  20.497  0.00  0.00    +0.000 C 
ATOM     14  C   UNL     1       0.697   9.853  19.639  0.00  0.00    +0.000 C 
ENDROOT
BRANCH  10  15
ATOM     15  C   UNL     1      -3.523  15.089  23.333  0.00  0.00    +0.000 C 
ATOM     16  N   UNL     1      -4.165  16.007  23.616  0.00  0.00    +0.000 NA
ENDBRANCH  10  15
BRANCH   1  17
ATOM     17  O   UNL     1       2.212   7.706  18.731  0.00  0.00    +0.000 OA
BRANCH  17  21
ATOM     18  C   UNL     1       4.826   5.078  16.683  0.00  0.00    +0.000 A 
ATOM     19  C   UNL     1       5.117   6.445  16.840  0.00  0.00    +0.000 A 
ATOM     20  C   UNL     1       4.259   7.282  17.575  0.00  0.00    +0.000 A 
ATOM     21  C   UNL     1       3.094   6.763  18.148  0.00  0.00    +0.000 A 
ATOM     22  C   UNL     1       2.840   5.399  18.067  0.00  0.00    +0.000 A 
ATOM     23  C   UNL     1       3.697   4.571  17.342  0.00  0.00    +0.000 A 
BRANCH  18  25
ATOM     24  C   UNL     1       5.447   4.385  14.339  0.00  0.00    +0.000 C 
ATOM     25  C   UNL     1       5.688   4.150  15.837  0.00  0.00    +0.000 C 
ATOM     26  C   UNL     1       7.191   4.304  16.128  0.00  0.00    +0.000 C 
ENDBRANCH  18  25
ENDBRANCH  17  21
ENDBRANCH   1  17
TORSDOF 4
ENDMDL
MODEL 2
REMARK VINA RESULT:      -7.2      3.241     10.426
REMARK  Name = 
REMARK  6 active torsions:
REMARK  status: ('A' for Active; 'I' for Inactive)
REMARK    1  A    between atoms: C_1  and  C_2
REMARK    2  A    between atoms: C_2  and  C_3
REMARK    3  A    between atoms: C_2  and  C_4
REMARK    4  A    between atoms: C_7  and  O_8
REMARK    5  A    between atoms: O_8  and  C_9
REMARK    6  A    between atoms: C_18  and  C_19
REMARK                            x       y       z     vdW  Elec       q    Type
REMARK                         _______ _______ _______ _____ _____    ______ ____
ROOT
ATOM      1  C   UNL     1       0.210  11.467  19.979  0.00  0.00    +0.000 C 
ATOM      2  O   UNL     1       0.264  12.266  19.052  0.00  0.00    +0.000 OA
ATOM      3  N   UNL     1       0.655  10.162  19.844  0.00  0.00    +0.000 N 
ATOM      4  C   UNL     1       0.917   9.664  18.494  0.00  0.00    +0.000 C 
ATOM      5  C   UNL     1       2.153   8.764  18.474  0.00  0.00    +0.000 C 
ATOM      6  N   UNL     1       1.950   7.678  19.438  0.00  0.00    +0.000 N 
ATOM      7  C   UNL     1       2.373   6.388  19.190  0.00  0.00    +0.000 A 
ATOM      8  C   UNL     1       2.376   5.861  17.900  0.00  0.00    +0.000 A 
ATOM      9  C   UNL     1       2.705   4.525  17.671  0.00  0.00    +0.000 A 
ATOM     10  C   UNL     1       3.028   3.738  18.759  0.00  0.00    +0.000 A 
ATOM     11  N   UNL     1       3.041   4.240  20.004  0.00  0.00    +0.000 NA
ATOM     12  N   UNL     1       2.708   5.570  20.209  0.00  0.00    +0.000 NA
ATOM     13  C   UNL     1       1.709   8.112  20.828  0.00  0.00    +0.000 C 
ATOM     14  C   UNL     1       0.529   9.120  20.871  0.00  0.00    +0.000 C 
ENDROOT
BRANCH  10  15
ATOM     15  C   UNL     1       3.345   2.347  18.622  0.00  0.00    +0.000 C 
ATOM     16  N   UNL     1       3.643   1.233  18.541  0.00  0.00    +0.000 NA
ENDBRANCH  10  15
BRANCH   1  17
ATOM     17  O   UNL     1      -0.325  11.740  21.245  0.00  0.00    +0.000 OA
BRANCH  17  21
ATOM     18  C   UNL     1      -4.358  12.801  21.981  0.00  0.00    +0.000 A 
ATOM     19  C   UNL     1      -3.455  12.536  23.026  0.00  0.00    +0.000 A 
ATOM     20  C   UNL     1      -2.107  12.242  22.753  0.00  0.00    +0.000 A 
ATOM     21  C   UNL     1      -1.653  12.198  21.432  0.00  0.00    +0.000 A 
ATOM     22  C   UNL     1      -2.518  12.536  20.398  0.00  0.00    +0.000 A 
ATOM     23  C   UNL     1      -3.852  12.833  20.674  0.00  0.00    +0.000 A 
BRANCH  18  25
ATOM     24  C   UNL     1      -6.708  12.193  21.295  0.00  0.00    +0.000 C 
ATOM     25  C   UNL     1      -5.841  13.052  22.225  0.00  0.00    +0.000 C 
ATOM     26  C   UNL     1      -6.258  12.784  23.681  0.00  0.00    +0.000 C 
ENDBRANCH  18  25
ENDBRANCH  17  21
ENDBRANCH   1  17
TORSDOF 4
ENDMDL
MODEL 3
REMARK VINA RESULT:      -7.1      4.064     10.171
REMARK  Name = 
REMARK  6 active torsions:
REMARK  status: ('A' for Active; 'I' for Inactive)
REMARK    1  A    between atoms: C_1  and  C_2
REMARK    2  A    between atoms: C_2  and  C_3
REMARK    3  A    between atoms: C_2  and  C_4
REMARK    4  A    between atoms: C_7  and  O_8
REMARK    5  A    between atoms: O_8  and  C_9
REMARK    6  A    between atoms: C_18  and  C_19
REMARK                            x       y       z     vdW  Elec       q    Type
REMARK                         _______ _______ _______ _____ _____    ______ ____
ROOT
ATOM      1  C   UNL     1      -0.276  10.195  20.396  0.00  0.00    +0.000 C 
ATOM      2  O   UNL     1      -0.784   9.918  21.476  0.00  0.00    +0.000 OA
ATOM      3  N   UNL     1       0.754   9.441  19.859  0.00  0.00    +0.000 N 
ATOM      4  C   UNL     1       1.429   8.483  20.735  0.00  0.00    +0.000 C 
ATOM      5  C   UNL     1       1.770   7.198  19.978  0.00  0.00    +0.000 C 
ATOM      6  N   UNL     1       2.583   7.552  18.809  0.00  0.00    +0.000 N 
ATOM      7  C   UNL     1       3.635   6.769  18.382  0.00  0.00    +0.000 A 
ATOM      8  C   UNL     1       4.419   6.053  19.285  0.00  0.00    +0.000 A 
ATOM      9  C   UNL     1       5.544   5.348  18.857  0.00  0.00    +0.000 A 
ATOM     10  C   UNL     1       5.860   5.378  17.513  0.00  0.00    +0.000 A 
ATOM     11  N   UNL     1       5.103   6.054  16.634  0.00  0.00    +0.000 NA
ATOM     12  N   UNL     1       3.990   6.750  17.081  0.00  0.00    +0.000 NA
ATOM     13  C   UNL     1       1.947   8.496  17.868  0.00  0.00    +0.000 C 
ATOM     14  C   UNL     1       1.482   9.767  18.627  0.00  0.00    +0.000 C 
ENDROOT
BRANCH  10  15
ATOM     15  C   UNL     1       7.015   4.712  16.989  0.00  0.00    +0.000 C 
ATOM     16  N   UNL     1       7.959   4.159  16.614  0.00  0.00    +0.000 NA
ENDBRANCH  10  15
BRANCH   1  17
ATOM     17  O   UNL     1      -0.626  11.296  19.603  0.00  0.00    +0.000 OA
BRANCH  17  21
ATOM     18  C   UNL     1      -4.731  12.114  18.966  0.00  0.00    +0.000 A 
ATOM     19  C   UNL     1      -4.017  12.680  20.037  0.00  0.00    +0.000 A 
ATOM     20  C   UNL     1      -2.640  12.436  20.190  0.00  0.00    +0.000 A 
ATOM     21  C   UNL     1      -1.969  11.614  19.282  0.00  0.00    +0.000 A 
ATOM     22  C   UNL     1      -2.648  11.115  18.176  0.00  0.00    +0.000 A 
ATOM     23  C   UNL     1      -4.012  11.365  18.025  0.00  0.00    +0.000 A 
BRANCH  18  25
ATOM     24  C   UNL     1      -6.601  12.581  17.339  0.00  0.00    +0.000 C 
ATOM     25  C   UNL     1      -6.236  12.292  18.802  0.00  0.00    +0.000 C 
ATOM     26  C   UNL     1      -7.036  11.069  19.281  0.00  0.00    +0.000 C 
ENDBRANCH  18  25
ENDBRANCH  17  21
ENDBRANCH   1  17
TORSDOF 4
ENDMDL
MODEL 4
REMARK VINA RESULT:      -7.1      0.858      1.282
REMARK  Name = 
REMARK  6 active torsions:
REMARK  status: ('A' for Active; 'I' for Inactive)
REMARK    1  A    between atoms: C_1  and  C_2
REMARK    2  A    between atoms: C_2  and  C_3
REMARK    3  A    between atoms: C_2  and  C_4
REMARK    4  A    between atoms: C_7  and  O_8
REMARK    5  A    between atoms: O_8  and  C_9
REMARK    6  A    between atoms: C_18  and  C_19
REMARK                            x       y       z     vdW  Elec       q    Type
REMARK                         _______ _______ _______ _____ _____    ______ ____
ROOT
ATOM      1  C   UNL     1       1.441   8.135  20.177  0.00  0.00    +0.000 C 
ATOM      2  O   UNL     1       1.810   7.227  20.912  0.00  0.00    +0.000 OA
ATOM      3  N   UNL     1       0.577   9.124  20.617  0.00  0.00    +0.000 N 
ATOM      4  C   UNL     1      -0.123   8.908  21.883  0.00  0.00    +0.000 C 
ATOM      5  C   UNL     1      -0.226  10.210  22.680  0.00  0.00    +0.000 C 
ATOM      6  N   UNL     1      -0.890  11.213  21.841  0.00  0.00    +0.000 N 
ATOM      7  C   UNL     1      -1.788  12.123  22.358  0.00  0.00    +0.000 A 
ATOM      8  C   UNL     1      -2.624  11.793  23.424  0.00  0.00    +0.000 A 
ATOM      9  C   UNL     1      -3.601  12.681  23.873  0.00  0.00    +0.000 A 
ATOM     10  C   UNL     1      -3.719  13.898  23.232  0.00  0.00    +0.000 A 
ATOM     11  N   UNL     1      -2.911  14.231  22.213  0.00  0.00    +0.000 NA
ATOM     12  N   UNL     1      -1.947  13.332  21.781  0.00  0.00    +0.000 NA
ATOM     13  C   UNL     1      -0.218  11.501  20.558  0.00  0.00    +0.000 C 
ATOM     14  C   UNL     1       0.009  10.181  19.772  0.00  0.00    +0.000 C 
ENDROOT
BRANCH  10  15
ATOM     15  C   UNL     1      -4.717  14.858  23.602  0.00  0.00    +0.000 C 
ATOM     16  N   UNL     1      -5.538  15.632  23.852  0.00  0.00    +0.000 NA
ENDBRANCH  10  15
BRANCH   1  17
ATOM     17  O   UNL     1       1.795   8.272  18.828  0.00  0.00    +0.000 OA
BRANCH  17  21
ATOM     18  C   UNL     1       4.385   5.367  17.158  0.00  0.00    +0.000 A 
ATOM     19  C   UNL     1       3.152   5.020  17.739  0.00  0.00    +0.000 A 
ATOM     20  C   UNL     1       2.286   6.011  18.234  0.00  0.00    +0.000 A 
ATOM     21  C   UNL     1       2.652   7.359  18.165  0.00  0.00    +0.000 A 
ATOM     22  C   UNL     1       3.830   7.717  17.521  0.00  0.00    +0.000 A 
ATOM     23  C   UNL     1       4.683   6.730  17.026  0.00  0.00    +0.000 A 
BRANCH  18  25
ATOM     24  C   UNL     1       5.465   4.304  15.142  0.00  0.00    +0.000 C 
ATOM     25  C   UNL     1       5.385   4.324  16.675  0.00  0.00    +0.000 C 
ATOM     26  C   UNL     1       6.797   4.545  17.243  0.00  0.00    +0.000 C 
ENDBRANCH  18  25
ENDBRANCH  17  21
ENDBRANCH   1  17
TORSDOF 4
ENDMDL
MODEL 5
REMARK VINA RESULT:      -7.1      2.371      3.501
REMARK  Name = 
REMARK  6 active torsions:
REMARK  status: ('A' for Active; 'I' for Inactive)
REMARK    1  A    between atoms: C_1  and  C_2
REMARK    2  A    between atoms: C_2  and  C_3
REMARK    3  A    between atoms: C_2  and  C_4
REMARK    4  A    between atoms: C_7  and  O_8
REMARK    5  A    between atoms: O_8  and  C_9
REMARK    6  A    between atoms: C_18  and  C_19
REMARK                            x       y       z     vdW  Elec       q    Type
REMARK                         _______ _______ _______ _____ _____    ______ ____
ROOT
ATOM      1  C   UNL     1       1.626   9.363  18.515  0.00  0.00    +0.000 C 
ATOM      2  O   UNL     1       1.631   9.464  17.294  0.00  0.00    +0.000 OA
ATOM      3  N   UNL     1       0.816  10.158  19.308  0.00  0.00    +0.000 N 
ATOM      4  C   UNL     1       0.183  11.323  18.690  0.00  0.00    +0.000 C 
ATOM      5  C   UNL     1      -1.240  11.517  19.220  0.00  0.00    +0.000 C 
ATOM      6  N   UNL     1      -1.177  11.627  20.681  0.00  0.00    +0.000 N 
ATOM      7  C   UNL     1      -1.984  12.496  21.386  0.00  0.00    +0.000 A 
ATOM      8  C   UNL     1      -2.371  13.723  20.851  0.00  0.00    +0.000 A 
ATOM      9  C   UNL     1      -3.098  14.640  21.609  0.00  0.00    +0.000 A 
ATOM     10  C   UNL     1      -3.425  14.299  22.907  0.00  0.00    +0.000 A 
ATOM     11  N   UNL     1      -3.069  13.113  23.427  0.00  0.00    +0.000 NA
ATOM     12  N   UNL     1      -2.344  12.218  22.656  0.00  0.00    +0.000 NA
ATOM     13  C   UNL     1      -0.574  10.469  21.371  0.00  0.00    +0.000 C 
ATOM     14  C   UNL     1       0.828  10.170  20.776  0.00  0.00    +0.000 C 
ENDROOT
BRANCH  10  15
ATOM     15  C   UNL     1      -4.141  15.192  23.770  0.00  0.00    +0.000 C 
ATOM     16  N   UNL     1      -4.732  15.939  24.424  0.00  0.00    +0.000 NA
ENDBRANCH  10  15
BRANCH   1  17
ATOM     17  O   UNL     1       2.439   8.492  19.252  0.00  0.00    +0.000 OA
BRANCH  17  21
ATOM     18  C   UNL     1       1.986   4.306  19.704  0.00  0.00    +0.000 A 
ATOM     19  C   UNL     1       1.700   5.203  20.749  0.00  0.00    +0.000 A 
ATOM     20  C   UNL     1       1.804   6.592  20.552  0.00  0.00    +0.000 A 
ATOM     21  C   UNL     1       2.208   7.096  19.313  0.00  0.00    +0.000 A 
ATOM     22  C   UNL     1       2.416   6.222  18.252  0.00  0.00    +0.000 A 
ATOM     23  C   UNL     1       2.305   4.845  18.450  0.00  0.00    +0.000 A 
BRANCH  18  25
ATOM     24  C   UNL     1       1.639   2.425  21.348  0.00  0.00    +0.000 C 
ATOM     25  C   UNL     1       1.957   2.794  19.893  0.00  0.00    +0.000 C 
ATOM     26  C   UNL     1       0.940   2.100  18.971  0.00  0.00    +0.000 C 
ENDBRANCH  18  25
ENDBRANCH  17  21
ENDBRANCH   1  17
TORSDOF 4
ENDMDL
MODEL 6
REMARK VINA RESULT:      -7.1      2.417      3.435
REMARK  Name = 
REMARK  6 active torsions:
REMARK  status: ('A' for Active; 'I' for Inactive)
REMARK    1  A    between atoms: C_1  and  C_2
REMARK    2  A    between atoms: C_2  and  C_3
REMARK    3  A    between atoms: C_2  and  C_4
REMARK    4  A    between atoms: C_7  and  O_8
REMARK    5  A    between atoms: O_8  and  C_9
REMARK    6  A    between atoms: C_18  and  C_19
REMARK                            x       y       z     vdW  Elec       q    Type
REMARK                         _______ _______ _______ _____ _____    ______ ____
ROOT
ATOM      1  C   UNL     1       1.437   9.242  18.418  0.00  0.00    +0.000 C 
ATOM      2  O   UNL     1       1.256   9.219  17.207  0.00  0.00    +0.000 OA
ATOM      3  N   UNL     1       0.701  10.069  19.250  0.00  0.00    +0.000 N 
ATOM      4  C   UNL     1      -0.093  11.131  18.631  0.00  0.00    +0.000 C 
ATOM      5  C   UNL     1      -1.432  11.303  19.351  0.00  0.00    +0.000 C 
ATOM      6  N   UNL     1      -1.163  11.563  20.769  0.00  0.00    +0.000 N 
ATOM      7  C   UNL     1      -1.913  12.455  21.507  0.00  0.00    +0.000 A 
ATOM      8  C   UNL     1      -2.456  13.601  20.926  0.00  0.00    +0.000 A 
ATOM      9  C   UNL     1      -3.124  14.550  21.699  0.00  0.00    +0.000 A 
ATOM     10  C   UNL     1      -3.233  14.325  23.057  0.00  0.00    +0.000 A 
ATOM     11  N   UNL     1      -2.726  13.218  23.624  0.00  0.00    +0.000 NA
ATOM     12  N   UNL     1      -2.064  12.289  22.837  0.00  0.00    +0.000 NA
ATOM     13  C   UNL     1      -0.389  10.514  21.463  0.00  0.00    +0.000 C 
ATOM     14  C   UNL     1       0.927  10.230  20.691  0.00  0.00    +0.000 C 
ENDROOT
BRANCH  10  15
ATOM     15  C   UNL     1      -3.872  15.262  23.933  0.00  0.00    +0.000 C 
ATOM     16  N   UNL     1      -4.422  15.982  24.651  0.00  0.00    +0.000 NA
ENDBRANCH  10  15
BRANCH   1  17
ATOM     17  O   UNL     1       2.405   8.493  19.100  0.00  0.00    +0.000 OA
BRANCH  17  21
ATOM     18  C   UNL     1       1.621   4.399  19.843  0.00  0.00    +0.000 A 
ATOM     19  C   UNL     1       2.143   4.847  18.616  0.00  0.00    +0.000 A 
ATOM     20  C   UNL     1       2.448   6.205  18.418  0.00  0.00    +0.000 A 
ATOM     21  C   UNL     1       2.220   7.130  19.440  0.00  0.00    +0.000 A 
ATOM     22  C   UNL     1       1.781   6.686  20.682  0.00  0.00    +0.000 A 
ATOM     23  C   UNL     1       1.486   5.337  20.876  0.00  0.00    +0.000 A 
BRANCH  18  25
ATOM     24  C   UNL     1       1.812   2.025  19.011  0.00  0.00    +0.000 C 
ATOM     25  C   UNL     1       1.210   2.950  20.077  0.00  0.00    +0.000 C 
ATOM     26  C   UNL     1       1.616   2.434  21.468  0.00  0.00    +0.000 C 
ENDBRANCH  18  25
ENDBRANCH  17  21
ENDBRANCH   1  17
TORSDOF 4
ENDMDL
MODEL 7
REMARK VINA RESULT:      -7.1      1.253      1.827
REMARK  Name = 
REMARK  6 active torsions:
REMARK  status: ('A' for Active; 'I' for Inactive)
REMARK    1  A    between atoms: C_1  and  C_2
REMARK    2  A    between atoms: C_2  and  C_3
REMARK    3  A    between atoms: C_2  and  C_4
REMARK    4  A    between atoms: C_7  and  O_8
REMARK    5  A    between atoms: O_8  and  C_9
REMARK    6  A    between atoms: C_18  and  C_19
REMARK                            x       y       z     vdW  Elec       q    Type
REMARK                         _______ _______ _______ _____ _____    ______ ____
ROOT
ATOM      1  C   UNL     1       1.893   8.580  18.377  0.00  0.00    +0.000 C 
ATOM      2  O   UNL     1       2.147   8.955  17.239  0.00  0.00    +0.000 OA
ATOM      3  N   UNL     1       1.228   9.391  19.281  0.00  0.00    +0.000 N 
ATOM      4  C   UNL     1       1.093  10.811  18.956  0.00  0.00    +0.000 C 
ATOM      5  C   UNL     1      -0.277  11.341  19.382  0.00  0.00    +0.000 C 
ATOM      6  N   UNL     1      -0.448  11.080  20.815  0.00  0.00    +0.000 N 
ATOM      7  C   UNL     1      -1.072  11.979  21.656  0.00  0.00    +0.000 A 
ATOM      8  C   UNL     1      -0.972  13.354  21.450  0.00  0.00    +0.000 A 
ATOM      9  C   UNL     1      -1.516  14.257  22.362  0.00  0.00    +0.000 A 
ATOM     10  C   UNL     1      -2.158  13.753  23.476  0.00  0.00    +0.000 A 
ATOM     11  N   UNL     1      -2.271  12.430  23.676  0.00  0.00    +0.000 NA
ATOM     12  N   UNL     1      -1.720  11.549  22.758  0.00  0.00    +0.000 NA
ATOM     13  C   UNL     1      -0.353   9.660  21.209  0.00  0.00    +0.000 C 
ATOM     14  C   UNL     1       0.980   9.056  20.689  0.00  0.00    +0.000 C 
ENDROOT
BRANCH  10  15
ATOM     15  C   UNL     1      -2.716  14.606  24.483  0.00  0.00    +0.000 C 
ATOM     16  N   UNL     1      -3.208  15.301  25.265  0.00  0.00    +0.000 NA
ENDBRANCH  10  15
BRANCH   1  17
ATOM     17  O   UNL     1       2.262   7.340  18.916  0.00  0.00    +0.000 OA
BRANCH  17  21
ATOM     18  C   UNL     1       4.849   4.883  16.636  0.00  0.00    +0.000 A 
ATOM     19  C   UNL     1       5.242   6.153  17.095  0.00  0.00    +0.000 A 
ATOM     20  C   UNL     1       4.382   6.923  17.899  0.00  0.00    +0.000 A 
ATOM     21  C   UNL     1       3.117   6.435  18.240  0.00  0.00    +0.000 A 
ATOM     22  C   UNL     1       2.753   5.149  17.859  0.00  0.00    +0.000 A 
ATOM     23  C   UNL     1       3.611   4.387  17.067  0.00  0.00    +0.000 A 
BRANCH  18  25
ATOM     24  C   UNL     1       5.327   4.266  14.238  0.00  0.00    +0.000 C 
ATOM     25  C   UNL     1       5.718   4.045  15.705  0.00  0.00    +0.000 C 
ATOM     26  C   UNL     1       7.219   4.337  15.869  0.00  0.00    +0.000 C 
ENDBRANCH  18  25
ENDBRANCH  17  21
ENDBRANCH   1  17
TORSDOF 4
ENDMDL
MODEL 8
REMARK VINA RESULT:      -7.0      1.041      1.157
REMARK  Name = 
REMARK  6 active torsions:
REMARK  status: ('A' for Active; 'I' for Inactive)
REMARK    1  A    between atoms: C_1  and  C_2
REMARK    2  A    between atoms: C_2  and  C_3
REMARK    3  A    between atoms: C_2  and  C_4
REMARK    4  A    between atoms: C_7  and  O_8
REMARK    5  A    between atoms: O_8  and  C_9
REMARK    6  A    between atoms: C_18  and  C_19
REMARK                            x       y       z     vdW  Elec       q    Type
REMARK                         _______ _______ _______ _____ _____    ______ ____
ROOT
ATOM      1  C   UNL     1       2.492   7.138  19.364  0.00  0.00    +0.000 C 
ATOM      2  O   UNL     1       2.876   6.213  20.070  0.00  0.00    +0.000 OA
ATOM      3  N   UNL     1       1.701   8.158  19.866  0.00  0.00    +0.000 N 
ATOM      4  C   UNL     1       1.085   7.965  21.178  0.00  0.00    +0.000 C 
ATOM      5  C   UNL     1       1.090   9.266  21.982  0.00  0.00    +0.000 C 
ATOM      6  N   UNL     1       0.409  10.299  21.194  0.00  0.00    +0.000 N 
ATOM      7  C   UNL     1      -0.414  11.241  21.774  0.00  0.00    +0.000 A 
ATOM      8  C   UNL     1      -1.184  10.940  22.896  0.00  0.00    +0.000 A 
ATOM      9  C   UNL     1      -2.091  11.864  23.414  0.00  0.00    +0.000 A 
ATOM     10  C   UNL     1      -2.206  13.088  22.785  0.00  0.00    +0.000 A 
ATOM     11  N   UNL     1      -1.459  13.393  21.711  0.00  0.00    +0.000 NA
ATOM     12  N   UNL     1      -0.565  12.458  21.212  0.00  0.00    +0.000 NA
ATOM     13  C   UNL     1       1.000  10.565  19.867  0.00  0.00    +0.000 C 
ATOM     14  C   UNL     1       1.117   9.241  19.065  0.00  0.00    +0.000 C 
ENDROOT
BRANCH  10  15
ATOM     15  C   UNL     1      -3.136  14.084  23.226  0.00  0.00    +0.000 C 
ATOM     16  N   UNL     1      -3.905  14.855  23.615  0.00  0.00    +0.000 NA
ENDBRANCH  10  15
BRANCH   1  17
ATOM     17  O   UNL     1       2.755   7.266  17.994  0.00  0.00    +0.000 OA
BRANCH  17  21
ATOM     18  C   UNL     1       5.398   4.937  15.644  0.00  0.00    +0.000 A 
ATOM     19  C   UNL     1       5.441   6.343  15.641  0.00  0.00    +0.000 A 
ATOM     20  C   UNL     1       4.590   7.089  16.476  0.00  0.00    +0.000 A 
ATOM     21  C   UNL     1       3.678   6.437  17.310  0.00  0.00    +0.000 A 
ATOM     22  C   UNL     1       3.684   5.048  17.379  0.00  0.00    +0.000 A 
ATOM     23  C   UNL     1       4.535   4.312  16.554  0.00  0.00    +0.000 A 
BRANCH  18  25
ATOM     24  C   UNL     1       5.440   3.632  13.486  0.00  0.00    +0.000 C 
ATOM     25  C   UNL     1       6.250   4.090  14.706  0.00  0.00    +0.000 C 
ATOM     26  C   UNL     1       7.508   4.827  14.218  0.00  0.00    +0.000 C 
ENDBRANCH  18  25
ENDBRANCH  17  21
ENDBRANCH   1  17
TORSDOF 4
ENDMDL
MODEL 9
REMARK VINA RESULT:      -6.9      1.793      2.463
REMARK  Name = 
REMARK  6 active torsions:
REMARK  status: ('A' for Active; 'I' for Inactive)
REMARK    1  A    between atoms: C_1  and  C_2
REMARK    2  A    between atoms: C_2  and  C_3
REMARK    3  A    between atoms: C_2  and  C_4
REMARK    4  A    between atoms: C_7  and  O_8
REMARK    5  A    between atoms: O_8  and  C_9
REMARK    6  A    between atoms: C_18  and  C_19
REMARK                            x       y       z     vdW  Elec       q    Type
REMARK                         _______ _______ _______ _____ _____    ______ ____
ROOT
ATOM      1  C   UNL     1       1.124   9.124  21.104  0.00  0.00    +0.000 C 
ATOM      2  O   UNL     1       1.716   8.689  22.085  0.00  0.00    +0.000 OA
ATOM      3  N   UNL     1       0.033   9.969  21.226  0.00  0.00    +0.000 N 
ATOM      4  C   UNL     1      -0.587  10.100  22.545  0.00  0.00    +0.000 C 
ATOM      5  C   UNL     1      -1.023  11.544  22.801  0.00  0.00    +0.000 C 
ATOM      6  N   UNL     1      -1.924  11.953  21.719  0.00  0.00    +0.000 N 
ATOM      7  C   UNL     1      -3.028  12.750  21.945  0.00  0.00    +0.000 A 
ATOM      8  C   UNL     1      -3.749  12.669  23.135  0.00  0.00    +0.000 A 
ATOM      9  C   UNL     1      -4.923  13.401  23.314  0.00  0.00    +0.000 A 
ATOM     10  C   UNL     1      -5.353  14.207  22.279  0.00  0.00    +0.000 A 
ATOM     11  N   UNL     1      -4.658  14.302  21.134  0.00  0.00    +0.000 NA
ATOM     12  N   UNL     1      -3.495  13.564  20.976  0.00  0.00    +0.000 NA
ATOM     13  C   UNL     1      -1.349  11.873  20.361  0.00  0.00    +0.000 C 
ATOM     14  C   UNL     1      -0.789  10.447  20.109  0.00  0.00    +0.000 C 
ENDROOT
BRANCH  10  15
ATOM     15  C   UNL     1      -6.565  14.967  22.361  0.00  0.00    +0.000 C 
ATOM     16  N   UNL     1      -7.515  15.623  22.422  0.00  0.00    +0.000 NA
ENDBRANCH  10  15
BRANCH   1  17
ATOM     17  O   UNL     1       1.431   8.807  19.775  0.00  0.00    +0.000 OA
BRANCH  17  21
ATOM     18  C   UNL     1       3.266   5.267  18.349  0.00  0.00    +0.000 A 
ATOM     19  C   UNL     1       3.480   6.516  17.737  0.00  0.00    +0.000 A 
ATOM     20  C   UNL     1       2.904   7.683  18.267  0.00  0.00    +0.000 A 
ATOM     21  C   UNL     1       2.096   7.612  19.406  0.00  0.00    +0.000 A 
ATOM     22  C   UNL     1       1.945   6.397  20.063  0.00  0.00    +0.000 A 
ATOM     23  C   UNL     1       2.524   5.242  19.537  0.00  0.00    +0.000 A 
BRANCH  18  25
ATOM     24  C   UNL     1       2.676   2.985  17.452  0.00  0.00    +0.000 C 
ATOM     25  C   UNL     1       3.811   3.968  17.769  0.00  0.00    +0.000 C 
ATOM     26  C   UNL     1       4.646   4.189  16.496  0.00  0.00    +0.000 C 
ENDBRANCH  18  25
ENDBRANCH  17  21
ENDBRANCH   1  17
TORSDOF 4
ENDMDL
