MODEL 1
REMARK VINA RESULT:      -7.8      0.000      0.000
REMARK  Name = 
REMARK  8 active torsions:
REMARK  status: ('A' for Active; 'I' for Inactive)
REMARK    1  A    between atoms: C_2  and  C_3
REMARK    2  A    between atoms: C_3  and  C_4
REMARK    3  A    between atoms: N_6  and  C_7
REMARK    4  A    between atoms: N_6  and  C_15
REMARK    5  A    between atoms: C_7  and  C_8
REMARK    6  A    between atoms: C_8  and  C_9
REMARK    7  A    between atoms: C_15  and  C_16
REMARK    8  A    between atoms: N_22  and  O_23
REMARK                            x       y       z     vdW  Elec       q    Type
REMARK                         _______ _______ _______ _____ _____    ______ ____
ROOT
ATOM      1  C   UNL     1       6.160   4.227  16.687  0.00  0.00    +0.000 C 
ATOM      2  O   UNL     1       7.227   4.677  17.122  0.00  0.00    +0.000 OA
ATOM      3  N   UNL     1       4.938   4.522  17.291  0.00  0.00    +0.000 N 
ENDROOT
BRANCH   1   4
ATOM      4  C   UNL     1       6.199   3.463  15.389  0.00  0.00    +0.000 C 
BRANCH   4   6
ATOM      5  O   UNL     1       6.310   4.018  13.024  0.00  0.00    +0.000 OA
ATOM      6  C   UNL     1       6.710   4.177  14.169  0.00  0.00    +0.000 C 
ATOM      7  N   UNL     1       7.693   5.092  14.490  0.00  0.00    +0.000 N 
ATOM      8  H   UNL     1       8.148   5.158  15.395  0.00  0.00    +0.000 HD
BRANCH   7   9
ATOM      9  O   UNL     1       8.278   5.815  13.429  0.00  0.00    +0.000 OA
ATOM     10  H   UNL     1       7.590   5.770  12.737  0.00  0.00    +0.000 HD
ENDBRANCH   7   9
ENDBRANCH   4   6
ENDBRANCH   1   4
BRANCH   3  11
ATOM     11  C   UNL     1       3.669   3.843  16.945  0.00  0.00    +0.000 C 
BRANCH  11  12
ATOM     12  C   UNL     1       3.388   2.530  17.693  0.00  0.00    +0.000 C 
BRANCH  12  13
ATOM     13  C   UNL     1       2.666   2.717  19.007  0.00  0.00    +0.000 A 
ATOM     14  C   UNL     1       3.331   2.500  20.223  0.00  0.00    +0.000 A 
ATOM     15  C   UNL     1       2.679   2.730  21.436  0.00  0.00    +0.000 A 
ATOM     16  C   UNL     1       1.358   3.173  21.445  0.00  0.00    +0.000 A 
ATOM     17  C   UNL     1       0.686   3.379  20.241  0.00  0.00    +0.000 A 
ATOM     18  C   UNL     1       1.336   3.150  19.028  0.00  0.00    +0.000 A 
ENDBRANCH  12  13
ENDBRANCH  11  12
ENDBRANCH   3  11
BRANCH   3  19
ATOM     19  C   UNL     1       5.000   5.299  18.540  0.00  0.00    +0.000 C 
BRANCH  19  20
ATOM     20  C   UNL     1       3.867   6.298  18.678  0.00  0.00    +0.000 A 
ATOM     21  C   UNL     1       3.020   6.275  19.797  0.00  0.00    +0.000 A 
ATOM     22  C   UNL     1       1.995   7.215  19.938  0.00  0.00    +0.000 A 
ATOM     23  C   UNL     1       1.811   8.200  18.970  0.00  0.00    +0.000 A 
ATOM     24  C   UNL     1       2.650   8.243  17.859  0.00  0.00    +0.000 A 
ATOM     25  C   UNL     1       3.671   7.301  17.715  0.00  0.00    +0.000 A 
ENDBRANCH  19  20
ENDBRANCH   3  19
TORSDOF 8
ENDMDL
MODEL 2
REMARK VINA RESULT:      -7.7      0.309      1.047
REMARK  Name = 
REMARK  8 active torsions:
REMARK  status: ('A' for Active; 'I' for Inactive)
REMARK    1  A    between atoms: C_2  and  C_3
REMARK    2  A    between atoms: C_3  and  C_4
REMARK    3  A    between atoms: N_6  and  C_7
REMARK    4  A    between atoms: N_6  and  C_15
REMARK    5  A    between atoms: C_7  and  C_8
REMARK    6  A    between atoms: C_8  and  C_9
REMARK    7  A    between atoms: C_15  and  C_16
REMARK    8  A    between atoms: N_22  and  O_23
REMARK                            x       y       z     vdW  Elec       q    Type
REMARK                         _______ _______ _______ _____ _____    ______ ____
ROOT
ATOM      1  C   UNL     1       6.412   4.348  16.507  0.00  0.00    +0.000 C 
ATOM      2  O   UNL     1       7.456   4.889  16.892  0.00  0.00    +0.000 OA
ATOM      3  N   UNL     1       5.194   4.562  17.151  0.00  0.00    +0.000 N 
ENDROOT
BRANCH   1   4
ATOM      4  C   UNL     1       6.463   3.559  15.224  0.00  0.00    +0.000 C 
BRANCH   4   6
ATOM      5  O   UNL     1       6.026   4.209  12.922  0.00  0.00    +0.000 OA
ATOM      6  C   UNL     1       6.690   4.314  13.944  0.00  0.00    +0.000 C 
ATOM      7  N   UNL     1       7.746   5.197  14.055  0.00  0.00    +0.000 N 
ATOM      8  H   UNL     1       8.403   5.217  14.829  0.00  0.00    +0.000 HD
BRANCH   7   9
ATOM      9  O   UNL     1       8.082   5.953  12.912  0.00  0.00    +0.000 OA
ATOM     10  H   UNL     1       7.708   5.418  12.186  0.00  0.00    +0.000 HD
ENDBRANCH   7   9
ENDBRANCH   4   6
ENDBRANCH   1   4
BRANCH   3  11
ATOM     11  C   UNL     1       3.970   3.780  16.868  0.00  0.00    +0.000 C 
BRANCH  11  12
ATOM     12  C   UNL     1       3.766   2.522  17.728  0.00  0.00    +0.000 C 
BRANCH  12  13
ATOM     13  C   UNL     1       2.905   2.750  18.948  0.00  0.00    +0.000 A 
ATOM     14  C   UNL     1       1.534   3.021  18.814  0.00  0.00    +0.000 A 
ATOM     15  C   UNL     1       0.730   3.173  19.944  0.00  0.00    +0.000 A 
ATOM     16  C   UNL     1       1.286   3.063  21.217  0.00  0.00    +0.000 A 
ATOM     17  C   UNL     1       2.648   2.806  21.359  0.00  0.00    +0.000 A 
ATOM     18  C   UNL     1       3.455   2.653  20.231  0.00  0.00    +0.000 A 
ENDBRANCH  12  13
ENDBRANCH  11  12
ENDBRANCH   3  11
BRANCH   3  19
ATOM     19  C   UNL     1       5.241   5.371  18.381  0.00  0.00    +0.000 C 
BRANCH  19  20
ATOM     20  C   UNL     1       4.048   6.297  18.532  0.00  0.00    +0.000 A 
ATOM     21  C   UNL     1       3.223   6.226  19.665  0.00  0.00    +0.000 A 
ATOM     22  C   UNL     1       2.143   7.100  19.818  0.00  0.00    +0.000 A 
ATOM     23  C   UNL     1       1.880   8.065  18.848  0.00  0.00    +0.000 A 
ATOM     24  C   UNL     1       2.696   8.154  17.723  0.00  0.00    +0.000 A 
ATOM     25  C   UNL     1       3.773   7.278  17.568  0.00  0.00    +0.000 A 
ENDBRANCH  19  20
ENDBRANCH   3  19
TORSDOF 8
ENDMDL
MODEL 3
REMARK VINA RESULT:      -7.6      1.894      4.959
REMARK  Name = 
REMARK  8 active torsions:
REMARK  status: ('A' for Active; 'I' for Inactive)
REMARK    1  A    between atoms: C_2  and  C_3
REMARK    2  A    between atoms: C_3  and  C_4
REMARK    3  A    between atoms: N_6  and  C_7
REMARK    4  A    between atoms: N_6  and  C_15
REMARK    5  A    between atoms: C_7  and  C_8
REMARK    6  A    between atoms: C_8  and  C_9
REMARK    7  A    between atoms: C_15  and  C_16
REMARK    8  A    between atoms: N_22  and  O_23
REMARK                            x       y       z     vdW  Elec       q    Type
REMARK                         _______ _______ _______ _____ _____    ______ ____
ROOT
ATOM      1  C   UNL     1       5.814   5.129  17.210  0.00  0.00    +0.000 C 
ATOM      2  O   UNL     1       6.173   4.164  16.526  0.00  0.00    +0.000 OA
ATOM      3  N   UNL     1       4.644   5.099  17.968  0.00  0.00    +0.000 N 
ENDROOT
BRANCH   1   4
ATOM      4  C   UNL     1       6.757   6.299  17.321  0.00  0.00    +0.000 C 
BRANCH   4   6
ATOM      5  O   UNL     1       8.434   7.272  18.791  0.00  0.00    +0.000 OA
ATOM      6  C   UNL     1       7.641   6.376  18.535  0.00  0.00    +0.000 C 
ATOM      7  N   UNL     1       7.436   5.304  19.382  0.00  0.00    +0.000 N 
ATOM      8  H   UNL     1       6.897   4.477  19.146  0.00  0.00    +0.000 HD
BRANCH   7   9
ATOM      9  O   UNL     1       8.224   5.241  20.550  0.00  0.00    +0.000 OA
ATOM     10  H   UNL     1       7.616   4.832  21.195  0.00  0.00    +0.000 HD
ENDBRANCH   7   9
ENDBRANCH   4   6
ENDBRANCH   1   4
BRANCH   3  11
ATOM     11  C   UNL     1       4.062   6.290  18.625  0.00  0.00    +0.000 C 
BRANCH  11  12
ATOM     12  C   UNL     1       3.063   7.098  17.782  0.00  0.00    +0.000 C 
BRANCH  12  13
ATOM     13  C   UNL     1       2.179   8.016  18.595  0.00  0.00    +0.000 A 
ATOM     14  C   UNL     1       1.533   9.105  17.990  0.00  0.00    +0.000 A 
ATOM     15  C   UNL     1       0.671   9.915  18.731  0.00  0.00    +0.000 A 
ATOM     16  C   UNL     1       0.453   9.651  20.081  0.00  0.00    +0.000 A 
ATOM     17  C   UNL     1       1.100   8.579  20.692  0.00  0.00    +0.000 A 
ATOM     18  C   UNL     1       1.961   7.767  19.954  0.00  0.00    +0.000 A 
ENDBRANCH  12  13
ENDBRANCH  11  12
ENDBRANCH   3  11
BRANCH   3  19
ATOM     19  C   UNL     1       3.801   3.900  17.815  0.00  0.00    +0.000 C 
BRANCH  19  20
ATOM     20  C   UNL     1       2.936   3.620  19.029  0.00  0.00    +0.000 A 
ATOM     21  C   UNL     1       1.567   3.926  19.023  0.00  0.00    +0.000 A 
ATOM     22  C   UNL     1       0.764   3.640  20.131  0.00  0.00    +0.000 A 
ATOM     23  C   UNL     1       1.317   3.031  21.256  0.00  0.00    +0.000 A 
ATOM     24  C   UNL     1       2.672   2.711  21.274  0.00  0.00    +0.000 A 
ATOM     25  C   UNL     1       3.475   3.001  20.168  0.00  0.00    +0.000 A 
ENDBRANCH  19  20
ENDBRANCH   3  19
TORSDOF 8
ENDMDL
MODEL 4
REMARK VINA RESULT:      -7.6      1.882      4.886
REMARK  Name = 
REMARK  8 active torsions:
REMARK  status: ('A' for Active; 'I' for Inactive)
REMARK    1  A    between atoms: C_2  and  C_3
REMARK    2  A    between atoms: C_3  and  C_4
REMARK    3  A    between atoms: N_6  and  C_7
REMARK    4  A    between atoms: N_6  and  C_15
REMARK    5  A    between atoms: C_7  and  C_8
REMARK    6  A    between atoms: C_8  and  C_9
REMARK    7  A    between atoms: C_15  and  C_16
REMARK    8  A    between atoms: N_22  and  O_23
REMARK                            x       y       z     vdW  Elec       q    Type
REMARK                         _______ _______ _______ _____ _____    ______ ____
ROOT
ATOM      1  C   UNL     1       5.673   4.940  17.029  0.00  0.00    +0.000 C 
ATOM      2  O   UNL     1       6.233   3.890  16.694  0.00  0.00    +0.000 OA
ATOM      3  N   UNL     1       4.339   4.963  17.435  0.00  0.00    +0.000 N 
ENDROOT
BRANCH   1   4
ATOM      4  C   UNL     1       6.517   6.184  17.130  0.00  0.00    +0.000 C 
BRANCH   4   6
ATOM      5  O   UNL     1       8.243   7.211  18.502  0.00  0.00    +0.000 OA
ATOM      6  C   UNL     1       7.408   6.333  18.331  0.00  0.00    +0.000 C 
ATOM      7  N   UNL     1       7.156   5.356  19.275  0.00  0.00    +0.000 N 
ATOM      8  H   UNL     1       6.578   4.537  19.118  0.00  0.00    +0.000 HD
BRANCH   7   9
ATOM      9  O   UNL     1       7.945   5.367  20.445  0.00  0.00    +0.000 OA
ATOM     10  H   UNL     1       7.279   5.477  21.150  0.00  0.00    +0.000 HD
ENDBRANCH   7   9
ENDBRANCH   4   6
ENDBRANCH   1   4
BRANCH   3  11
ATOM     11  C   UNL     1       3.566   6.209  17.636  0.00  0.00    +0.000 C 
BRANCH  11  12
ATOM     12  C   UNL     1       3.235   6.563  19.095  0.00  0.00    +0.000 C 
BRANCH  12  13
ATOM     13  C   UNL     1       2.292   7.734  19.240  0.00  0.00    +0.000 A 
ATOM     14  C   UNL     1       2.027   8.576  18.148  0.00  0.00    +0.000 A 
ATOM     15  C   UNL     1       1.111   9.622  18.269  0.00  0.00    +0.000 A 
ATOM     16  C   UNL     1       0.457   9.841  19.480  0.00  0.00    +0.000 A 
ATOM     17  C   UNL     1       0.723   9.017  20.572  0.00  0.00    +0.000 A 
ATOM     18  C   UNL     1       1.638   7.970  20.454  0.00  0.00    +0.000 A 
ENDBRANCH  12  13
ENDBRANCH  11  12
ENDBRANCH   3  11
BRANCH   3  19
ATOM     19  C   UNL     1       3.604   3.691  17.328  0.00  0.00    +0.000 C 
BRANCH  19  20
ATOM     20  C   UNL     1       2.832   3.341  18.586  0.00  0.00    +0.000 A 
ATOM     21  C   UNL     1       3.502   2.971  19.762  0.00  0.00    +0.000 A 
ATOM     22  C   UNL     1       2.792   2.677  20.929  0.00  0.00    +0.000 A 
ATOM     23  C   UNL     1       1.401   2.762  20.941  0.00  0.00    +0.000 A 
ATOM     24  C   UNL     1       0.721   3.139  19.785  0.00  0.00    +0.000 A 
ATOM     25  C   UNL     1       1.431   3.428  18.618  0.00  0.00    +0.000 A 
ENDBRANCH  19  20
ENDBRANCH   3  19
TORSDOF 8
ENDMDL
MODEL 5
REMARK VINA RESULT:      -7.5      1.664      4.545
REMARK  Name = 
REMARK  8 active torsions:
REMARK  status: ('A' for Active; 'I' for Inactive)
REMARK    1  A    between atoms: C_2  and  C_3
REMARK    2  A    between atoms: C_3  and  C_4
REMARK    3  A    between atoms: N_6  and  C_7
REMARK    4  A    between atoms: N_6  and  C_15
REMARK    5  A    between atoms: C_7  and  C_8
REMARK    6  A    between atoms: C_8  and  C_9
REMARK    7  A    between atoms: C_15  and  C_16
REMARK    8  A    between atoms: N_22  and  O_23
REMARK                            x       y       z     vdW  Elec       q    Type
REMARK                         _______ _______ _______ _____ _____    ______ ____
ROOT
ATOM      1  C   UNL     1       5.539   4.296  16.563  0.00  0.00    +0.000 C 
ATOM      2  O   UNL     1       5.600   3.305  15.825  0.00  0.00    +0.000 OA
ATOM      3  N   UNL     1       4.519   4.450  17.502  0.00  0.00    +0.000 N 
ENDROOT
BRANCH   1   4
ATOM      4  C   UNL     1       6.687   5.271  16.524  0.00  0.00    +0.000 C 
BRANCH   4   6
ATOM      5  O   UNL     1       7.966   4.502  18.444  0.00  0.00    +0.000 OA
ATOM      6  C   UNL     1       7.526   5.418  17.762  0.00  0.00    +0.000 C 
ATOM      7  N   UNL     1       7.788   6.744  18.045  0.00  0.00    +0.000 N 
ATOM      8  H   UNL     1       7.335   7.532  17.593  0.00  0.00    +0.000 HD
BRANCH   7   9
ATOM      9  O   UNL     1       8.548   7.023  19.200  0.00  0.00    +0.000 OA
ATOM     10  H   UNL     1       9.202   7.671  18.874  0.00  0.00    +0.000 HD
ENDBRANCH   7   9
ENDBRANCH   4   6
ENDBRANCH   1   4
BRANCH   3  11
ATOM     11  C   UNL     1       4.279   5.703  18.251  0.00  0.00    +0.000 C 
BRANCH  11  12
ATOM     12  C   UNL     1       3.544   6.813  17.483  0.00  0.00    +0.000 C 
BRANCH  12  13
ATOM     13  C   UNL     1       2.655   7.671  18.351  0.00  0.00    +0.000 A 
ATOM     14  C   UNL     1       2.074   8.842  17.839  0.00  0.00    +0.000 A 
ATOM     15  C   UNL     1       1.207   9.603  18.626  0.00  0.00    +0.000 A 
ATOM     16  C   UNL     1       0.916   9.205  19.929  0.00  0.00    +0.000 A 
ATOM     17  C   UNL     1       1.499   8.050  20.449  0.00  0.00    +0.000 A 
ATOM     18  C   UNL     1       2.366   7.288  19.665  0.00  0.00    +0.000 A 
ENDBRANCH  12  13
ENDBRANCH  11  12
ENDBRANCH   3  11
BRANCH   3  19
ATOM     19  C   UNL     1       3.457   3.430  17.483  0.00  0.00    +0.000 C 
BRANCH  19  20
ATOM     20  C   UNL     1       2.726   3.305  18.806  0.00  0.00    +0.000 A 
ATOM     21  C   UNL     1       3.348   2.719  19.919  0.00  0.00    +0.000 A 
ATOM     22  C   UNL     1       2.685   2.632  21.146  0.00  0.00    +0.000 A 
ATOM     23  C   UNL     1       1.395   3.140  21.282  0.00  0.00    +0.000 A 
ATOM     24  C   UNL     1       0.767   3.734  20.189  0.00  0.00    +0.000 A 
ATOM     25  C   UNL     1       1.428   3.817  18.962  0.00  0.00    +0.000 A 
ENDBRANCH  19  20
ENDBRANCH   3  19
TORSDOF 8
ENDMDL
MODEL 6
REMARK VINA RESULT:      -7.4      1.238      4.011
REMARK  Name = 
REMARK  8 active torsions:
REMARK  status: ('A' for Active; 'I' for Inactive)
REMARK    1  A    between atoms: C_2  and  C_3
REMARK    2  A    between atoms: C_3  and  C_4
REMARK    3  A    between atoms: N_6  and  C_7
REMARK    4  A    between atoms: N_6  and  C_15
REMARK    5  A    between atoms: C_7  and  C_8
REMARK    6  A    between atoms: C_8  and  C_9
REMARK    7  A    between atoms: C_15  and  C_16
REMARK    8  A    between atoms: N_22  and  O_23
REMARK                            x       y       z     vdW  Elec       q    Type
REMARK                         _______ _______ _______ _____ _____    ______ ____
ROOT
ATOM      1  C   UNL     1       5.368   4.412  16.642  0.00  0.00    +0.000 C 
ATOM      2  O   UNL     1       5.549   3.207  16.432  0.00  0.00    +0.000 OA
ATOM      3  N   UNL     1       5.045   4.897  17.908  0.00  0.00    +0.000 N 
ENDROOT
BRANCH   1   4
ATOM      4  C   UNL     1       5.653   5.370  15.513  0.00  0.00    +0.000 C 
BRANCH   4   6
ATOM      5  O   UNL     1       7.667   5.329  14.151  0.00  0.00    +0.000 OA
ATOM      6  C   UNL     1       6.549   4.899  14.402  0.00  0.00    +0.000 C 
ATOM      7  N   UNL     1       5.973   3.868  13.686  0.00  0.00    +0.000 N 
ATOM      8  H   UNL     1       5.004   3.578  13.770  0.00  0.00    +0.000 HD
BRANCH   7   9
ATOM      9  O   UNL     1       6.702   3.350  12.595  0.00  0.00    +0.000 OA
ATOM     10  H   UNL     1       7.613   3.646  12.787  0.00  0.00    +0.000 HD
ENDBRANCH   7   9
ENDBRANCH   4   6
ENDBRANCH   1   4
BRANCH   3  11
ATOM     11  C   UNL     1       4.610   6.288  18.166  0.00  0.00    +0.000 C 
BRANCH  11  12
ATOM     12  C   UNL     1       3.269   6.697  17.538  0.00  0.00    +0.000 C 
BRANCH  12  13
ATOM     13  C   UNL     1       2.423   7.581  18.426  0.00  0.00    +0.000 A 
ATOM     14  C   UNL     1       2.221   7.251  19.775  0.00  0.00    +0.000 A 
ATOM     15  C   UNL     1       1.488   8.099  20.607  0.00  0.00    +0.000 A 
ATOM     16  C   UNL     1       0.947   9.279  20.100  0.00  0.00    +0.000 A 
ATOM     17  C   UNL     1       1.134   9.608  18.758  0.00  0.00    +0.000 A 
ATOM     18  C   UNL     1       1.866   8.762  17.924  0.00  0.00    +0.000 A 
ENDBRANCH  12  13
ENDBRANCH  11  12
ENDBRANCH   3  11
BRANCH   3  19
ATOM     19  C   UNL     1       4.814   3.885  18.953  0.00  0.00    +0.000 C 
BRANCH  19  20
ATOM     20  C   UNL     1       3.344   3.666  19.258  0.00  0.00    +0.000 A 
ATOM     21  C   UNL     1       2.471   3.176  18.274  0.00  0.00    +0.000 A 
ATOM     22  C   UNL     1       1.123   2.946  18.564  0.00  0.00    +0.000 A 
ATOM     23  C   UNL     1       0.631   3.190  19.845  0.00  0.00    +0.000 A 
ATOM     24  C   UNL     1       1.487   3.666  20.835  0.00  0.00    +0.000 A 
ATOM     25  C   UNL     1       2.833   3.901  20.544  0.00  0.00    +0.000 A 
ENDBRANCH  19  20
ENDBRANCH   3  19
TORSDOF 8
ENDMDL
MODEL 7
REMARK VINA RESULT:      -7.3      1.678      4.696
REMARK  Name = 
REMARK  8 active torsions:
REMARK  status: ('A' for Active; 'I' for Inactive)
REMARK    1  A    between atoms: C_2  and  C_3
REMARK    2  A    between atoms: C_3  and  C_4
REMARK    3  A    between atoms: N_6  and  C_7
REMARK    4  A    between atoms: N_6  and  C_15
REMARK    5  A    between atoms: C_7  and  C_8
REMARK    6  A    between atoms: C_8  and  C_9
REMARK    7  A    between atoms: C_15  and  C_16
REMARK    8  A    between atoms: N_22  and  O_23
REMARK                            x       y       z     vdW  Elec       q    Type
REMARK                         _______ _______ _______ _____ _____    ______ ____
ROOT
ATOM      1  C   UNL     1       4.576   5.185  17.427  0.00  0.00    +0.000 C 
ATOM      2  O   UNL     1       4.484   3.998  17.093  0.00  0.00    +0.000 OA
ATOM      3  N   UNL     1       3.473   5.910  17.876  0.00  0.00    +0.000 N 
ENDROOT
BRANCH   1   4
ATOM      4  C   UNL     1       5.954   5.793  17.476  0.00  0.00    +0.000 C 
BRANCH   4   6
ATOM      5  O   UNL     1       7.903   4.501  16.807  0.00  0.00    +0.000 OA
ATOM      6  C   UNL     1       6.989   5.264  16.523  0.00  0.00    +0.000 C 
ATOM      7  N   UNL     1       6.777   5.720  15.237  0.00  0.00    +0.000 N 
ATOM      8  H   UNL     1       6.124   6.455  14.985  0.00  0.00    +0.000 HD
BRANCH   7   9
ATOM      9  O   UNL     1       7.697   5.316  14.246  0.00  0.00    +0.000 OA
ATOM     10  H   UNL     1       8.384   4.859  14.768  0.00  0.00    +0.000 HD
ENDBRANCH   7   9
ENDBRANCH   4   6
ENDBRANCH   1   4
BRANCH   3  11
ATOM     11  C   UNL     1       3.484   7.375  18.079  0.00  0.00    +0.000 C 
BRANCH  11  12
ATOM     12  C   UNL     1       2.137   8.089  17.881  0.00  0.00    +0.000 C 
BRANCH  12  13
ATOM     13  C   UNL     1       1.607   8.750  19.131  0.00  0.00    +0.000 A 
ATOM     14  C   UNL     1       1.031  10.030  19.072  0.00  0.00    +0.000 A 
ATOM     15  C   UNL     1       0.490  10.614  20.218  0.00  0.00    +0.000 A 
ATOM     16  C   UNL     1       0.522   9.931  21.432  0.00  0.00    +0.000 A 
ATOM     17  C   UNL     1       1.102   8.666  21.502  0.00  0.00    +0.000 A 
ATOM     18  C   UNL     1       1.644   8.079  20.358  0.00  0.00    +0.000 A 
ENDBRANCH  12  13
ENDBRANCH  11  12
ENDBRANCH   3  11
BRANCH   3  19
ATOM     19  C   UNL     1       2.173   5.220  17.817  0.00  0.00    +0.000 C 
BRANCH  19  20
ATOM     20  C   UNL     1       1.894   4.369  19.042  0.00  0.00    +0.000 A 
ATOM     21  C   UNL     1       1.200   3.154  18.930  0.00  0.00    +0.000 A 
ATOM     22  C   UNL     1       0.970   2.355  20.054  0.00  0.00    +0.000 A 
ATOM     23  C   UNL     1       1.441   2.754  21.303  0.00  0.00    +0.000 A 
ATOM     24  C   UNL     1       2.140   3.952  21.429  0.00  0.00    +0.000 A 
ATOM     25  C   UNL     1       2.366   4.752  20.307  0.00  0.00    +0.000 A 
ENDBRANCH  19  20
ENDBRANCH   3  19
TORSDOF 8
ENDMDL
MODEL 8
REMARK VINA RESULT:      -7.3      1.980      4.841
REMARK  Name = 
REMARK  8 active torsions:
REMARK  status: ('A' for Active; 'I' for Inactive)
REMARK    1  A    between atoms: C_2  and  C_3
REMARK    2  A    between atoms: C_3  and  C_4
REMARK    3  A    between atoms: N_6  and  C_7
REMARK    4  A    between atoms: N_6  and  C_15
REMARK    5  A    between atoms: C_7  and  C_8
REMARK    6  A    between atoms: C_8  and  C_9
REMARK    7  A    between atoms: C_15  and  C_16
REMARK    8  A    between atoms: N_22  and  O_23
REMARK                            x       y       z     vdW  Elec       q    Type
REMARK                         _______ _______ _______ _____ _____    ______ ____
ROOT
ATOM      1  C   UNL     1       4.410   5.724  17.333  0.00  0.00    +0.000 C 
ATOM      2  O   UNL     1       4.383   4.548  16.952  0.00  0.00    +0.000 OA
ATOM      3  N   UNL     1       3.287   6.347  17.875  0.00  0.00    +0.000 N 
ENDROOT
BRANCH   1   4
ATOM      4  C   UNL     1       5.742   6.429  17.333  0.00  0.00    +0.000 C 
BRANCH   4   6
ATOM      5  O   UNL     1       7.587   5.726  15.912  0.00  0.00    +0.000 OA
ATOM      6  C   UNL     1       6.959   5.630  16.958  0.00  0.00    +0.000 C 
ATOM      7  N   UNL     1       7.331   4.766  17.969  0.00  0.00    +0.000 N 
ATOM      8  H   UNL     1       6.767   4.556  18.786  0.00  0.00    +0.000 HD
BRANCH   7   9
ATOM      9  O   UNL     1       8.448   3.936  17.735  0.00  0.00    +0.000 OA
ATOM     10  H   UNL     1       8.627   3.565  18.620  0.00  0.00    +0.000 HD
ENDBRANCH   7   9
ENDBRANCH   4   6
ENDBRANCH   1   4
BRANCH   3  11
ATOM     11  C   UNL     1       3.207   7.800  18.144  0.00  0.00    +0.000 C 
BRANCH  11  12
ATOM     12  C   UNL     1       1.826   8.443  17.941  0.00  0.00    +0.000 C 
BRANCH  12  13
ATOM     13  C   UNL     1       1.190   8.941  19.218  0.00  0.00    +0.000 A 
ATOM     14  C   UNL     1       1.501   8.343  20.450  0.00  0.00    +0.000 A 
ATOM     15  C   UNL     1       0.957   8.843  21.634  0.00  0.00    +0.000 A 
ATOM     16  C   UNL     1       0.095   9.937  21.600  0.00  0.00    +0.000 A 
ATOM     17  C   UNL     1      -0.228  10.528  20.380  0.00  0.00    +0.000 A 
ATOM     18  C   UNL     1       0.315  10.032  19.194  0.00  0.00    +0.000 A 
ENDBRANCH  12  13
ENDBRANCH  11  12
ENDBRANCH   3  11
BRANCH   3  19
ATOM     19  C   UNL     1       2.038   5.567  17.858  0.00  0.00    +0.000 C 
BRANCH  19  20
ATOM     20  C   UNL     1       1.935   4.579  19.005  0.00  0.00    +0.000 A 
ATOM     21  C   UNL     1       2.248   4.967  20.317  0.00  0.00    +0.000 A 
ATOM     22  C   UNL     1       2.124   4.065  21.378  0.00  0.00    +0.000 A 
ATOM     23  C   UNL     1       1.673   2.768  21.145  0.00  0.00    +0.000 A 
ATOM     24  C   UNL     1       1.349   2.371  19.850  0.00  0.00    +0.000 A 
ATOM     25  C   UNL     1       1.477   3.270  18.789  0.00  0.00    +0.000 A 
ENDBRANCH  19  20
ENDBRANCH   3  19
TORSDOF 8
ENDMDL
MODEL 9
REMARK VINA RESULT:      -7.3      1.227      1.722
REMARK  Name = 
REMARK  8 active torsions:
REMARK  status: ('A' for Active; 'I' for Inactive)
REMARK    1  A    between atoms: C_2  and  C_3
REMARK    2  A    between atoms: C_3  and  C_4
REMARK    3  A    between atoms: N_6  and  C_7
REMARK    4  A    between atoms: N_6  and  C_15
REMARK    5  A    between atoms: C_7  and  C_8
REMARK    6  A    between atoms: C_8  and  C_9
REMARK    7  A    between atoms: C_15  and  C_16
REMARK    8  A    between atoms: N_22  and  O_23
REMARK                            x       y       z     vdW  Elec       q    Type
REMARK                         _______ _______ _______ _____ _____    ______ ____
ROOT
ATOM      1  C   UNL     1       5.397   5.219  15.559  0.00  0.00    +0.000 C 
ATOM      2  O   UNL     1       5.889   6.337  15.365  0.00  0.00    +0.000 OA
ATOM      3  N   UNL     1       4.946   4.823  16.818  0.00  0.00    +0.000 N 
ENDROOT
BRANCH   1   4
ATOM      4  C   UNL     1       5.159   4.340  14.359  0.00  0.00    +0.000 C 
BRANCH   4   6
ATOM      5  O   UNL     1       7.345   4.736  13.368  0.00  0.00    +0.000 OA
ATOM      6  C   UNL     1       6.322   4.069  13.446  0.00  0.00    +0.000 C 
ATOM      7  N   UNL     1       6.124   2.925  12.696  0.00  0.00    +0.000 N 
ATOM      8  H   UNL     1       5.244   2.425  12.628  0.00  0.00    +0.000 HD
BRANCH   7   9
ATOM      9  O   UNL     1       7.133   2.571  11.777  0.00  0.00    +0.000 OA
ATOM     10  H   UNL     1       7.579   1.827  12.226  0.00  0.00    +0.000 HD
ENDBRANCH   7   9
ENDBRANCH   4   6
ENDBRANCH   1   4
BRANCH   3  11
ATOM     11  C   UNL     1       4.552   3.436  17.148  0.00  0.00    +0.000 C 
BRANCH  11  12
ATOM     12  C   UNL     1       3.041   3.171  17.233  0.00  0.00    +0.000 C 
BRANCH  12  13
ATOM     13  C   UNL     1       2.499   3.173  18.644  0.00  0.00    +0.000 A 
ATOM     14  C   UNL     1       1.182   3.587  18.902  0.00  0.00    +0.000 A 
ATOM     15  C   UNL     1       0.666   3.533  20.197  0.00  0.00    +0.000 A 
ATOM     16  C   UNL     1       1.458   3.071  21.246  0.00  0.00    +0.000 A 
ATOM     17  C   UNL     1       2.770   2.669  21.000  0.00  0.00    +0.000 A 
ATOM     18  C   UNL     1       3.289   2.722  19.706  0.00  0.00    +0.000 A 
ENDBRANCH  12  13
ENDBRANCH  11  12
ENDBRANCH   3  11
BRANCH   3  19
ATOM     19  C   UNL     1       5.198   5.763  17.924  0.00  0.00    +0.000 C 
BRANCH  19  20
ATOM     20  C   UNL     1       3.975   6.576  18.306  0.00  0.00    +0.000 A 
ATOM     21  C   UNL     1       3.320   6.358  19.528  0.00  0.00    +0.000 A 
ATOM     22  C   UNL     1       2.212   7.128  19.893  0.00  0.00    +0.000 A 
ATOM     23  C   UNL     1       1.752   8.136  19.048  0.00  0.00    +0.000 A 
ATOM     24  C   UNL     1       2.398   8.372  17.837  0.00  0.00    +0.000 A 
ATOM     25  C   UNL     1       3.502   7.599  17.470  0.00  0.00    +0.000 A 
ENDBRANCH  19  20
ENDBRANCH   3  19
TORSDOF 8
ENDMDL
