MODEL 1
REMARK VINA RESULT:      -7.8      0.000      0.000
REMARK  Name = 
REMARK  10 active torsions:
REMARK  status: ('A' for Active; 'I' for Inactive)
REMARK    1  A    between atoms: C_1  and  S_2
REMARK    2  A    between atoms: S_2  and  N_5
REMARK    3  A    between atoms: N_5  and  C_6
REMARK    4  A    between atoms: N_5  and  C_15
REMARK    5  A    between atoms: C_6  and  C_7
REMARK    6  A    between atoms: C_7  and  C_8
REMARK    7  A    between atoms: C_8  and  N_9
REMARK    8  A    between atoms: N_21  and  C_22
REMARK    9  A    between atoms: C_22  and  C_23
REMARK   10  A    between atoms: C_23  and  C_24
REMARK                            x       y       z     vdW  Elec       q    Type
REMARK                         _______ _______ _______ _____ _____    ______ ____
ROOT
ATOM      1  C   UNL     1       4.203   4.720  17.753  0.00  0.00    +0.000 C 
ATOM      2  C   UNL     1       3.877   6.009  16.987  0.00  0.00    +0.000 C 
ATOM      3  C   UNL     1       5.236   6.566  16.595  0.00  0.00    +0.000 C 
ATOM      4  N   UNL     1       6.144   6.106  17.627  0.00  0.00    +0.000 N 
ATOM      5  C   UNL     1       7.289   6.703  18.095  0.00  0.00    +0.000 C 
ATOM      6  O   UNL     1       7.941   6.227  19.022  0.00  0.00    +0.000 OA
ATOM      7  N   UNL     1       7.640   7.872  17.481  0.00  0.00    +0.000 N 
ATOM      8  C   UNL     1       5.624   4.922  18.291  0.00  0.00    +0.000 C 
ATOM      9  H   UNL     1       7.252   8.083  16.577  0.00  0.00    +0.000 HD
ENDROOT
BRANCH   1  10
ATOM     10  N   UNL     1       3.141   4.396  18.768  0.00  0.00    +0.000 NA
BRANCH  10  12
ATOM     11  C   UNL     1       0.834   3.329  19.826  0.00  0.00    +0.000 C 
ATOM     12  S   UNL     1       1.778   3.479  18.320  0.00  0.00    +0.000 S 
ATOM     13  O   UNL     1       2.230   2.143  17.980  0.00  0.00    +0.000 OA
ATOM     14  O   UNL     1       0.986   4.234  17.379  0.00  0.00    +0.000 OA
ENDBRANCH  10  12
BRANCH  10  15
ATOM     15  C   UNL     1       3.051   5.377  19.886  0.00  0.00    +0.000 C 
BRANCH  15  16
ATOM     16  C   UNL     1       2.387   6.711  19.541  0.00  0.00    +0.000 C 
BRANCH  16  17
ATOM     17  C   UNL     1       1.450   7.274  20.629  0.00  0.00    +0.000 C 
BRANCH  17  18
ATOM     18  N   UNL     1       1.701   8.706  20.892  0.00  0.00    +0.000 NA
ATOM     19  C   UNL     1       1.365   9.088  22.287  0.00  0.00    +0.000 C 
ATOM     20  C   UNL     1      -0.135   9.306  22.570  0.00  0.00    +0.000 C 
ATOM     21  O   UNL     1      -0.727  10.220  21.640  0.00  0.00    +0.000 OA
ATOM     22  C   UNL     1      -0.538   9.744  20.303  0.00  0.00    +0.000 C 
ATOM     23  C   UNL     1       0.959   9.619  19.988  0.00  0.00    +0.000 C 
ENDBRANCH  17  18
ENDBRANCH  16  17
ENDBRANCH  15  16
ENDBRANCH  10  15
ENDBRANCH   1  10
BRANCH   7  24
ATOM     24  C   UNL     1       8.774   8.645  17.950  0.00  0.00    +0.000 C 
BRANCH  24  25
ATOM     25  C   UNL     1       8.424  10.091  18.323  0.00  0.00    +0.000 C 
BRANCH  25  26
ATOM     26  C   UNL     1       9.586  10.928  18.803  0.00  0.00    +0.000 A 
ATOM     27  C   UNL     1       9.730  11.255  20.161  0.00  0.00    +0.000 A 
ATOM     28  C   UNL     1      10.816  12.015  20.594  0.00  0.00    +0.000 A 
ATOM     29  C   UNL     1      11.778  12.448  19.687  0.00  0.00    +0.000 A 
ATOM     30  C   UNL     1      11.659  12.115  18.338  0.00  0.00    +0.000 A 
ATOM     31  C   UNL     1      10.571  11.354  17.901  0.00  0.00    +0.000 A 
ENDBRANCH  25  26
ENDBRANCH  24  25
ENDBRANCH   7  24
TORSDOF 9
ENDMDL
MODEL 2
REMARK VINA RESULT:      -7.7      1.167      1.436
REMARK  Name = 
REMARK  10 active torsions:
REMARK  status: ('A' for Active; 'I' for Inactive)
REMARK    1  A    between atoms: C_1  and  S_2
REMARK    2  A    between atoms: S_2  and  N_5
REMARK    3  A    between atoms: N_5  and  C_6
REMARK    4  A    between atoms: N_5  and  C_15
REMARK    5  A    between atoms: C_6  and  C_7
REMARK    6  A    between atoms: C_7  and  C_8
REMARK    7  A    between atoms: C_8  and  N_9
REMARK    8  A    between atoms: N_21  and  C_22
REMARK    9  A    between atoms: C_22  and  C_23
REMARK   10  A    between atoms: C_23  and  C_24
REMARK                            x       y       z     vdW  Elec       q    Type
REMARK                         _______ _______ _______ _____ _____    ______ ____
ROOT
ATOM      1  C   UNL     1       4.370   4.539  17.812  0.00  0.00    +0.000 C 
ATOM      2  C   UNL     1       3.931   5.895  17.244  0.00  0.00    +0.000 C 
ATOM      3  C   UNL     1       5.232   6.581  16.862  0.00  0.00    +0.000 C 
ATOM      4  N   UNL     1       6.223   6.045  17.774  0.00  0.00    +0.000 N 
ATOM      5  C   UNL     1       7.360   6.644  18.259  0.00  0.00    +0.000 C 
ATOM      6  O   UNL     1       8.090   6.091  19.079  0.00  0.00    +0.000 OA
ATOM      7  N   UNL     1       7.611   7.903  17.791  0.00  0.00    +0.000 N 
ATOM      8  C   UNL     1       5.808   4.755  18.299  0.00  0.00    +0.000 C 
ATOM      9  H   UNL     1       7.159   8.207  16.945  0.00  0.00    +0.000 HD
ENDROOT
BRANCH   1  10
ATOM     10  N   UNL     1       3.389   4.020  18.828  0.00  0.00    +0.000 NA
BRANCH  10  12
ATOM     11  C   UNL     1       1.672   2.149  19.892  0.00  0.00    +0.000 C 
ATOM     12  S   UNL     1       3.272   2.347  19.129  0.00  0.00    +0.000 S 
ATOM     13  O   UNL     1       4.257   2.005  20.137  0.00  0.00    +0.000 OA
ATOM     14  O   UNL     1       3.250   1.639  17.871  0.00  0.00    +0.000 OA
ENDBRANCH  10  12
BRANCH  10  15
ATOM     15  C   UNL     1       2.210   4.905  19.040  0.00  0.00    +0.000 C 
BRANCH  15  16
ATOM     16  C   UNL     1       2.342   5.921  20.175  0.00  0.00    +0.000 C 
BRANCH  16  17
ATOM     17  C   UNL     1       1.244   7.004  20.213  0.00  0.00    +0.000 C 
BRANCH  17  18
ATOM     18  N   UNL     1       1.808   8.369  20.182  0.00  0.00    +0.000 NA
ATOM     19  C   UNL     1       0.913   9.361  20.829  0.00  0.00    +0.000 C 
ATOM     20  C   UNL     1      -0.274   9.840  19.969  0.00  0.00    +0.000 C 
ATOM     21  O   UNL     1       0.151  10.306  18.683  0.00  0.00    +0.000 OA
ATOM     22  C   UNL     1       0.871   9.271  18.003  0.00  0.00    +0.000 C 
ATOM     23  C   UNL     1       2.108   8.862  18.814  0.00  0.00    +0.000 C 
ENDBRANCH  17  18
ENDBRANCH  16  17
ENDBRANCH  15  16
ENDBRANCH  10  15
ENDBRANCH   1  10
BRANCH   7  24
ATOM     24  C   UNL     1       8.727   8.675  18.301  0.00  0.00    +0.000 C 
BRANCH  24  25
ATOM     25  C   UNL     1       8.535  10.192  18.183  0.00  0.00    +0.000 C 
BRANCH  25  26
ATOM     26  C   UNL     1       9.706  11.025  18.649  0.00  0.00    +0.000 A 
ATOM     27  C   UNL     1       9.967  11.204  20.017  0.00  0.00    +0.000 A 
ATOM     28  C   UNL     1      11.060  11.963  20.435  0.00  0.00    +0.000 A 
ATOM     29  C   UNL     1      11.914  12.541  19.500  0.00  0.00    +0.000 A 
ATOM     30  C   UNL     1      11.678  12.356  18.138  0.00  0.00    +0.000 A 
ATOM     31  C   UNL     1      10.582  11.597  17.717  0.00  0.00    +0.000 A 
ENDBRANCH  25  26
ENDBRANCH  24  25
ENDBRANCH   7  24
TORSDOF 9
ENDMDL
MODEL 3
REMARK VINA RESULT:      -7.6      3.880      8.660
REMARK  Name = 
REMARK  10 active torsions:
REMARK  status: ('A' for Active; 'I' for Inactive)
REMARK    1  A    between atoms: C_1  and  S_2
REMARK    2  A    between atoms: S_2  and  N_5
REMARK    3  A    between atoms: N_5  and  C_6
REMARK    4  A    between atoms: N_5  and  C_15
REMARK    5  A    between atoms: C_6  and  C_7
REMARK    6  A    between atoms: C_7  and  C_8
REMARK    7  A    between atoms: C_8  and  N_9
REMARK    8  A    between atoms: N_21  and  C_22
REMARK    9  A    between atoms: C_22  and  C_23
REMARK   10  A    between atoms: C_23  and  C_24
REMARK                            x       y       z     vdW  Elec       q    Type
REMARK                         _______ _______ _______ _____ _____    ______ ____
ROOT
ATOM      1  C   UNL     1       2.440   5.516  19.974  0.00  0.00    +0.000 C 
ATOM      2  C   UNL     1       2.778   6.584  18.926  0.00  0.00    +0.000 C 
ATOM      3  C   UNL     1       2.464   7.901  19.617  0.00  0.00    +0.000 C 
ATOM      4  N   UNL     1       1.409   7.589  20.562  0.00  0.00    +0.000 N 
ATOM      5  C   UNL     1       0.403   8.399  21.027  0.00  0.00    +0.000 C 
ATOM      6  O   UNL     1      -0.467   7.986  21.791  0.00  0.00    +0.000 OA
ATOM      7  N   UNL     1       0.417   9.685  20.565  0.00  0.00    +0.000 N 
ATOM      8  C   UNL     1       1.413   6.176  20.902  0.00  0.00    +0.000 C 
ATOM      9  H   UNL     1       1.268  10.052  20.172  0.00  0.00    +0.000 HD
ENDROOT
BRANCH   1  10
ATOM     10  N   UNL     1       2.027   4.220  19.331  0.00  0.00    +0.000 NA
BRANCH  10  12
ATOM     11  C   UNL     1       1.596   2.838  21.672  0.00  0.00    +0.000 C 
ATOM     12  S   UNL     1       2.395   2.736  20.081  0.00  0.00    +0.000 S 
ATOM     13  O   UNL     1       3.822   2.706  20.336  0.00  0.00    +0.000 OA
ATOM     14  O   UNL     1       1.771   1.663  19.344  0.00  0.00    +0.000 OA
ENDBRANCH  10  12
BRANCH  10  15
ATOM     15  C   UNL     1       1.882   4.297  17.850  0.00  0.00    +0.000 C 
BRANCH  15  16
ATOM     16  C   UNL     1       2.993   3.626  17.042  0.00  0.00    +0.000 C 
BRANCH  16  17
ATOM     17  C   UNL     1       4.128   4.565  16.586  0.00  0.00    +0.000 C 
BRANCH  17  18
ATOM     18  N   UNL     1       5.456   3.929  16.699  0.00  0.00    +0.000 NA
ATOM     19  C   UNL     1       6.394   4.731  17.524  0.00  0.00    +0.000 C 
ATOM     20  C   UNL     1       7.040   5.935  16.810  0.00  0.00    +0.000 C 
ATOM     21  O   UNL     1       7.653   5.556  15.572  0.00  0.00    +0.000 OA
ATOM     22  C   UNL     1       6.686   4.934  14.720  0.00  0.00    +0.000 C 
ATOM     23  C   UNL     1       6.113   3.678  15.392  0.00  0.00    +0.000 C 
ENDBRANCH  17  18
ENDBRANCH  16  17
ENDBRANCH  15  16
ENDBRANCH  10  15
ENDBRANCH   1  10
BRANCH   7  24
ATOM     24  C   UNL     1      -0.647  10.608  20.908  0.00  0.00    +0.000 C 
BRANCH  24  25
ATOM     25  C   UNL     1      -0.906  11.677  19.839  0.00  0.00    +0.000 C 
BRANCH  25  26
ATOM     26  C   UNL     1      -1.846  11.261  18.731  0.00  0.00    +0.000 A 
ATOM     27  C   UNL     1      -1.454  10.321  17.766  0.00  0.00    +0.000 A 
ATOM     28  C   UNL     1      -2.335   9.934  16.757  0.00  0.00    +0.000 A 
ATOM     29  C   UNL     1      -3.621  10.465  16.704  0.00  0.00    +0.000 A 
ATOM     30  C   UNL     1      -4.031  11.386  17.667  0.00  0.00    +0.000 A 
ATOM     31  C   UNL     1      -3.148  11.777  18.678  0.00  0.00    +0.000 A 
ENDBRANCH  25  26
ENDBRANCH  24  25
ENDBRANCH   7  24
TORSDOF 9
ENDMDL
MODEL 4
REMARK VINA RESULT:      -7.6      1.304      1.876
REMARK  Name = 
REMARK  10 active torsions:
REMARK  status: ('A' for Active; 'I' for Inactive)
REMARK    1  A    between atoms: C_1  and  S_2
REMARK    2  A    between atoms: S_2  and  N_5
REMARK    3  A    between atoms: N_5  and  C_6
REMARK    4  A    between atoms: N_5  and  C_15
REMARK    5  A    between atoms: C_6  and  C_7
REMARK    6  A    between atoms: C_7  and  C_8
REMARK    7  A    between atoms: C_8  and  N_9
REMARK    8  A    between atoms: N_21  and  C_22
REMARK    9  A    between atoms: C_22  and  C_23
REMARK   10  A    between atoms: C_23  and  C_24
REMARK                            x       y       z     vdW  Elec       q    Type
REMARK                         _______ _______ _______ _____ _____    ______ ____
ROOT
ATOM      1  C   UNL     1       3.623   4.214  18.418  0.00  0.00    +0.000 C 
ATOM      2  C   UNL     1       3.446   5.337  17.387  0.00  0.00    +0.000 C 
ATOM      3  C   UNL     1       4.865   5.758  17.042  0.00  0.00    +0.000 C 
ATOM      4  N   UNL     1       5.641   5.479  18.235  0.00  0.00    +0.000 N 
ATOM      5  C   UNL     1       6.766   6.116  18.698  0.00  0.00    +0.000 C 
ATOM      6  O   UNL     1       7.296   5.810  19.764  0.00  0.00    +0.000 OA
ATOM      7  N   UNL     1       7.240   7.128  17.911  0.00  0.00    +0.000 N 
ATOM      8  C   UNL     1       4.994   4.470  19.056  0.00  0.00    +0.000 C 
ATOM      9  H   UNL     1       6.954   7.170  16.947  0.00  0.00    +0.000 HD
ENDROOT
BRANCH   1  10
ATOM     10  N   UNL     1       2.450   4.135  19.358  0.00  0.00    +0.000 NA
BRANCH  10  12
ATOM     11  C   UNL     1       2.692   1.458  18.766  0.00  0.00    +0.000 C 
ATOM     12  S   UNL     1       1.740   2.629  19.715  0.00  0.00    +0.000 S 
ATOM     13  O   UNL     1       0.401   2.624  19.157  0.00  0.00    +0.000 OA
ATOM     14  O   UNL     1       1.940   2.330  21.113  0.00  0.00    +0.000 OA
ENDBRANCH  10  12
BRANCH  10  15
ATOM     15  C   UNL     1       1.638   5.383  19.421  0.00  0.00    +0.000 C 
BRANCH  15  16
ATOM     16  C   UNL     1       1.737   6.170  20.727  0.00  0.00    +0.000 C 
BRANCH  16  17
ATOM     17  C   UNL     1       1.845   7.700  20.561  0.00  0.00    +0.000 C 
BRANCH  17  18
ATOM     18  N   UNL     1       0.518   8.347  20.500  0.00  0.00    +0.000 NA
ATOM     19  C   UNL     1       0.585   9.709  19.913  0.00  0.00    +0.000 C 
ATOM     20  C   UNL     1       1.074  10.818  20.868  0.00  0.00    +0.000 C 
ATOM     21  O   UNL     1       0.334  10.832  22.093  0.00  0.00    +0.000 OA
ATOM     22  C   UNL     1       0.423   9.553  22.731  0.00  0.00    +0.000 C 
ATOM     23  C   UNL     1      -0.154   8.461  21.819  0.00  0.00    +0.000 C 
ENDBRANCH  17  18
ENDBRANCH  16  17
ENDBRANCH  15  16
ENDBRANCH  10  15
ENDBRANCH   1  10
BRANCH   7  24
ATOM     24  C   UNL     1       8.363   7.938  18.341  0.00  0.00    +0.000 C 
BRANCH  24  25
ATOM     25  C   UNL     1       8.305   9.388  17.844  0.00  0.00    +0.000 C 
BRANCH  25  26
ATOM     26  C   UNL     1       9.202  10.354  18.582  0.00  0.00    +0.000 A 
ATOM     27  C   UNL     1       9.984  11.290  17.886  0.00  0.00    +0.000 A 
ATOM     28  C   UNL     1      10.797  12.187  18.578  0.00  0.00    +0.000 A 
ATOM     29  C   UNL     1      10.832  12.174  19.970  0.00  0.00    +0.000 A 
ATOM     30  C   UNL     1      10.047  11.263  20.675  0.00  0.00    +0.000 A 
ATOM     31  C   UNL     1       9.232  10.361  19.983  0.00  0.00    +0.000 A 
ENDBRANCH  25  26
ENDBRANCH  24  25
ENDBRANCH   7  24
TORSDOF 9
ENDMDL
MODEL 5
REMARK VINA RESULT:      -7.6      1.046      1.479
REMARK  Name = 
REMARK  10 active torsions:
REMARK  status: ('A' for Active; 'I' for Inactive)
REMARK    1  A    between atoms: C_1  and  S_2
REMARK    2  A    between atoms: S_2  and  N_5
REMARK    3  A    between atoms: N_5  and  C_6
REMARK    4  A    between atoms: N_5  and  C_15
REMARK    5  A    between atoms: C_6  and  C_7
REMARK    6  A    between atoms: C_7  and  C_8
REMARK    7  A    between atoms: C_8  and  N_9
REMARK    8  A    between atoms: N_21  and  C_22
REMARK    9  A    between atoms: C_22  and  C_23
REMARK   10  A    between atoms: C_23  and  C_24
REMARK                            x       y       z     vdW  Elec       q    Type
REMARK                         _______ _______ _______ _____ _____    ______ ____
ROOT
ATOM      1  C   UNL     1       4.346   4.506  18.092  0.00  0.00    +0.000 C 
ATOM      2  C   UNL     1       3.887   5.741  17.307  0.00  0.00    +0.000 C 
ATOM      3  C   UNL     1       5.176   6.358  16.788  0.00  0.00    +0.000 C 
ATOM      4  N   UNL     1       6.186   5.993  17.762  0.00  0.00    +0.000 N 
ATOM      5  C   UNL     1       7.326   6.673  18.116  0.00  0.00    +0.000 C 
ATOM      6  O   UNL     1       8.074   6.274  19.007  0.00  0.00    +0.000 OA
ATOM      7  N   UNL     1       7.559   7.833  17.433  0.00  0.00    +0.000 N 
ATOM      8  C   UNL     1       5.790   4.811  18.510  0.00  0.00    +0.000 C 
ATOM      9  H   UNL     1       7.090   7.984  16.556  0.00  0.00    +0.000 HD
ENDROOT
BRANCH   1  10
ATOM     10  N   UNL     1       3.386   4.165  19.200  0.00  0.00    +0.000 NA
BRANCH  10  12
ATOM     11  C   UNL     1       2.410   2.765  21.360  0.00  0.00    +0.000 C 
ATOM     12  S   UNL     1       3.366   2.597  19.863  0.00  0.00    +0.000 S 
ATOM     13  O   UNL     1       4.718   2.267  20.270  0.00  0.00    +0.000 OA
ATOM     14  O   UNL     1       2.644   1.716  18.977  0.00  0.00    +0.000 OA
ENDBRANCH  10  12
BRANCH  10  15
ATOM     15  C   UNL     1       2.153   5.002  19.213  0.00  0.00    +0.000 C 
BRANCH  15  16
ATOM     16  C   UNL     1       2.208   6.246  20.100  0.00  0.00    +0.000 C 
BRANCH  16  17
ATOM     17  C   UNL     1       1.689   7.541  19.442  0.00  0.00    +0.000 C 
BRANCH  17  18
ATOM     18  N   UNL     1       1.832   8.712  20.332  0.00  0.00    +0.000 NA
ATOM     19  C   UNL     1       1.209   8.486  21.661  0.00  0.00    +0.000 C 
ATOM     20  C   UNL     1      -0.324   8.645  21.709  0.00  0.00    +0.000 C 
ATOM     21  O   UNL     1      -0.748   9.897  21.159  0.00  0.00    +0.000 OA
ATOM     22  C   UNL     1      -0.279  10.021  19.812  0.00  0.00    +0.000 C 
ATOM     23  C   UNL     1       1.255   9.960  19.774  0.00  0.00    +0.000 C 
ENDBRANCH  17  18
ENDBRANCH  16  17
ENDBRANCH  15  16
ENDBRANCH  10  15
ENDBRANCH   1  10
BRANCH   7  24
ATOM     24  C   UNL     1       8.677   8.688  17.783  0.00  0.00    +0.000 C 
BRANCH  24  25
ATOM     25  C   UNL     1       8.279  10.143  18.061  0.00  0.00    +0.000 C 
BRANCH  25  26
ATOM     26  C   UNL     1       9.351  10.988  18.709  0.00  0.00    +0.000 A 
ATOM     27  C   UNL     1      10.216  11.777  17.935  0.00  0.00    +0.000 A 
ATOM     28  C   UNL     1      11.192  12.564  18.545  0.00  0.00    +0.000 A 
ATOM     29  C   UNL     1      11.310  12.588  19.932  0.00  0.00    +0.000 A 
ATOM     30  C   UNL     1      10.446  11.824  20.715  0.00  0.00    +0.000 A 
ATOM     31  C   UNL     1       9.468  11.033  20.105  0.00  0.00    +0.000 A 
ENDBRANCH  25  26
ENDBRANCH  24  25
ENDBRANCH   7  24
TORSDOF 9
ENDMDL
MODEL 6
REMARK VINA RESULT:      -7.5      3.208      4.642
REMARK  Name = 
REMARK  10 active torsions:
REMARK  status: ('A' for Active; 'I' for Inactive)
REMARK    1  A    between atoms: C_1  and  S_2
REMARK    2  A    between atoms: S_2  and  N_5
REMARK    3  A    between atoms: N_5  and  C_6
REMARK    4  A    between atoms: N_5  and  C_15
REMARK    5  A    between atoms: C_6  and  C_7
REMARK    6  A    between atoms: C_7  and  C_8
REMARK    7  A    between atoms: C_8  and  N_9
REMARK    8  A    between atoms: N_21  and  C_22
REMARK    9  A    between atoms: C_22  and  C_23
REMARK   10  A    between atoms: C_23  and  C_24
REMARK                            x       y       z     vdW  Elec       q    Type
REMARK                         _______ _______ _______ _____ _____    ______ ____
ROOT
ATOM      1  C   UNL     1       6.307   5.168  17.596  0.00  0.00    +0.000 C 
ATOM      2  C   UNL     1       7.671   4.839  18.217  0.00  0.00    +0.000 C 
ATOM      3  C   UNL     1       8.053   6.100  18.976  0.00  0.00    +0.000 C 
ATOM      4  N   UNL     1       7.409   7.182  18.256  0.00  0.00    +0.000 N 
ATOM      5  C   UNL     1       7.811   8.489  18.129  0.00  0.00    +0.000 C 
ATOM      6  O   UNL     1       7.195   9.297  17.437  0.00  0.00    +0.000 OA
ATOM      7  N   UNL     1       8.952   8.826  18.802  0.00  0.00    +0.000 N 
ATOM      8  C   UNL     1       6.275   6.698  17.487  0.00  0.00    +0.000 C 
ATOM      9  H   UNL     1       9.268   8.234  19.551  0.00  0.00    +0.000 HD
ENDROOT
BRANCH   1  10
ATOM     10  N   UNL     1       6.078   4.401  16.322  0.00  0.00    +0.000 NA
BRANCH  10  12
ATOM     11  C   UNL     1       6.150   3.812  13.634  0.00  0.00    +0.000 C 
ATOM     12  S   UNL     1       6.422   5.119  14.816  0.00  0.00    +0.000 S 
ATOM     13  O   UNL     1       7.840   5.423  14.780  0.00  0.00    +0.000 OA
ATOM     14  O   UNL     1       5.454   6.158  14.554  0.00  0.00    +0.000 OA
ENDBRANCH  10  12
BRANCH  10  15
ATOM     15  C   UNL     1       5.031   3.347  16.429  0.00  0.00    +0.000 C 
BRANCH  15  16
ATOM     16  C   UNL     1       4.070   3.487  17.610  0.00  0.00    +0.000 C 
BRANCH  16  17
ATOM     17  C   UNL     1       2.952   2.427  17.672  0.00  0.00    +0.000 C 
BRANCH  17  18
ATOM     18  N   UNL     1       1.611   3.038  17.770  0.00  0.00    +0.000 NA
ATOM     19  C   UNL     1       1.677   4.496  18.044  0.00  0.00    +0.000 C 
ATOM     20  C   UNL     1       1.952   4.881  19.512  0.00  0.00    +0.000 C 
ATOM     21  O   UNL     1       1.043   4.239  20.412  0.00  0.00    +0.000 OA
ATOM     22  C   UNL     1       1.118   2.818  20.250  0.00  0.00    +0.000 C 
ATOM     23  C   UNL     1       0.749   2.426  18.812  0.00  0.00    +0.000 C 
ENDBRANCH  17  18
ENDBRANCH  16  17
ENDBRANCH  15  16
ENDBRANCH  10  15
ENDBRANCH   1  10
BRANCH   7  24
ATOM     24  C   UNL     1       9.528  10.150  18.668  0.00  0.00    +0.000 C 
BRANCH  24  25
ATOM     25  C   UNL     1       9.831  10.830  20.009  0.00  0.00    +0.000 C 
BRANCH  25  26
ATOM     26  C   UNL     1      10.432  12.212  19.904  0.00  0.00    +0.000 A 
ATOM     27  C   UNL     1      11.786  12.389  19.576  0.00  0.00    +0.000 A 
ATOM     28  C   UNL     1      12.326  13.670  19.467  0.00  0.00    +0.000 A 
ATOM     29  C   UNL     1      11.525  14.791  19.670  0.00  0.00    +0.000 A 
ATOM     30  C   UNL     1      10.174  14.631  19.979  0.00  0.00    +0.000 A 
ATOM     31  C   UNL     1       9.631  13.348  20.090  0.00  0.00    +0.000 A 
ENDBRANCH  25  26
ENDBRANCH  24  25
ENDBRANCH   7  24
TORSDOF 9
ENDMDL
MODEL 7
REMARK VINA RESULT:      -7.4      1.044      1.188
REMARK  Name = 
REMARK  10 active torsions:
REMARK  status: ('A' for Active; 'I' for Inactive)
REMARK    1  A    between atoms: C_1  and  S_2
REMARK    2  A    between atoms: S_2  and  N_5
REMARK    3  A    between atoms: N_5  and  C_6
REMARK    4  A    between atoms: N_5  and  C_15
REMARK    5  A    between atoms: C_6  and  C_7
REMARK    6  A    between atoms: C_7  and  C_8
REMARK    7  A    between atoms: C_8  and  N_9
REMARK    8  A    between atoms: N_21  and  C_22
REMARK    9  A    between atoms: C_22  and  C_23
REMARK   10  A    between atoms: C_23  and  C_24
REMARK                            x       y       z     vdW  Elec       q    Type
REMARK                         _______ _______ _______ _____ _____    ______ ____
ROOT
ATOM      1  C   UNL     1       3.794   4.816  17.652  0.00  0.00    +0.000 C 
ATOM      2  C   UNL     1       3.344   6.253  17.358  0.00  0.00    +0.000 C 
ATOM      3  C   UNL     1       4.572   6.916  16.757  0.00  0.00    +0.000 C 
ATOM      4  N   UNL     1       5.701   6.221  17.345  0.00  0.00    +0.000 N 
ATOM      5  C   UNL     1       6.962   6.697  17.610  0.00  0.00    +0.000 C 
ATOM      6  O   UNL     1       7.815   6.009  18.167  0.00  0.00    +0.000 OA
ATOM      7  N   UNL     1       7.196   7.991  17.238  0.00  0.00    +0.000 N 
ATOM      8  C   UNL     1       5.318   4.898  17.807  0.00  0.00    +0.000 C 
ATOM      9  H   UNL     1       6.588   8.421  16.562  0.00  0.00    +0.000 HD
ENDROOT
BRANCH   1  10
ATOM     10  N   UNL     1       3.034   4.223  18.808  0.00  0.00    +0.000 NA
BRANCH  10  12
ATOM     11  C   UNL     1       4.388   2.230  20.140  0.00  0.00    +0.000 C 
ATOM     12  S   UNL     1       3.015   2.536  19.044  0.00  0.00    +0.000 S 
ATOM     13  O   UNL     1       3.345   1.905  17.781  0.00  0.00    +0.000 OA
ATOM     14  O   UNL     1       1.805   2.168  19.740  0.00  0.00    +0.000 OA
ENDBRANCH  10  12
BRANCH  10  15
ATOM     15  C   UNL     1       1.895   5.060  19.279  0.00  0.00    +0.000 C 
BRANCH  15  16
ATOM     16  C   UNL     1       2.066   5.689  20.662  0.00  0.00    +0.000 C 
BRANCH  16  17
ATOM     17  C   UNL     1       1.066   6.816  20.994  0.00  0.00    +0.000 C 
BRANCH  17  18
ATOM     18  N   UNL     1       1.697   8.150  20.950  0.00  0.00    +0.000 NA
ATOM     19  C   UNL     1       1.385   8.959  22.156  0.00  0.00    +0.000 C 
ATOM     20  C   UNL     1      -0.006   9.625  22.164  0.00  0.00    +0.000 C 
ATOM     21  O   UNL     1      -0.242  10.383  20.972  0.00  0.00    +0.000 OA
ATOM     22  C   UNL     1      -0.102   9.541  19.823  0.00  0.00    +0.000 C 
ATOM     23  C   UNL     1       1.316   8.954  19.762  0.00  0.00    +0.000 C 
ENDBRANCH  17  18
ENDBRANCH  16  17
ENDBRANCH  15  16
ENDBRANCH  10  15
ENDBRANCH   1  10
BRANCH   7  24
ATOM     24  C   UNL     1       8.456   8.636  17.552  0.00  0.00    +0.000 C 
BRANCH  24  25
ATOM     25  C   UNL     1       8.497   9.264  18.951  0.00  0.00    +0.000 C 
BRANCH  25  26
ATOM     26  C   UNL     1       9.447  10.429  19.103  0.00  0.00    +0.000 A 
ATOM     27  C   UNL     1       9.729  10.972  20.366  0.00  0.00    +0.000 A 
ATOM     28  C   UNL     1      10.620  12.037  20.495  0.00  0.00    +0.000 A 
ATOM     29  C   UNL     1      11.250  12.567  19.373  0.00  0.00    +0.000 A 
ATOM     30  C   UNL     1      10.994  12.026  18.114  0.00  0.00    +0.000 A 
ATOM     31  C   UNL     1      10.101  10.958  17.981  0.00  0.00    +0.000 A 
ENDBRANCH  25  26
ENDBRANCH  24  25
ENDBRANCH   7  24
TORSDOF 9
ENDMDL
MODEL 8
REMARK VINA RESULT:      -7.3      3.199      4.552
REMARK  Name = 
REMARK  10 active torsions:
REMARK  status: ('A' for Active; 'I' for Inactive)
REMARK    1  A    between atoms: C_1  and  S_2
REMARK    2  A    between atoms: S_2  and  N_5
REMARK    3  A    between atoms: N_5  and  C_6
REMARK    4  A    between atoms: N_5  and  C_15
REMARK    5  A    between atoms: C_6  and  C_7
REMARK    6  A    between atoms: C_7  and  C_8
REMARK    7  A    between atoms: C_8  and  N_9
REMARK    8  A    between atoms: N_21  and  C_22
REMARK    9  A    between atoms: C_22  and  C_23
REMARK   10  A    between atoms: C_23  and  C_24
REMARK                            x       y       z     vdW  Elec       q    Type
REMARK                         _______ _______ _______ _____ _____    ______ ____
ROOT
ATOM      1  C   UNL     1       6.297   5.157  17.538  0.00  0.00    +0.000 C 
ATOM      2  C   UNL     1       7.629   4.823  18.221  0.00  0.00    +0.000 C 
ATOM      3  C   UNL     1       7.995   6.093  18.973  0.00  0.00    +0.000 C 
ATOM      4  N   UNL     1       7.397   7.169  18.208  0.00  0.00    +0.000 N 
ATOM      5  C   UNL     1       7.820   8.469  18.075  0.00  0.00    +0.000 C 
ATOM      6  O   UNL     1       7.244   9.271  17.343  0.00  0.00    +0.000 OA
ATOM      7  N   UNL     1       8.936   8.804  18.789  0.00  0.00    +0.000 N 
ATOM      8  C   UNL     1       6.290   6.685  17.401  0.00  0.00    +0.000 C 
ATOM      9  H   UNL     1       9.212   8.222  19.562  0.00  0.00    +0.000 HD
ENDROOT
BRANCH   1  10
ATOM     10  N   UNL     1       6.112   4.370  16.269  0.00  0.00    +0.000 NA
BRANCH  10  12
ATOM     11  C   UNL     1       6.131   3.788  13.578  0.00  0.00    +0.000 C 
ATOM     12  S   UNL     1       6.442   5.088  14.760  0.00  0.00    +0.000 S 
ATOM     13  O   UNL     1       7.864   5.369  14.701  0.00  0.00    +0.000 OA
ATOM     14  O   UNL     1       5.487   6.142  14.516  0.00  0.00    +0.000 OA
ENDBRANCH  10  12
BRANCH  10  15
ATOM     15  C   UNL     1       5.107   3.276  16.376  0.00  0.00    +0.000 C 
BRANCH  15  16
ATOM     16  C   UNL     1       3.884   3.583  17.241  0.00  0.00    +0.000 C 
BRANCH  16  17
ATOM     17  C   UNL     1       3.684   2.642  18.447  0.00  0.00    +0.000 C 
BRANCH  17  18
ATOM     18  N   UNL     1       3.766   3.363  19.734  0.00  0.00    +0.000 NA
ATOM     19  C   UNL     1       3.068   2.640  20.827  0.00  0.00    +0.000 C 
ATOM     20  C   UNL     1       1.534   2.794  20.847  0.00  0.00    +0.000 C 
ATOM     21  O   UNL     1       1.135   4.169  20.815  0.00  0.00    +0.000 OA
ATOM     22  C   UNL     1       1.682   4.808  19.656  0.00  0.00    +0.000 C 
ATOM     23  C   UNL     1       3.216   4.740  19.685  0.00  0.00    +0.000 C 
ENDBRANCH  17  18
ENDBRANCH  16  17
ENDBRANCH  15  16
ENDBRANCH  10  15
ENDBRANCH   1  10
BRANCH   7  24
ATOM     24  C   UNL     1       9.535  10.118  18.656  0.00  0.00    +0.000 C 
BRANCH  24  25
ATOM     25  C   UNL     1       9.404  10.987  19.913  0.00  0.00    +0.000 C 
BRANCH  25  26
ATOM     26  C   UNL     1       9.751  12.445  19.724  0.00  0.00    +0.000 A 
ATOM     27  C   UNL     1       8.947  13.283  18.934  0.00  0.00    +0.000 A 
ATOM     28  C   UNL     1       9.270  14.631  18.779  0.00  0.00    +0.000 A 
ATOM     29  C   UNL     1      10.385  15.165  19.417  0.00  0.00    +0.000 A 
ATOM     30  C   UNL     1      11.182  14.350  20.220  0.00  0.00    +0.000 A 
ATOM     31  C   UNL     1      10.862  12.998  20.376  0.00  0.00    +0.000 A 
ENDBRANCH  25  26
ENDBRANCH  24  25
ENDBRANCH   7  24
TORSDOF 9
ENDMDL
MODEL 9
REMARK VINA RESULT:      -7.3      1.425      1.888
REMARK  Name = 
REMARK  10 active torsions:
REMARK  status: ('A' for Active; 'I' for Inactive)
REMARK    1  A    between atoms: C_1  and  S_2
REMARK    2  A    between atoms: S_2  and  N_5
REMARK    3  A    between atoms: N_5  and  C_6
REMARK    4  A    between atoms: N_5  and  C_15
REMARK    5  A    between atoms: C_6  and  C_7
REMARK    6  A    between atoms: C_7  and  C_8
REMARK    7  A    between atoms: C_8  and  N_9
REMARK    8  A    between atoms: N_21  and  C_22
REMARK    9  A    between atoms: C_22  and  C_23
REMARK   10  A    between atoms: C_23  and  C_24
REMARK                            x       y       z     vdW  Elec       q    Type
REMARK                         _______ _______ _______ _____ _____    ______ ____
ROOT
ATOM      1  C   UNL     1       4.362   4.789  17.990  0.00  0.00    +0.000 C 
ATOM      2  C   UNL     1       3.858   6.072  17.317  0.00  0.00    +0.000 C 
ATOM      3  C   UNL     1       5.118   6.740  16.790  0.00  0.00    +0.000 C 
ATOM      4  N   UNL     1       6.173   6.318  17.691  0.00  0.00    +0.000 N 
ATOM      5  C   UNL     1       7.321   6.984  18.044  0.00  0.00    +0.000 C 
ATOM      6  O   UNL     1       8.110   6.531  18.870  0.00  0.00    +0.000 OA
ATOM      7  N   UNL     1       7.513   8.194  17.438  0.00  0.00    +0.000 N 
ATOM      8  C   UNL     1       5.821   5.081  18.366  0.00  0.00    +0.000 C 
ATOM      9  H   UNL     1       7.005   8.402  16.595  0.00  0.00    +0.000 HD
ENDROOT
BRANCH   1  10
ATOM     10  N   UNL     1       3.455   4.357  19.111  0.00  0.00    +0.000 NA
BRANCH  10  12
ATOM     11  C   UNL     1       3.272   1.775  18.174  0.00  0.00    +0.000 C 
ATOM     12  S   UNL     1       3.478   2.744  19.657  0.00  0.00    +0.000 S 
ATOM     13  O   UNL     1       2.290   2.529  20.461  0.00  0.00    +0.000 OA
ATOM     14  O   UNL     1       4.781   2.445  20.201  0.00  0.00    +0.000 OA
ENDBRANCH  10  12
BRANCH  10  15
ATOM     15  C   UNL     1       2.217   5.175  19.238  0.00  0.00    +0.000 C 
BRANCH  15  16
ATOM     16  C   UNL     1       2.072   5.954  20.546  0.00  0.00    +0.000 C 
BRANCH  16  17
ATOM     17  C   UNL     1       1.770   7.458  20.381  0.00  0.00    +0.000 C 
BRANCH  17  18
ATOM     18  N   UNL     1       1.019   8.004  21.529  0.00  0.00    +0.000 NA
ATOM     19  C   UNL     1      -0.403   8.271  21.193  0.00  0.00    +0.000 C 
ATOM     20  C   UNL     1      -0.665   9.574  20.412  0.00  0.00    +0.000 C 
ATOM     21  O   UNL     1      -0.075  10.710  21.055  0.00  0.00    +0.000 OA
ATOM     22  C   UNL     1       1.332  10.502  21.217  0.00  0.00    +0.000 C 
ATOM     23  C   UNL     1       1.592   9.258  22.078  0.00  0.00    +0.000 C 
ENDBRANCH  17  18
ENDBRANCH  16  17
ENDBRANCH  15  16
ENDBRANCH  10  15
ENDBRANCH   1  10
BRANCH   7  24
ATOM     24  C   UNL     1       8.637   9.035  17.801  0.00  0.00    +0.000 C 
BRANCH  24  25
ATOM     25  C   UNL     1       8.233  10.433  18.283  0.00  0.00    +0.000 C 
BRANCH  25  26
ATOM     26  C   UNL     1       9.271  11.510  18.070  0.00  0.00    +0.000 A 
ATOM     27  C   UNL     1      10.640  11.199  18.043  0.00  0.00    +0.000 A 
ATOM     28  C   UNL     1      11.588  12.200  17.830  0.00  0.00    +0.000 A 
ATOM     29  C   UNL     1      11.187  13.517  17.628  0.00  0.00    +0.000 A 
ATOM     30  C   UNL     1       9.830  13.838  17.633  0.00  0.00    +0.000 A 
ATOM     31  C   UNL     1       8.877  12.837  17.848  0.00  0.00    +0.000 A 
ENDBRANCH  25  26
ENDBRANCH  24  25
ENDBRANCH   7  24
TORSDOF 9
ENDMDL
