MODEL 1
REMARK VINA RESULT:      -7.5      0.000      0.000
REMARK  Name = 
REMARK  4 active torsions:
REMARK  status: ('A' for Active; 'I' for Inactive)
REMARK    1  A    between atoms: C_1  and  N_2
REMARK    2  A    between atoms: C_6  and  C_7
REMARK    3  A    between atoms: C_7  and  C_9
REMARK    4  A    between atoms: C_14  and  C_16
REMARK                            x       y       z     vdW  Elec       q    Type
REMARK                         _______ _______ _______ _____ _____    ______ ____
ROOT
ATOM      1  C   UNL     1       2.773   5.154  18.318  0.00  0.00    +0.000 C 
ATOM      2  C   UNL     1       1.508   4.346  17.890  0.00  0.00    +0.000 C 
ATOM      3  C   UNL     1       2.050   3.029  17.355  0.00  0.00    +0.000 C 
ATOM      4  C   UNL     1       3.199   2.755  18.291  0.00  0.00    +0.000 C 
ATOM      5  N   UNL     1       3.693   4.069  18.733  0.00  0.00    +0.000 N 
ATOM      6  C   UNL     1       4.991   4.068  19.175  0.00  0.00    +0.000 C 
ATOM      7  O   UNL     1       5.472   2.987  19.529  0.00  0.00    +0.000 OA
ENDROOT
BRANCH   6   8
ATOM      8  C   UNL     1       6.005   5.196  19.264  0.00  0.00    +0.000 C 
ATOM      9  C   UNL     1       5.882   6.529  18.509  0.00  0.00    +0.000 C 
ATOM     10  C   UNL     1       6.759   6.402  17.243  0.00  0.00    +0.000 C 
ATOM     11  C   UNL     1       6.167   6.725  15.864  0.00  0.00    +0.000 C 
ATOM     12  C   UNL     1       5.156   5.723  15.291  0.00  0.00    +0.000 C 
ATOM     13  C   UNL     1       5.342   4.290  15.814  0.00  0.00    +0.000 C 
ATOM     14  C   UNL     1       6.746   3.956  16.344  0.00  0.00    +0.000 C 
ATOM     15  C   UNL     1       7.374   5.003  17.340  0.00  0.00    +0.000 C 
ATOM     16  N   UNL     1       7.272   4.634  18.764  0.00  0.00    +0.000 NA
ATOM     17  H   UNL     1       8.053   5.113  19.277  0.00  0.00    +0.000 HD
ENDBRANCH   6   8
BRANCH   1  18
ATOM     18  C   UNL     1       2.391   6.401  19.246  0.00  0.00    +0.000 C 
ATOM     19  O   UNL     1       2.247   6.140  20.433  0.00  0.00    +0.000 OA
BRANCH  18  25
ATOM     20  C   UNL     1       0.748   8.947  20.868  0.00  0.00    +0.000 C 
ATOM     21  N   UNL     1       1.432   8.838  19.573  0.00  0.00    +0.000 N 
ATOM     22  C   UNL     1       1.412   9.918  18.755  0.00  0.00    +0.000 A 
ATOM     23  N   UNL     1       2.071   9.701  17.592  0.00  0.00    +0.000 NA
ATOM     24  C   UNL     1       2.495   8.429  17.667  0.00  0.00    +0.000 A 
ATOM     25  C   UNL     1       2.109   7.850  18.865  0.00  0.00    +0.000 A 
ENDBRANCH  18  25
ENDBRANCH   1  18
TORSDOF 3
ENDMDL
MODEL 2
REMARK VINA RESULT:      -7.2      2.091      4.529
REMARK  Name = 
REMARK  4 active torsions:
REMARK  status: ('A' for Active; 'I' for Inactive)
REMARK    1  A    between atoms: C_1  and  N_2
REMARK    2  A    between atoms: C_6  and  C_7
REMARK    3  A    between atoms: C_7  and  C_9
REMARK    4  A    between atoms: C_14  and  C_16
REMARK                            x       y       z     vdW  Elec       q    Type
REMARK                         _______ _______ _______ _____ _____    ______ ____
ROOT
ATOM      1  C   UNL     1       3.658   6.529  18.170  0.00  0.00    +0.000 C 
ATOM      2  C   UNL     1       5.030   6.983  17.583  0.00  0.00    +0.000 C 
ATOM      3  C   UNL     1       5.753   5.689  17.238  0.00  0.00    +0.000 C 
ATOM      4  C   UNL     1       4.631   4.825  16.725  0.00  0.00    +0.000 C 
ATOM      5  N   UNL     1       3.415   5.273  17.422  0.00  0.00    +0.000 N 
ATOM      6  C   UNL     1       2.414   4.337  17.476  0.00  0.00    +0.000 C 
ATOM      7  O   UNL     1       2.446   3.419  16.650  0.00  0.00    +0.000 OA
ENDROOT
BRANCH   6   8
ATOM      8  C   UNL     1       1.250   4.190  18.442  0.00  0.00    +0.000 C 
ATOM      9  C   UNL     1       1.365   4.357  19.966  0.00  0.00    +0.000 C 
ATOM     10  C   UNL     1       1.492   2.935  20.557  0.00  0.00    +0.000 C 
ATOM     11  C   UNL     1       2.641   2.605  21.520  0.00  0.00    +0.000 C 
ATOM     12  C   UNL     1       4.047   2.502  20.913  0.00  0.00    +0.000 C 
ATOM     13  C   UNL     1       4.052   2.106  19.428  0.00  0.00    +0.000 C 
ATOM     14  C   UNL     1       2.797   1.366  18.937  0.00  0.00    +0.000 C 
ATOM     15  C   UNL     1       1.416   2.005  19.343  0.00  0.00    +0.000 C 
ATOM     16  N   UNL     1       0.773   2.804  18.283  0.00  0.00    +0.000 NA
ATOM     17  H   UNL     1      -0.261   2.805  18.464  0.00  0.00    +0.000 HD
ENDBRANCH   6   8
BRANCH   1  18
ATOM     18  C   UNL     1       2.615   7.741  18.240  0.00  0.00    +0.000 C 
ATOM     19  O   UNL     1       2.480   8.370  17.199  0.00  0.00    +0.000 OA
BRANCH  18  25
ATOM     20  C   UNL     1       0.637  10.523  18.638  0.00  0.00    +0.000 C 
ATOM     21  N   UNL     1       1.030   9.418  19.522  0.00  0.00    +0.000 N 
ATOM     22  C   UNL     1       0.606   9.456  20.807  0.00  0.00    +0.000 A 
ATOM     23  N   UNL     1       1.030   8.389  21.526  0.00  0.00    +0.000 NA
ATOM     24  C   UNL     1       1.774   7.670  20.670  0.00  0.00    +0.000 A 
ATOM     25  C   UNL     1       1.818   8.275  19.425  0.00  0.00    +0.000 A 
ENDBRANCH  18  25
ENDBRANCH   1  18
TORSDOF 3
ENDMDL
MODEL 3
REMARK VINA RESULT:      -7.0      8.473     10.294
REMARK  Name = 
REMARK  4 active torsions:
REMARK  status: ('A' for Active; 'I' for Inactive)
REMARK    1  A    between atoms: C_1  and  N_2
REMARK    2  A    between atoms: C_6  and  C_7
REMARK    3  A    between atoms: C_7  and  C_9
REMARK    4  A    between atoms: C_14  and  C_16
REMARK                            x       y       z     vdW  Elec       q    Type
REMARK                         _______ _______ _______ _____ _____    ______ ____
ROOT
ATOM      1  C   UNL     1       8.898  15.186  19.781  0.00  0.00    +0.000 C 
ATOM      2  C   UNL     1       8.951  16.063  21.070  0.00  0.00    +0.000 C 
ATOM      3  C   UNL     1      10.332  15.812  21.656  0.00  0.00    +0.000 C 
ATOM      4  C   UNL     1      11.189  15.717  20.420  0.00  0.00    +0.000 C 
ATOM      5  N   UNL     1      10.317  15.200  19.353  0.00  0.00    +0.000 N 
ATOM      6  C   UNL     1      10.984  14.592  18.321  0.00  0.00    +0.000 C 
ATOM      7  O   UNL     1      12.179  14.867  18.173  0.00  0.00    +0.000 OA
ENDROOT
BRANCH   6   8
ATOM      8  C   UNL     1      10.511  13.558  17.312  0.00  0.00    +0.000 C 
ATOM      9  C   UNL     1       9.321  12.611  17.539  0.00  0.00    +0.000 C 
ATOM     10  C   UNL     1       9.913  11.265  18.015  0.00  0.00    +0.000 C 
ATOM     11  C   UNL     1       9.383  10.605  19.296  0.00  0.00    +0.000 C 
ATOM     12  C   UNL     1       9.765  11.268  20.626  0.00  0.00    +0.000 C 
ATOM     13  C   UNL     1      11.081  12.060  20.568  0.00  0.00    +0.000 C 
ATOM     14  C   UNL     1      12.053  11.645  19.451  0.00  0.00    +0.000 C 
ATOM     15  C   UNL     1      11.427  11.489  18.015  0.00  0.00    +0.000 C 
ATOM     16  N   UNL     1      11.648  12.640  17.120  0.00  0.00    +0.000 NA
ATOM     17  H   UNL     1      11.606  12.290  16.131  0.00  0.00    +0.000 HD
ENDBRANCH   6   8
BRANCH   1  18
ATOM     18  C   UNL     1       7.678  15.602  18.832  0.00  0.00    +0.000 C 
ATOM     19  O   UNL     1       7.957  16.403  17.949  0.00  0.00    +0.000 OA
BRANCH  18  25
ATOM     20  C   UNL     1       5.440  15.477  21.437  0.00  0.00    +0.000 C 
ATOM     21  N   UNL     1       5.350  15.179  20.002  0.00  0.00    +0.000 N 
ATOM     22  C   UNL     1       4.177  14.694  19.529  0.00  0.00    +0.000 A 
ATOM     23  N   UNL     1       4.212  14.456  18.196  0.00  0.00    +0.000 NA
ATOM     24  C   UNL     1       5.462  14.773  17.822  0.00  0.00    +0.000 A 
ATOM     25  C   UNL     1       6.207  15.208  18.906  0.00  0.00    +0.000 A 
ENDBRANCH  18  25
ENDBRANCH   1  18
TORSDOF 3
ENDMDL
MODEL 4
REMARK VINA RESULT:      -6.9      1.948      4.175
REMARK  Name = 
REMARK  4 active torsions:
REMARK  status: ('A' for Active; 'I' for Inactive)
REMARK    1  A    between atoms: C_1  and  N_2
REMARK    2  A    between atoms: C_6  and  C_7
REMARK    3  A    between atoms: C_7  and  C_9
REMARK    4  A    between atoms: C_14  and  C_16
REMARK                            x       y       z     vdW  Elec       q    Type
REMARK                         _______ _______ _______ _____ _____    ______ ____
ROOT
ATOM      1  C   UNL     1       2.696   7.013  19.379  0.00  0.00    +0.000 C 
ATOM      2  C   UNL     1       1.827   8.251  18.996  0.00  0.00    +0.000 C 
ATOM      3  C   UNL     1       2.521   8.854  17.784  0.00  0.00    +0.000 C 
ATOM      4  C   UNL     1       2.980   7.628  17.038  0.00  0.00    +0.000 C 
ATOM      5  N   UNL     1       3.210   6.590  18.055  0.00  0.00    +0.000 N 
ATOM      6  C   UNL     1       4.070   5.594  17.665  0.00  0.00    +0.000 C 
ATOM      7  O   UNL     1       4.246   5.435  16.454  0.00  0.00    +0.000 OA
ENDROOT
BRANCH   6   8
ATOM      8  C   UNL     1       4.921   4.645  18.492  0.00  0.00    +0.000 C 
ATOM      9  C   UNL     1       5.923   5.096  19.568  0.00  0.00    +0.000 C 
ATOM     10  C   UNL     1       7.316   5.098  18.900  0.00  0.00    +0.000 C 
ATOM     11  C   UNL     1       8.205   6.346  18.985  0.00  0.00    +0.000 C 
ATOM     12  C   UNL     1       7.779   7.559  18.148  0.00  0.00    +0.000 C 
ATOM     13  C   UNL     1       6.956   7.194  16.902  0.00  0.00    +0.000 C 
ATOM     14  C   UNL     1       7.143   5.757  16.385  0.00  0.00    +0.000 C 
ATOM     15  C   UNL     1       7.058   4.618  17.470  0.00  0.00    +0.000 C 
ATOM     16  N   UNL     1       5.761   3.917  17.524  0.00  0.00    +0.000 NA
ATOM     17  H   UNL     1       5.931   2.957  17.914  0.00  0.00    +0.000 HD
ENDBRANCH   6   8
BRANCH   1  18
ATOM     18  C   UNL     1       1.925   6.039  20.388  0.00  0.00    +0.000 C 
ATOM     19  O   UNL     1       1.246   6.602  21.237  0.00  0.00    +0.000 OA
BRANCH  18  25
ATOM     20  C   UNL     1       1.215   3.533  18.147  0.00  0.00    +0.000 C 
ATOM     21  N   UNL     1       1.663   3.552  19.545  0.00  0.00    +0.000 N 
ATOM     22  C   UNL     1       1.802   2.363  20.181  0.00  0.00    +0.000 A 
ATOM     23  N   UNL     1       2.218   2.505  21.462  0.00  0.00    +0.000 NA
ATOM     24  C   UNL     1       2.315   3.831  21.649  0.00  0.00    +0.000 A 
ATOM     25  C   UNL     1       1.966   4.519  20.499  0.00  0.00    +0.000 A 
ENDBRANCH  18  25
ENDBRANCH   1  18
TORSDOF 3
ENDMDL
MODEL 5
REMARK VINA RESULT:      -6.9      2.694      6.445
REMARK  Name = 
REMARK  4 active torsions:
REMARK  status: ('A' for Active; 'I' for Inactive)
REMARK    1  A    between atoms: C_1  and  N_2
REMARK    2  A    between atoms: C_6  and  C_7
REMARK    3  A    between atoms: C_7  and  C_9
REMARK    4  A    between atoms: C_14  and  C_16
REMARK                            x       y       z     vdW  Elec       q    Type
REMARK                         _______ _______ _______ _____ _____    ______ ____
ROOT
ATOM      1  C   UNL     1       6.350   5.479  16.854  0.00  0.00    +0.000 C 
ATOM      2  C   UNL     1       7.824   5.754  17.283  0.00  0.00    +0.000 C 
ATOM      3  C   UNL     1       7.717   6.380  18.666  0.00  0.00    +0.000 C 
ATOM      4  C   UNL     1       6.577   5.607  19.277  0.00  0.00    +0.000 C 
ATOM      5  N   UNL     1       5.705   5.208  18.160  0.00  0.00    +0.000 N 
ATOM      6  C   UNL     1       4.409   4.939  18.521  0.00  0.00    +0.000 C 
ATOM      7  O   UNL     1       4.190   4.671  19.706  0.00  0.00    +0.000 OA
ENDROOT
BRANCH   6   8
ATOM      8  C   UNL     1       3.131   4.962  17.699  0.00  0.00    +0.000 C 
ATOM      9  C   UNL     1       1.716   4.942  18.302  0.00  0.00    +0.000 C 
ATOM     10  C   UNL     1       1.233   3.476  18.244  0.00  0.00    +0.000 C 
ATOM     11  C   UNL     1       0.688   2.798  19.510  0.00  0.00    +0.000 C 
ATOM     12  C   UNL     1       1.708   2.441  20.599  0.00  0.00    +0.000 C 
ATOM     13  C   UNL     1       3.130   2.208  20.063  0.00  0.00    +0.000 C 
ATOM     14  C   UNL     1       3.221   1.826  18.576  0.00  0.00    +0.000 C 
ATOM     15  C   UNL     1       2.385   2.716  17.582  0.00  0.00    +0.000 C 
ATOM     16  N   UNL     1       3.167   3.744  16.871  0.00  0.00    +0.000 NA
ATOM     17  H   UNL     1       2.671   3.960  15.971  0.00  0.00    +0.000 HD
ENDBRANCH   6   8
BRANCH   1  18
ATOM     18  C   UNL     1       6.274   4.486  15.600  0.00  0.00    +0.000 C 
ATOM     19  O   UNL     1       5.785   3.389  15.836  0.00  0.00    +0.000 OA
BRANCH  18  25
ATOM     20  C   UNL     1       5.387   3.040  12.612  0.00  0.00    +0.000 C 
ATOM     21  N   UNL     1       6.379   4.051  12.999  0.00  0.00    +0.000 N 
ATOM     22  C   UNL     1       7.200   4.532  12.035  0.00  0.00    +0.000 A 
ATOM     23  N   UNL     1       8.072   5.454  12.509  0.00  0.00    +0.000 NA
ATOM     24  C   UNL     1       7.810   5.534  13.823  0.00  0.00    +0.000 A 
ATOM     25  C   UNL     1       6.785   4.673  14.176  0.00  0.00    +0.000 A 
ENDBRANCH  18  25
ENDBRANCH   1  18
TORSDOF 3
ENDMDL
MODEL 6
REMARK VINA RESULT:      -6.9      0.717      1.385
REMARK  Name = 
REMARK  4 active torsions:
REMARK  status: ('A' for Active; 'I' for Inactive)
REMARK    1  A    between atoms: C_1  and  N_2
REMARK    2  A    between atoms: C_6  and  C_7
REMARK    3  A    between atoms: C_7  and  C_9
REMARK    4  A    between atoms: C_14  and  C_16
REMARK                            x       y       z     vdW  Elec       q    Type
REMARK                         _______ _______ _______ _____ _____    ______ ____
ROOT
ATOM      1  C   UNL     1       2.510   4.875  18.882  0.00  0.00    +0.000 C 
ATOM      2  C   UNL     1       1.274   3.999  18.510  0.00  0.00    +0.000 C 
ATOM      3  C   UNL     1       1.838   2.871  17.659  0.00  0.00    +0.000 C 
ATOM      4  C   UNL     1       3.154   2.588  18.337  0.00  0.00    +0.000 C 
ATOM      5  N   UNL     1       3.589   3.860  18.937  0.00  0.00    +0.000 N 
ATOM      6  C   UNL     1       4.938   3.947  19.164  0.00  0.00    +0.000 C 
ATOM      7  O   UNL     1       5.576   2.891  19.229  0.00  0.00    +0.000 OA
ENDROOT
BRANCH   6   8
ATOM      8  C   UNL     1       5.839   5.162  19.306  0.00  0.00    +0.000 C 
ATOM      9  C   UNL     1       5.615   6.495  18.573  0.00  0.00    +0.000 C 
ATOM     10  C   UNL     1       6.537   6.477  17.333  0.00  0.00    +0.000 C 
ATOM     11  C   UNL     1       5.958   6.774  15.943  0.00  0.00    +0.000 C 
ATOM     12  C   UNL     1       5.063   5.694  15.319  0.00  0.00    +0.000 C 
ATOM     13  C   UNL     1       5.366   4.273  15.820  0.00  0.00    +0.000 C 
ATOM     14  C   UNL     1       6.779   4.061  16.388  0.00  0.00    +0.000 C 
ATOM     15  C   UNL     1       7.276   5.139  17.423  0.00  0.00    +0.000 C 
ATOM     16  N   UNL     1       7.168   4.731  18.836  0.00  0.00    +0.000 NA
ATOM     17  H   UNL     1       7.885   5.270  19.381  0.00  0.00    +0.000 HD
ENDBRANCH   6   8
BRANCH   1  18
ATOM     18  C   UNL     1       2.179   5.888  20.076  0.00  0.00    +0.000 C 
ATOM     19  O   UNL     1       2.214   5.398  21.198  0.00  0.00    +0.000 OA
BRANCH  18  25
ATOM     20  C   UNL     1       2.480   8.302  17.648  0.00  0.00    +0.000 C 
ATOM     21  N   UNL     1       1.910   8.283  19.001  0.00  0.00    +0.000 N 
ATOM     22  C   UNL     1       1.421   9.446  19.496  0.00  0.00    +0.000 A 
ATOM     23  N   UNL     1       0.924   9.308  20.749  0.00  0.00    +0.000 NA
ATOM     24  C   UNL     1       1.135   8.021  21.065  0.00  0.00    +0.000 A 
ATOM     25  C   UNL     1       1.757   7.352  20.024  0.00  0.00    +0.000 A 
ENDBRANCH  18  25
ENDBRANCH   1  18
TORSDOF 3
ENDMDL
MODEL 7
REMARK VINA RESULT:      -6.9      2.026      4.194
REMARK  Name = 
REMARK  4 active torsions:
REMARK  status: ('A' for Active; 'I' for Inactive)
REMARK    1  A    between atoms: C_1  and  N_2
REMARK    2  A    between atoms: C_6  and  C_7
REMARK    3  A    between atoms: C_7  and  C_9
REMARK    4  A    between atoms: C_14  and  C_16
REMARK                            x       y       z     vdW  Elec       q    Type
REMARK                         _______ _______ _______ _____ _____    ______ ____
ROOT
ATOM      1  C   UNL     1       2.792   6.698  19.166  0.00  0.00    +0.000 C 
ATOM      2  C   UNL     1       1.972   8.009  18.959  0.00  0.00    +0.000 C 
ATOM      3  C   UNL     1       2.755   8.799  17.921  0.00  0.00    +0.000 C 
ATOM      4  C   UNL     1       3.241   7.713  16.996  0.00  0.00    +0.000 C 
ATOM      5  N   UNL     1       3.385   6.503  17.821  0.00  0.00    +0.000 N 
ATOM      6  C   UNL     1       4.251   5.569  17.313  0.00  0.00    +0.000 C 
ATOM      7  O   UNL     1       4.504   5.623  16.105  0.00  0.00    +0.000 OA
ENDROOT
BRANCH   6   8
ATOM      8  C   UNL     1       5.028   4.462  18.005  0.00  0.00    +0.000 C 
ATOM      9  C   UNL     1       5.926   4.676  19.235  0.00  0.00    +0.000 C 
ATOM     10  C   UNL     1       7.374   4.793  18.709  0.00  0.00    +0.000 C 
ATOM     11  C   UNL     1       8.245   5.988  19.122  0.00  0.00    +0.000 C 
ATOM     12  C   UNL     1       7.890   7.349  18.510  0.00  0.00    +0.000 C 
ATOM     13  C   UNL     1       7.186   7.250  17.148  0.00  0.00    +0.000 C 
ATOM     14  C   UNL     1       7.426   5.944  16.373  0.00  0.00    +0.000 C 
ATOM     15  C   UNL     1       7.249   4.612  17.194  0.00  0.00    +0.000 C 
ATOM     16  N   UNL     1       5.957   3.932  16.991  0.00  0.00    +0.000 NA
ATOM     17  H   UNL     1       6.096   2.911  17.194  0.00  0.00    +0.000 HD
ENDBRANCH   6   8
BRANCH   1  18
ATOM     18  C   UNL     1       1.939   5.581  19.933  0.00  0.00    +0.000 C 
ATOM     19  O   UNL     1       1.459   5.938  21.002  0.00  0.00    +0.000 OA
BRANCH  18  25
ATOM     20  C   UNL     1       2.388   2.654  21.675  0.00  0.00    +0.000 C 
ATOM     21  N   UNL     1       1.898   2.972  20.328  0.00  0.00    +0.000 N 
ATOM     22  C   UNL     1       1.581   1.940  19.511  0.00  0.00    +0.000 A 
ATOM     23  N   UNL     1       1.143   2.354  18.297  0.00  0.00    +0.000 NA
ATOM     24  C   UNL     1       1.216   3.694  18.342  0.00  0.00    +0.000 A 
ATOM     25  C   UNL     1       1.693   4.121  19.570  0.00  0.00    +0.000 A 
ENDBRANCH  18  25
ENDBRANCH   1  18
TORSDOF 3
ENDMDL
MODEL 8
REMARK VINA RESULT:      -6.8      2.553      6.229
REMARK  Name = 
REMARK  4 active torsions:
REMARK  status: ('A' for Active; 'I' for Inactive)
REMARK    1  A    between atoms: C_1  and  N_2
REMARK    2  A    between atoms: C_6  and  C_7
REMARK    3  A    between atoms: C_7  and  C_9
REMARK    4  A    between atoms: C_14  and  C_16
REMARK                            x       y       z     vdW  Elec       q    Type
REMARK                         _______ _______ _______ _____ _____    ______ ____
ROOT
ATOM      1  C   UNL     1       6.030   4.995  16.799  0.00  0.00    +0.000 C 
ATOM      2  C   UNL     1       7.233   5.971  16.980  0.00  0.00    +0.000 C 
ATOM      3  C   UNL     1       7.150   6.427  18.429  0.00  0.00    +0.000 C 
ATOM      4  C   UNL     1       6.709   5.170  19.133  0.00  0.00    +0.000 C 
ATOM      5  N   UNL     1       5.917   4.407  18.155  0.00  0.00    +0.000 N 
ATOM      6  C   UNL     1       5.040   3.511  18.711  0.00  0.00    +0.000 C 
ATOM      7  O   UNL     1       5.257   3.145  19.870  0.00  0.00    +0.000 OA
ENDROOT
BRANCH   6   8
ATOM      8  C   UNL     1       3.767   2.898  18.151  0.00  0.00    +0.000 C 
ATOM      9  C   UNL     1       2.858   3.587  17.120  0.00  0.00    +0.000 C 
ATOM     10  C   UNL     1       1.701   4.233  17.914  0.00  0.00    +0.000 C 
ATOM     11  C   UNL     1       1.362   5.716  17.704  0.00  0.00    +0.000 C 
ATOM     12  C   UNL     1       2.353   6.741  18.270  0.00  0.00    +0.000 C 
ATOM     13  C   UNL     1       3.160   6.223  19.471  0.00  0.00    +0.000 C 
ATOM     14  C   UNL     1       2.520   5.059  20.246  0.00  0.00    +0.000 C 
ATOM     15  C   UNL     1       1.981   3.863  19.373  0.00  0.00    +0.000 C 
ATOM     16  N   UNL     1       2.880   2.695  19.310  0.00  0.00    +0.000 NA
ATOM     17  H   UNL     1       2.291   1.849  19.112  0.00  0.00    +0.000 HD
ENDBRANCH   6   8
BRANCH   1  18
ATOM     18  C   UNL     1       6.169   4.127  15.461  0.00  0.00    +0.000 C 
ATOM     19  O   UNL     1       5.815   2.959  15.561  0.00  0.00    +0.000 OA
BRANCH  18  25
ATOM     20  C   UNL     1       5.524   3.021  12.272  0.00  0.00    +0.000 C 
ATOM     21  N   UNL     1       6.436   4.023  12.837  0.00  0.00    +0.000 N 
ATOM     22  C   UNL     1       7.278   4.660  11.989  0.00  0.00    +0.000 A 
ATOM     23  N   UNL     1       8.070   5.559  12.622  0.00  0.00    +0.000 NA
ATOM     24  C   UNL     1       7.736   5.462  13.919  0.00  0.00    +0.000 A 
ATOM     25  C   UNL     1       6.743   4.514  14.103  0.00  0.00    +0.000 A 
ENDBRANCH  18  25
ENDBRANCH   1  18
TORSDOF 3
ENDMDL
MODEL 9
REMARK VINA RESULT:      -6.8      2.703      6.255
REMARK  Name = 
REMARK  4 active torsions:
REMARK  status: ('A' for Active; 'I' for Inactive)
REMARK    1  A    between atoms: C_1  and  N_2
REMARK    2  A    between atoms: C_6  and  C_7
REMARK    3  A    between atoms: C_7  and  C_9
REMARK    4  A    between atoms: C_14  and  C_16
REMARK                            x       y       z     vdW  Elec       q    Type
REMARK                         _______ _______ _______ _____ _____    ______ ____
ROOT
ATOM      1  C   UNL     1       4.880   4.998  16.339  0.00  0.00    +0.000 C 
ATOM      2  C   UNL     1       4.936   6.492  15.891  0.00  0.00    +0.000 C 
ATOM      3  C   UNL     1       4.459   7.279  17.102  0.00  0.00    +0.000 C 
ATOM      4  C   UNL     1       5.068   6.506  18.244  0.00  0.00    +0.000 C 
ATOM      5  N   UNL     1       5.169   5.111  17.788  0.00  0.00    +0.000 N 
ATOM      6  C   UNL     1       5.228   4.186  18.799  0.00  0.00    +0.000 C 
ATOM      7  O   UNL     1       5.581   4.583  19.914  0.00  0.00    +0.000 OA
ENDROOT
BRANCH   6   8
ATOM      8  C   UNL     1       4.875   2.708  18.808  0.00  0.00    +0.000 C 
ATOM      9  C   UNL     1       3.708   2.094  18.018  0.00  0.00    +0.000 C 
ATOM     10  C   UNL     1       2.530   1.954  19.008  0.00  0.00    +0.000 C 
ATOM     11  C   UNL     1       1.152   2.524  18.644  0.00  0.00    +0.000 C 
ATOM     12  C   UNL     1       1.008   4.051  18.656  0.00  0.00    +0.000 C 
ATOM     13  C   UNL     1       1.989   4.758  19.605  0.00  0.00    +0.000 C 
ATOM     14  C   UNL     1       2.542   3.892  20.749  0.00  0.00    +0.000 C 
ATOM     15  C   UNL     1       3.082   2.471  20.339  0.00  0.00    +0.000 C 
ATOM     16  N   UNL     1       4.549   2.385  20.209  0.00  0.00    +0.000 NA
ATOM     17  H   UNL     1       4.828   1.387  20.375  0.00  0.00    +0.000 HD
ENDBRANCH   6   8
BRANCH   1  18
ATOM     18  C   UNL     1       5.695   4.051  15.338  0.00  0.00    +0.000 C 
ATOM     19  O   UNL     1       5.748   2.872  15.667  0.00  0.00    +0.000 OA
BRANCH  18  25
ATOM     20  C   UNL     1       5.490   2.934  12.095  0.00  0.00    +0.000 C 
ATOM     21  N   UNL     1       6.342   3.912  12.783  0.00  0.00    +0.000 N 
ATOM     22  C   UNL     1       7.321   4.513  12.066  0.00  0.00    +0.000 A 
ATOM     23  N   UNL     1       8.041   5.392  12.804  0.00  0.00    +0.000 NA
ATOM     24  C   UNL     1       7.516   5.319  14.037  0.00  0.00    +0.000 A 
ATOM     25  C   UNL     1       6.475   4.405  14.078  0.00  0.00    +0.000 A 
ENDBRANCH  18  25
ENDBRANCH   1  18
TORSDOF 3
ENDMDL
