MODEL 1
REMARK VINA RESULT:      -8.7      0.000      0.000
REMARK  Name = 
REMARK  5 active torsions:
REMARK  status: ('A' for Active; 'I' for Inactive)
REMARK    1  A    between atoms: C_8  and  O_9
REMARK    2  A    between atoms: O_9  and  C_10
REMARK    3  A    between atoms: C_14  and  C_16
REMARK    4  A    between atoms: C_21  and  C_22
REMARK    5  A    between atoms: C_24  and  O_25
REMARK                            x       y       z     vdW  Elec       q    Type
REMARK                         _______ _______ _______ _____ _____    ______ ____
ROOT
ATOM      1  O   UNL     1       0.135   1.795  18.981  0.00  0.00    +0.000 OA
ATOM      2  C   UNL     1       1.205   2.300  18.719  0.00  0.00    +0.000 C 
ATOM      3  N   UNL     1       2.204   1.782  17.934  0.00  0.00    +0.000 N 
ATOM      4  C   UNL     1       3.365   2.630  17.873  0.00  0.00    +0.000 C 
ATOM      5  C   UNL     1       2.985   3.806  18.724  0.00  0.00    +0.000 A 
ATOM      6  C   UNL     1       1.688   3.595  19.212  0.00  0.00    +0.000 A 
ATOM      7  C   UNL     1       1.006   4.493  20.013  0.00  0.00    +0.000 A 
ATOM      8  C   UNL     1       1.663   5.667  20.359  0.00  0.00    +0.000 A 
ATOM      9  C   UNL     1       2.973   5.897  19.868  0.00  0.00    +0.000 A 
ATOM     10  C   UNL     1       3.674   4.983  19.030  0.00  0.00    +0.000 A 
ATOM     11  H   UNL     1       2.130   0.855  17.538  0.00  0.00    +0.000 HD
ENDROOT
BRANCH  10  12
ATOM     12  C   UNL     1       5.025   5.303  18.492  0.00  0.00    +0.000 A 
ATOM     13  C   UNL     1       5.233   5.494  17.110  0.00  0.00    +0.000 A 
ATOM     14  C   UNL     1       6.512   5.739  16.596  0.00  0.00    +0.000 A 
ATOM     15  C   UNL     1       7.622   5.776  17.421  0.00  0.00    +0.000 A 
ATOM     16  C   UNL     1       7.434   5.606  18.780  0.00  0.00    +0.000 A 
ATOM     17  F   UNL     1       8.492   5.632  19.603  0.00  0.00    +0.000 F 
ATOM     18  C   UNL     1       6.162   5.404  19.315  0.00  0.00    +0.000 A 
BRANCH  14  19
ATOM     19  O   UNL     1       6.712   5.941  15.262  0.00  0.00    +0.000 OA
ATOM     20  H   UNL     1       7.172   5.171  14.888  0.00  0.00    +0.000 HD
ENDBRANCH  14  19
ENDBRANCH  10  12
BRANCH   8  21
ATOM     21  O   UNL     1       1.147   6.670  21.150  0.00  0.00    +0.000 OA
BRANCH  21  22
ATOM     22  C   UNL     1       1.743   7.973  21.033  0.00  0.00    +0.000 C 
ATOM     23  C   UNL     1       1.229   8.903  22.151  0.00  0.00    +0.000 C 
ATOM     24  C   UNL     1       0.244   9.854  21.484  0.00  0.00    +0.000 C 
ATOM     25  N   UNL     1       0.700   9.920  20.114  0.00  0.00    +0.000 N 
ATOM     26  C   UNL     1       0.482  10.896  19.167  0.00  0.00    +0.000 C 
ATOM     27  O   UNL     1       0.902  10.787  18.016  0.00  0.00    +0.000 OA
ATOM     28  C   UNL     1       1.330   8.673  19.732  0.00  0.00    +0.000 C 
BRANCH  26  29
ATOM     29  C   UNL     1      -0.260  12.129  19.565  0.00  0.00    +0.000 C 
ATOM     30  C   UNL     1      -0.763  13.090  18.507  0.00  0.00    +0.000 C 
ATOM     31  C   UNL     1      -1.741  12.230  19.252  0.00  0.00    +0.000 C 
ENDBRANCH  26  29
ENDBRANCH  21  22
ENDBRANCH   8  21
TORSDOF 5
ENDMDL
MODEL 2
REMARK VINA RESULT:      -8.6      2.095      2.607
REMARK  Name = 
REMARK  5 active torsions:
REMARK  status: ('A' for Active; 'I' for Inactive)
REMARK    1  A    between atoms: C_8  and  O_9
REMARK    2  A    between atoms: O_9  and  C_10
REMARK    3  A    between atoms: C_14  and  C_16
REMARK    4  A    between atoms: C_21  and  C_22
REMARK    5  A    between atoms: C_24  and  O_25
REMARK                            x       y       z     vdW  Elec       q    Type
REMARK                         _______ _______ _______ _____ _____    ______ ____
ROOT
ATOM      1  O   UNL     1       0.851   2.898  21.740  0.00  0.00    +0.000 OA
ATOM      2  C   UNL     1       1.693   2.999  20.875  0.00  0.00    +0.000 C 
ATOM      3  N   UNL     1       2.378   1.986  20.252  0.00  0.00    +0.000 N 
ATOM      4  C   UNL     1       3.346   2.467  19.301  0.00  0.00    +0.000 C 
ATOM      5  C   UNL     1       3.192   3.958  19.368  0.00  0.00    +0.000 A 
ATOM      6  C   UNL     1       2.194   4.256  20.306  0.00  0.00    +0.000 A 
ATOM      7  C   UNL     1       1.770   5.538  20.606  0.00  0.00    +0.000 A 
ATOM      8  C   UNL     1       2.389   6.587  19.939  0.00  0.00    +0.000 A 
ATOM      9  C   UNL     1       3.397   6.302  18.983  0.00  0.00    +0.000 A 
ATOM     10  C   UNL     1       3.826   4.982  18.659  0.00  0.00    +0.000 A 
ATOM     11  H   UNL     1       2.256   1.023  20.532  0.00  0.00    +0.000 HD
ENDROOT
BRANCH  10  12
ATOM     12  C   UNL     1       4.845   4.736  17.602  0.00  0.00    +0.000 A 
ATOM     13  C   UNL     1       6.209   4.583  17.925  0.00  0.00    +0.000 A 
ATOM     14  C   UNL     1       7.177   4.408  16.929  0.00  0.00    +0.000 A 
ATOM     15  C   UNL     1       6.833   4.406  15.588  0.00  0.00    +0.000 A 
ATOM     16  C   UNL     1       5.498   4.540  15.253  0.00  0.00    +0.000 A 
ATOM     17  F   UNL     1       5.137   4.546  13.963  0.00  0.00    +0.000 F 
ATOM     18  C   UNL     1       4.516   4.672  16.236  0.00  0.00    +0.000 A 
BRANCH  14  19
ATOM     19  O   UNL     1       8.494   4.243  17.241  0.00  0.00    +0.000 OA
ATOM     20  H   UNL     1       8.721   3.300  17.180  0.00  0.00    +0.000 HD
ENDBRANCH  14  19
ENDBRANCH  10  12
BRANCH   8  21
ATOM     21  O   UNL     1       2.105   7.925  20.112  0.00  0.00    +0.000 OA
BRANCH  21  22
ATOM     22  C   UNL     1       1.194   8.530  19.179  0.00  0.00    +0.000 C 
ATOM     23  C   UNL     1       1.970   9.189  18.020  0.00  0.00    +0.000 C 
ATOM     24  C   UNL     1       1.905  10.690  18.274  0.00  0.00    +0.000 C 
ATOM     25  N   UNL     1       0.680  10.861  19.023  0.00  0.00    +0.000 N 
ATOM     26  C   UNL     1      -0.102  11.984  19.173  0.00  0.00    +0.000 C 
ATOM     27  O   UNL     1      -1.102  11.987  19.890  0.00  0.00    +0.000 OA
ATOM     28  C   UNL     1       0.406   9.681  19.817  0.00  0.00    +0.000 C 
BRANCH  26  29
ATOM     29  C   UNL     1       0.264  13.220  18.419  0.00  0.00    +0.000 C 
ATOM     30  C   UNL     1      -0.237  14.572  18.882  0.00  0.00    +0.000 C 
ATOM     31  C   UNL     1       1.210  14.220  19.058  0.00  0.00    +0.000 C 
ENDBRANCH  26  29
ENDBRANCH  21  22
ENDBRANCH   8  21
TORSDOF 5
ENDMDL
MODEL 3
REMARK VINA RESULT:      -8.6      2.300      2.780
REMARK  Name = 
REMARK  5 active torsions:
REMARK  status: ('A' for Active; 'I' for Inactive)
REMARK    1  A    between atoms: C_8  and  O_9
REMARK    2  A    between atoms: O_9  and  C_10
REMARK    3  A    between atoms: C_14  and  C_16
REMARK    4  A    between atoms: C_21  and  C_22
REMARK    5  A    between atoms: C_24  and  O_25
REMARK                            x       y       z     vdW  Elec       q    Type
REMARK                         _______ _______ _______ _____ _____    ______ ____
ROOT
ATOM      1  O   UNL     1       0.679   2.942  21.466  0.00  0.00    +0.000 OA
ATOM      2  C   UNL     1       1.554   3.056  20.637  0.00  0.00    +0.000 C 
ATOM      3  N   UNL     1       2.216   2.052  19.977  0.00  0.00    +0.000 N 
ATOM      4  C   UNL     1       3.236   2.544  19.088  0.00  0.00    +0.000 C 
ATOM      5  C   UNL     1       3.143   4.034  19.239  0.00  0.00    +0.000 A 
ATOM      6  C   UNL     1       2.127   4.321  20.161  0.00  0.00    +0.000 A 
ATOM      7  C   UNL     1       1.748   5.600  20.524  0.00  0.00    +0.000 A 
ATOM      8  C   UNL     1       2.434   6.659  19.941  0.00  0.00    +0.000 A 
ATOM      9  C   UNL     1       3.461   6.385  19.003  0.00  0.00    +0.000 A 
ATOM     10  C   UNL     1       3.844   5.069  18.614  0.00  0.00    +0.000 A 
ATOM     11  H   UNL     1       2.043   1.080  20.194  0.00  0.00    +0.000 HD
ENDROOT
BRANCH  10  12
ATOM     12  C   UNL     1       4.888   4.840  17.577  0.00  0.00    +0.000 A 
ATOM     13  C   UNL     1       6.236   4.626  17.933  0.00  0.00    +0.000 A 
ATOM     14  C   UNL     1       7.228   4.467  16.959  0.00  0.00    +0.000 A 
ATOM     15  C   UNL     1       6.927   4.541  15.610  0.00  0.00    +0.000 A 
ATOM     16  C   UNL     1       5.608   4.734  15.242  0.00  0.00    +0.000 A 
ATOM     17  F   UNL     1       5.289   4.815  13.944  0.00  0.00    +0.000 F 
ATOM     18  C   UNL     1       4.600   4.852  16.200  0.00  0.00    +0.000 A 
BRANCH  14  19
ATOM     19  O   UNL     1       8.529   4.244  17.302  0.00  0.00    +0.000 OA
ATOM     20  H   UNL     1       8.644   3.307  17.528  0.00  0.00    +0.000 HD
ENDBRANCH  14  19
ENDBRANCH  10  12
BRANCH   8  21
ATOM     21  O   UNL     1       2.201   7.995  20.185  0.00  0.00    +0.000 OA
BRANCH  21  22
ATOM     22  C   UNL     1       0.831   8.416  20.285  0.00  0.00    +0.000 C 
ATOM     23  C   UNL     1       0.506   9.456  19.193  0.00  0.00    +0.000 C 
ATOM     24  C   UNL     1       0.438  10.802  19.904  0.00  0.00    +0.000 C 
ATOM     25  N   UNL     1       0.054  10.461  21.255  0.00  0.00    +0.000 N 
ATOM     26  C   UNL     1      -0.549  11.243  22.215  0.00  0.00    +0.000 C 
ATOM     27  O   UNL     1      -0.773  10.820  23.348  0.00  0.00    +0.000 OA
ATOM     28  C   UNL     1       0.555   9.148  21.606  0.00  0.00    +0.000 C 
BRANCH  26  29
ATOM     29  C   UNL     1      -0.964  12.631  21.853  0.00  0.00    +0.000 C 
ATOM     30  C   UNL     1      -1.156  13.674  22.934  0.00  0.00    +0.000 C 
ATOM     31  C   UNL     1       0.030  13.764  22.022  0.00  0.00    +0.000 C 
ENDBRANCH  26  29
ENDBRANCH  21  22
ENDBRANCH   8  21
TORSDOF 5
ENDMDL
MODEL 4
REMARK VINA RESULT:      -8.6      2.092      2.305
REMARK  Name = 
REMARK  5 active torsions:
REMARK  status: ('A' for Active; 'I' for Inactive)
REMARK    1  A    between atoms: C_8  and  O_9
REMARK    2  A    between atoms: O_9  and  C_10
REMARK    3  A    between atoms: C_14  and  C_16
REMARK    4  A    between atoms: C_21  and  C_22
REMARK    5  A    between atoms: C_24  and  O_25
REMARK                            x       y       z     vdW  Elec       q    Type
REMARK                         _______ _______ _______ _____ _____    ______ ____
ROOT
ATOM      1  O   UNL     1       1.603   2.854  22.196  0.00  0.00    +0.000 OA
ATOM      2  C   UNL     1       2.400   3.131  21.326  0.00  0.00    +0.000 C 
ATOM      3  N   UNL     1       3.433   2.356  20.862  0.00  0.00    +0.000 N 
ATOM      4  C   UNL     1       4.217   3.016  19.851  0.00  0.00    +0.000 C 
ATOM      5  C   UNL     1       3.539   4.346  19.695  0.00  0.00    +0.000 A 
ATOM      6  C   UNL     1       2.452   4.392  20.577  0.00  0.00    +0.000 A 
ATOM      7  C   UNL     1       1.584   5.463  20.683  0.00  0.00    +0.000 A 
ATOM      8  C   UNL     1       1.824   6.562  19.867  0.00  0.00    +0.000 A 
ATOM      9  C   UNL     1       2.919   6.529  18.966  0.00  0.00    +0.000 A 
ATOM     10  C   UNL     1       3.805   5.420  18.842  0.00  0.00    +0.000 A 
ATOM     11  H   UNL     1       3.646   1.462  21.282  0.00  0.00    +0.000 HD
ENDROOT
BRANCH  10  12
ATOM     12  C   UNL     1       4.901   5.413  17.834  0.00  0.00    +0.000 A 
ATOM     13  C   UNL     1       4.979   4.408  16.848  0.00  0.00    +0.000 A 
ATOM     14  C   UNL     1       6.040   4.366  15.935  0.00  0.00    +0.000 A 
ATOM     15  C   UNL     1       7.064   5.295  15.984  0.00  0.00    +0.000 A 
ATOM     16  C   UNL     1       6.996   6.297  16.934  0.00  0.00    +0.000 A 
ATOM     17  F   UNL     1       7.977   7.207  17.007  0.00  0.00    +0.000 F 
ATOM     18  C   UNL     1       5.925   6.378  17.824  0.00  0.00    +0.000 A 
BRANCH  14  19
ATOM     19  O   UNL     1       6.107   3.404  14.971  0.00  0.00    +0.000 OA
ATOM     20  H   UNL     1       6.435   2.579  15.364  0.00  0.00    +0.000 HD
ENDBRANCH  14  19
ENDBRANCH  10  12
BRANCH   8  21
ATOM     21  O   UNL     1       1.074   7.718  19.839  0.00  0.00    +0.000 OA
BRANCH  21  22
ATOM     22  C   UNL     1       1.542   8.824  20.627  0.00  0.00    +0.000 C 
ATOM     23  C   UNL     1       1.259   8.577  22.123  0.00  0.00    +0.000 C 
ATOM     24  C   UNL     1       0.084   9.479  22.481  0.00  0.00    +0.000 C 
ATOM     25  N   UNL     1       0.189  10.573  21.542  0.00  0.00    +0.000 N 
ATOM     26  C   UNL     1      -0.312  11.852  21.633  0.00  0.00    +0.000 C 
ATOM     27  O   UNL     1      -0.179  12.666  20.720  0.00  0.00    +0.000 OA
ATOM     28  C   UNL     1       0.783  10.117  20.302  0.00  0.00    +0.000 C 
BRANCH  26  29
ATOM     29  C   UNL     1      -1.010  12.263  22.887  0.00  0.00    +0.000 C 
ATOM     30  C   UNL     1      -1.880  13.502  22.904  0.00  0.00    +0.000 C 
ATOM     31  C   UNL     1      -2.522  12.148  22.959  0.00  0.00    +0.000 C 
ENDBRANCH  26  29
ENDBRANCH  21  22
ENDBRANCH   8  21
TORSDOF 5
ENDMDL
MODEL 5
REMARK VINA RESULT:      -8.5      2.318      2.631
REMARK  Name = 
REMARK  5 active torsions:
REMARK  status: ('A' for Active; 'I' for Inactive)
REMARK    1  A    between atoms: C_8  and  O_9
REMARK    2  A    between atoms: O_9  and  C_10
REMARK    3  A    between atoms: C_14  and  C_16
REMARK    4  A    between atoms: C_21  and  C_22
REMARK    5  A    between atoms: C_24  and  O_25
REMARK                            x       y       z     vdW  Elec       q    Type
REMARK                         _______ _______ _______ _____ _____    ______ ____
ROOT
ATOM      1  O   UNL     1       1.723   2.931  22.232  0.00  0.00    +0.000 OA
ATOM      2  C   UNL     1       2.477   3.191  21.320  0.00  0.00    +0.000 C 
ATOM      3  N   UNL     1       3.486   2.407  20.821  0.00  0.00    +0.000 N 
ATOM      4  C   UNL     1       4.219   3.046  19.760  0.00  0.00    +0.000 C 
ATOM      5  C   UNL     1       3.534   4.373  19.611  0.00  0.00    +0.000 A 
ATOM      6  C   UNL     1       2.491   4.437  20.544  0.00  0.00    +0.000 A 
ATOM      7  C   UNL     1       1.628   5.511  20.671  0.00  0.00    +0.000 A 
ATOM      8  C   UNL     1       1.828   6.593  19.823  0.00  0.00    +0.000 A 
ATOM      9  C   UNL     1       2.877   6.542  18.870  0.00  0.00    +0.000 A 
ATOM     10  C   UNL     1       3.757   5.431  18.725  0.00  0.00    +0.000 A 
ATOM     11  H   UNL     1       3.720   1.521  21.247  0.00  0.00    +0.000 HD
ENDROOT
BRANCH  10  12
ATOM     12  C   UNL     1       4.803   5.404  17.665  0.00  0.00    +0.000 A 
ATOM     13  C   UNL     1       5.891   6.301  17.691  0.00  0.00    +0.000 A 
ATOM     14  C   UNL     1       6.844   6.316  16.666  0.00  0.00    +0.000 A 
ATOM     15  C   UNL     1       6.739   5.469  15.577  0.00  0.00    +0.000 A 
ATOM     16  C   UNL     1       5.687   4.572  15.543  0.00  0.00    +0.000 A 
ATOM     17  F   UNL     1       5.558   3.743  14.498  0.00  0.00    +0.000 F 
ATOM     18  C   UNL     1       4.752   4.514  16.577  0.00  0.00    +0.000 A 
BRANCH  14  19
ATOM     19  O   UNL     1       7.906   7.171  16.698  0.00  0.00    +0.000 OA
ATOM     20  H   UNL     1       8.067   7.447  17.615  0.00  0.00    +0.000 HD
ENDBRANCH  14  19
ENDBRANCH  10  12
BRANCH   8  21
ATOM     21  O   UNL     1       1.076   7.748  19.809  0.00  0.00    +0.000 OA
BRANCH  21  22
ATOM     22  C   UNL     1       1.524   8.833  20.638  0.00  0.00    +0.000 C 
ATOM     23  C   UNL     1       1.195   8.550  22.118  0.00  0.00    +0.000 C 
ATOM     24  C   UNL     1       0.013   9.446  22.463  0.00  0.00    +0.000 C 
ATOM     25  N   UNL     1       0.149  10.563  21.555  0.00  0.00    +0.000 N 
ATOM     26  C   UNL     1      -0.352  11.841  21.663  0.00  0.00    +0.000 C 
ATOM     27  O   UNL     1      -0.190  12.678  20.775  0.00  0.00    +0.000 OA
ATOM     28  C   UNL     1       0.778  10.136  20.323  0.00  0.00    +0.000 C 
BRANCH  26  29
ATOM     29  C   UNL     1      -1.086  12.223  22.906  0.00  0.00    +0.000 C 
ATOM     30  C   UNL     1      -1.834  13.538  22.975  0.00  0.00    +0.000 C 
ATOM     31  C   UNL     1      -2.602  12.254  22.885  0.00  0.00    +0.000 C 
ENDBRANCH  26  29
ENDBRANCH  21  22
ENDBRANCH   8  21
TORSDOF 5
ENDMDL
MODEL 6
REMARK VINA RESULT:      -8.5      2.800      5.073
REMARK  Name = 
REMARK  5 active torsions:
REMARK  status: ('A' for Active; 'I' for Inactive)
REMARK    1  A    between atoms: C_8  and  O_9
REMARK    2  A    between atoms: O_9  and  C_10
REMARK    3  A    between atoms: C_14  and  C_16
REMARK    4  A    between atoms: C_21  and  C_22
REMARK    5  A    between atoms: C_24  and  O_25
REMARK                            x       y       z     vdW  Elec       q    Type
REMARK                         _______ _______ _______ _____ _____    ______ ____
ROOT
ATOM      1  O   UNL     1       7.185   7.154  16.577  0.00  0.00    +0.000 OA
ATOM      2  C   UNL     1       6.398   6.397  17.102  0.00  0.00    +0.000 C 
ATOM      3  N   UNL     1       6.606   5.087  17.450  0.00  0.00    +0.000 N 
ATOM      4  C   UNL     1       5.437   4.466  18.015  0.00  0.00    +0.000 C 
ATOM      5  C   UNL     1       4.417   5.567  18.008  0.00  0.00    +0.000 A 
ATOM      6  C   UNL     1       5.013   6.714  17.468  0.00  0.00    +0.000 A 
ATOM      7  C   UNL     1       4.370   7.932  17.334  0.00  0.00    +0.000 A 
ATOM      8  C   UNL     1       3.047   8.004  17.752  0.00  0.00    +0.000 A 
ATOM      9  C   UNL     1       2.432   6.853  18.305  0.00  0.00    +0.000 A 
ATOM     10  C   UNL     1       3.095   5.601  18.460  0.00  0.00    +0.000 A 
ATOM     11  H   UNL     1       7.472   4.617  17.227  0.00  0.00    +0.000 HD
ENDROOT
BRANCH  10  12
ATOM     12  C   UNL     1       2.421   4.441  19.105  0.00  0.00    +0.000 A 
ATOM     13  C   UNL     1       2.695   4.089  20.443  0.00  0.00    +0.000 A 
ATOM     14  C   UNL     1       2.105   2.966  21.035  0.00  0.00    +0.000 A 
ATOM     15  C   UNL     1       1.253   2.144  20.319  0.00  0.00    +0.000 A 
ATOM     16  C   UNL     1       0.960   2.482  19.010  0.00  0.00    +0.000 A 
ATOM     17  F   UNL     1       0.142   1.701  18.292  0.00  0.00    +0.000 F 
ATOM     18  C   UNL     1       1.506   3.622  18.419  0.00  0.00    +0.000 A 
BRANCH  14  19
ATOM     19  O   UNL     1       2.357   2.634  22.333  0.00  0.00    +0.000 OA
ATOM     20  H   UNL     1       3.149   2.074  22.373  0.00  0.00    +0.000 HD
ENDBRANCH  14  19
ENDBRANCH  10  12
BRANCH   8  21
ATOM     21  O   UNL     1       2.248   9.125  17.690  0.00  0.00    +0.000 OA
BRANCH  21  22
ATOM     22  C   UNL     1       1.029   9.107  18.451  0.00  0.00    +0.000 C 
ATOM     23  C   UNL     1      -0.007  10.067  17.831  0.00  0.00    +0.000 C 
ATOM     24  C   UNL     1      -0.052  11.283  18.749  0.00  0.00    +0.000 C 
ATOM     25  N   UNL     1       0.336  10.757  20.038  0.00  0.00    +0.000 N 
ATOM     26  C   UNL     1       0.086  11.258  21.296  0.00  0.00    +0.000 C 
ATOM     27  O   UNL     1       0.527  10.717  22.309  0.00  0.00    +0.000 OA
ATOM     28  C   UNL     1       1.239   9.636  19.875  0.00  0.00    +0.000 C 
BRANCH  26  29
ATOM     29  C   UNL     1      -0.767  12.477  21.427  0.00  0.00    +0.000 C 
ATOM     30  C   UNL     1      -1.085  13.040  22.797  0.00  0.00    +0.000 C 
ATOM     31  C   UNL     1      -0.133  13.772  21.899  0.00  0.00    +0.000 C 
ENDBRANCH  26  29
ENDBRANCH  21  22
ENDBRANCH   8  21
TORSDOF 5
ENDMDL
MODEL 7
REMARK VINA RESULT:      -8.4      1.425      1.660
REMARK  Name = 
REMARK  5 active torsions:
REMARK  status: ('A' for Active; 'I' for Inactive)
REMARK    1  A    between atoms: C_8  and  O_9
REMARK    2  A    between atoms: O_9  and  C_10
REMARK    3  A    between atoms: C_14  and  C_16
REMARK    4  A    between atoms: C_21  and  C_22
REMARK    5  A    between atoms: C_24  and  O_25
REMARK                            x       y       z     vdW  Elec       q    Type
REMARK                         _______ _______ _______ _____ _____    ______ ____
ROOT
ATOM      1  O   UNL     1       0.333   1.992  18.599  0.00  0.00    +0.000 OA
ATOM      2  C   UNL     1       1.411   2.531  18.476  0.00  0.00    +0.000 C 
ATOM      3  N   UNL     1       2.503   2.066  17.787  0.00  0.00    +0.000 N 
ATOM      4  C   UNL     1       3.641   2.942  17.886  0.00  0.00    +0.000 C 
ATOM      5  C   UNL     1       3.138   4.076  18.732  0.00  0.00    +0.000 A 
ATOM      6  C   UNL     1       1.802   3.816  19.066  0.00  0.00    +0.000 A 
ATOM      7  C   UNL     1       1.012   4.666  19.818  0.00  0.00    +0.000 A 
ATOM      8  C   UNL     1       1.595   5.841  20.276  0.00  0.00    +0.000 A 
ATOM      9  C   UNL     1       2.945   6.120  19.943  0.00  0.00    +0.000 A 
ATOM     10  C   UNL     1       3.758   5.255  19.154  0.00  0.00    +0.000 A 
ATOM     11  H   UNL     1       2.499   1.154  17.353  0.00  0.00    +0.000 HD
ENDROOT
BRANCH  10  12
ATOM     12  C   UNL     1       5.150   5.627  18.781  0.00  0.00    +0.000 A 
ATOM     13  C   UNL     1       6.248   5.236  19.577  0.00  0.00    +0.000 A 
ATOM     14  C   UNL     1       7.552   5.632  19.260  0.00  0.00    +0.000 A 
ATOM     15  C   UNL     1       7.810   6.444  18.169  0.00  0.00    +0.000 A 
ATOM     16  C   UNL     1       6.748   6.823  17.368  0.00  0.00    +0.000 A 
ATOM     17  F   UNL     1       6.968   7.612  16.308  0.00  0.00    +0.000 F 
ATOM     18  C   UNL     1       5.447   6.402  17.646  0.00  0.00    +0.000 A 
BRANCH  14  19
ATOM     19  O   UNL     1       8.616   5.242  20.019  0.00  0.00    +0.000 OA
ATOM     20  H   UNL     1       8.487   4.321  20.300  0.00  0.00    +0.000 HD
ENDBRANCH  14  19
ENDBRANCH  10  12
BRANCH   8  21
ATOM     21  O   UNL     1       0.969   6.801  21.042  0.00  0.00    +0.000 OA
BRANCH  21  22
ATOM     22  C   UNL     1       1.531   8.123  21.028  0.00  0.00    +0.000 C 
ATOM     23  C   UNL     1       1.231   8.850  22.355  0.00  0.00    +0.000 C 
ATOM     24  C   UNL     1       0.138   9.863  22.039  0.00  0.00    +0.000 C 
ATOM     25  N   UNL     1       0.335  10.158  20.637  0.00  0.00    +0.000 N 
ATOM     26  C   UNL     1      -0.055  11.263  19.915  0.00  0.00    +0.000 C 
ATOM     27  O   UNL     1       0.145  11.349  18.704  0.00  0.00    +0.000 OA
ATOM     28  C   UNL     1       0.885   9.006  19.953  0.00  0.00    +0.000 C 
BRANCH  26  29
ATOM     29  C   UNL     1      -0.713  12.395  20.633  0.00  0.00    +0.000 C 
ATOM     30  C   UNL     1      -1.508  13.428  19.860  0.00  0.00    +0.000 C 
ATOM     31  C   UNL     1      -2.227  12.431  20.719  0.00  0.00    +0.000 C 
ENDBRANCH  26  29
ENDBRANCH  21  22
ENDBRANCH   8  21
TORSDOF 5
ENDMDL
MODEL 8
REMARK VINA RESULT:      -8.3      2.451      4.856
REMARK  Name = 
REMARK  5 active torsions:
REMARK  status: ('A' for Active; 'I' for Inactive)
REMARK    1  A    between atoms: C_8  and  O_9
REMARK    2  A    between atoms: O_9  and  C_10
REMARK    3  A    between atoms: C_14  and  C_16
REMARK    4  A    between atoms: C_21  and  C_22
REMARK    5  A    between atoms: C_24  and  O_25
REMARK                            x       y       z     vdW  Elec       q    Type
REMARK                         _______ _______ _______ _____ _____    ______ ____
ROOT
ATOM      1  O   UNL     1       7.230   6.667  16.233  0.00  0.00    +0.000 OA
ATOM      2  C   UNL     1       6.419   5.954  16.783  0.00  0.00    +0.000 C 
ATOM      3  N   UNL     1       6.529   4.613  17.047  0.00  0.00    +0.000 N 
ATOM      4  C   UNL     1       5.354   4.068  17.674  0.00  0.00    +0.000 C 
ATOM      5  C   UNL     1       4.445   5.255  17.807  0.00  0.00    +0.000 A 
ATOM      6  C   UNL     1       5.102   6.373  17.277  0.00  0.00    +0.000 A 
ATOM      7  C   UNL     1       4.568   7.649  17.257  0.00  0.00    +0.000 A 
ATOM      8  C   UNL     1       3.294   7.816  17.786  0.00  0.00    +0.000 A 
ATOM      9  C   UNL     1       2.618   6.694  18.330  0.00  0.00    +0.000 A 
ATOM     10  C   UNL     1       3.171   5.381  18.367  0.00  0.00    +0.000 A 
ATOM     11  H   UNL     1       7.328   4.081  16.730  0.00  0.00    +0.000 HD
ENDROOT
BRANCH  10  12
ATOM     12  C   UNL     1       2.443   4.251  19.007  0.00  0.00    +0.000 A 
ATOM     13  C   UNL     1       1.656   3.364  18.242  0.00  0.00    +0.000 A 
ATOM     14  C   UNL     1       0.925   2.335  18.848  0.00  0.00    +0.000 A 
ATOM     15  C   UNL     1       0.925   2.168  20.221  0.00  0.00    +0.000 A 
ATOM     16  C   UNL     1       1.703   3.019  20.985  0.00  0.00    +0.000 A 
ATOM     17  F   UNL     1       1.719   2.883  22.318  0.00  0.00    +0.000 F 
ATOM     18  C   UNL     1       2.471   4.022  20.395  0.00  0.00    +0.000 A 
BRANCH  14  19
ATOM     19  O   UNL     1       0.178   1.467  18.108  0.00  0.00    +0.000 OA
ATOM     20  H   UNL     1      -0.609   1.209  18.615  0.00  0.00    +0.000 HD
ENDBRANCH  14  19
ENDBRANCH  10  12
BRANCH   8  21
ATOM     21  O   UNL     1       2.601   9.005  17.846  0.00  0.00    +0.000 OA
BRANCH  21  22
ATOM     22  C   UNL     1       1.318   8.987  18.491  0.00  0.00    +0.000 C 
ATOM     23  C   UNL     1       0.364   9.998  17.823  0.00  0.00    +0.000 C 
ATOM     24  C   UNL     1       0.262  11.175  18.785  0.00  0.00    +0.000 C 
ATOM     25  N   UNL     1       0.517  10.586  20.080  0.00  0.00    +0.000 N 
ATOM     26  C   UNL     1       0.164  11.041  21.331  0.00  0.00    +0.000 C 
ATOM     27  O   UNL     1       0.498  10.447  22.355  0.00  0.00    +0.000 OA
ATOM     28  C   UNL     1       1.407   9.451  19.951  0.00  0.00    +0.000 C 
BRANCH  26  29
ATOM     29  C   UNL     1      -0.671  12.275  21.437  0.00  0.00    +0.000 C 
ATOM     30  C   UNL     1      -1.046  12.825  22.797  0.00  0.00    +0.000 C 
ATOM     31  C   UNL     1      -0.036  13.550  21.959  0.00  0.00    +0.000 C 
ENDBRANCH  26  29
ENDBRANCH  21  22
ENDBRANCH   8  21
TORSDOF 5
ENDMDL
MODEL 9
REMARK VINA RESULT:      -8.3      2.069      2.544
REMARK  Name = 
REMARK  5 active torsions:
REMARK  status: ('A' for Active; 'I' for Inactive)
REMARK    1  A    between atoms: C_8  and  O_9
REMARK    2  A    between atoms: O_9  and  C_10
REMARK    3  A    between atoms: C_14  and  C_16
REMARK    4  A    between atoms: C_21  and  C_22
REMARK    5  A    between atoms: C_24  and  O_25
REMARK                            x       y       z     vdW  Elec       q    Type
REMARK                         _______ _______ _______ _____ _____    ______ ____
ROOT
ATOM      1  O   UNL     1       0.053   2.525  19.832  0.00  0.00    +0.000 OA
ATOM      2  C   UNL     1       1.029   2.795  19.168  0.00  0.00    +0.000 C 
ATOM      3  N   UNL     1       1.677   1.987  18.268  0.00  0.00    +0.000 N 
ATOM      4  C   UNL     1       2.836   2.612  17.688  0.00  0.00    +0.000 C 
ATOM      5  C   UNL     1       2.856   3.972  18.322  0.00  0.00    +0.000 A 
ATOM      6  C   UNL     1       1.763   4.065  19.196  0.00  0.00    +0.000 A 
ATOM      7  C   UNL     1       1.455   5.194  19.934  0.00  0.00    +0.000 A 
ATOM      8  C   UNL     1       2.296   6.292  19.801  0.00  0.00    +0.000 A 
ATOM      9  C   UNL     1       3.402   6.215  18.918  0.00  0.00    +0.000 A 
ATOM     10  C   UNL     1       3.715   5.060  18.144  0.00  0.00    +0.000 A 
ATOM     11  H   UNL     1       1.396   1.026  18.130  0.00  0.00    +0.000 HD
ENDROOT
BRANCH  10  12
ATOM     12  C   UNL     1       4.853   5.055  17.185  0.00  0.00    +0.000 A 
ATOM     13  C   UNL     1       5.892   6.004  17.281  0.00  0.00    +0.000 A 
ATOM     14  C   UNL     1       6.934   6.037  16.346  0.00  0.00    +0.000 A 
ATOM     15  C   UNL     1       6.968   5.157  15.279  0.00  0.00    +0.000 A 
ATOM     16  C   UNL     1       5.966   4.209  15.178  0.00  0.00    +0.000 A 
ATOM     17  F   UNL     1       5.971   3.348  14.152  0.00  0.00    +0.000 F 
ATOM     18  C   UNL     1       4.943   4.135  16.124  0.00  0.00    +0.000 A 
BRANCH  14  19
ATOM     19  O   UNL     1       7.948   6.943  16.448  0.00  0.00    +0.000 OA
ATOM     20  H   UNL     1       8.413   7.000  15.597  0.00  0.00    +0.000 HD
ENDBRANCH  14  19
ENDBRANCH  10  12
BRANCH   8  21
ATOM     21  O   UNL     1       2.152   7.494  20.460  0.00  0.00    +0.000 OA
BRANCH  21  22
ATOM     22  C   UNL     1       0.861   8.124  20.404  0.00  0.00    +0.000 C 
ATOM     23  C   UNL     1       0.883   9.310  19.418  0.00  0.00    +0.000 C 
ATOM     24  C   UNL     1       0.893  10.568  20.277  0.00  0.00    +0.000 C 
ATOM     25  N   UNL     1       0.238  10.157  21.499  0.00  0.00    +0.000 N 
ATOM     26  C   UNL     1      -0.399  10.925  22.448  0.00  0.00    +0.000 C 
ATOM     27  O   UNL     1      -0.872  10.432  23.470  0.00  0.00    +0.000 OA
ATOM     28  C   UNL     1       0.474   8.751  21.749  0.00  0.00    +0.000 C 
BRANCH  26  29
ATOM     29  C   UNL     1      -0.538  12.393  22.209  0.00  0.00    +0.000 C 
ATOM     30  C   UNL     1      -1.771  12.938  21.518  0.00  0.00    +0.000 C 
ATOM     31  C   UNL     1      -1.583  13.169  22.988  0.00  0.00    +0.000 C 
ENDBRANCH  26  29
ENDBRANCH  21  22
ENDBRANCH   8  21
TORSDOF 5
ENDMDL
