MODEL 1
REMARK VINA RESULT:      -8.6      0.000      0.000
REMARK  Name = 
REMARK  4 active torsions:
REMARK  status: ('A' for Active; 'I' for Inactive)
REMARK    1  A    between atoms: C_2  and  C_3
REMARK    2  A    between atoms: C_3  and  N_4
REMARK    3  A    between atoms: N_14  and  C_15
REMARK    4  A    between atoms: C_19  and  C_20
REMARK                            x       y       z     vdW  Elec       q    Type
REMARK                         _______ _______ _______ _____ _____    ______ ____
ROOT
ATOM      1  O   UNL     1       8.202   4.174  16.922  0.00  0.00    +0.000 OA
ATOM      2  C   UNL     1       7.151   4.808  17.019  0.00  0.00    +0.000 C 
ATOM      3  N   UNL     1       6.307   5.123  15.964  0.00  0.00    +0.000 N 
ATOM      4  H   UNL     1       5.408   5.520  16.240  0.00  0.00    +0.000 HD
ENDROOT
BRANCH   3   5
ATOM      5  C   UNL     1       6.540   4.872  14.591  0.00  0.00    +0.000 A 
ATOM      6  C   UNL     1       7.708   5.265  13.935  0.00  0.00    +0.000 A 
ATOM      7  C   UNL     1       7.908   4.980  12.582  0.00  0.00    +0.000 A 
ATOM      8  C   UNL     1       6.938   4.291  11.863  0.00  0.00    +0.000 A 
ATOM      9  C   UNL     1       5.748   3.893  12.489  0.00  0.00    +0.000 A 
ATOM     10  C   UNL     1       5.553   4.201  13.853  0.00  0.00    +0.000 A 
BRANCH   9  11
ATOM     11  C   UNL     1       4.701   3.134  11.711  0.00  0.00    +0.000 C 
ATOM     12  F   UNL     1       3.550   2.917  12.409  0.00  0.00    +0.000 F 
ATOM     13  F   UNL     1       4.323   3.780  10.573  0.00  0.00    +0.000 F 
ATOM     14  F   UNL     1       5.131   1.904  11.316  0.00  0.00    +0.000 F 
ENDBRANCH   9  11
ENDBRANCH   3   5
BRANCH   2  15
ATOM     15  C   UNL     1       6.583   5.104  18.410  0.00  0.00    +0.000 C 
BRANCH  15  16
ATOM     16  N   UNL     1       5.278   4.554  18.688  0.00  0.00    +0.000 N 
ATOM     17  N   UNL     1       5.071   3.480  19.531  0.00  0.00    +0.000 NA
ATOM     18  C   UNL     1       3.777   3.463  19.682  0.00  0.00    +0.000 A 
ATOM     19  N   UNL     1       3.114   4.452  19.062  0.00  0.00    +0.000 N 
ATOM     20  C   UNL     1       4.058   5.194  18.404  0.00  0.00    +0.000 A 
ATOM     21  O   UNL     1       3.878   6.199  17.740  0.00  0.00    +0.000 OA
ATOM     22  C   UNL     1       1.677   4.613  18.984  0.00  0.00    +0.000 C 
ATOM     23  C   UNL     1       0.959   3.795  20.055  0.00  0.00    +0.000 C 
ATOM     24  C   UNL     1       1.573   2.398  20.166  0.00  0.00    +0.000 C 
ATOM     25  C   UNL     1       3.046   2.489  20.549  0.00  0.00    +0.000 C 
ENDBRANCH  15  16
ENDBRANCH   2  15
TORSDOF 4
ENDMDL
MODEL 2
REMARK VINA RESULT:      -8.6      1.238      1.690
REMARK  Name = 
REMARK  4 active torsions:
REMARK  status: ('A' for Active; 'I' for Inactive)
REMARK    1  A    between atoms: C_2  and  C_3
REMARK    2  A    between atoms: C_3  and  N_4
REMARK    3  A    between atoms: N_14  and  C_15
REMARK    4  A    between atoms: C_19  and  C_20
REMARK                            x       y       z     vdW  Elec       q    Type
REMARK                         _______ _______ _______ _____ _____    ______ ____
ROOT
ATOM      1  O   UNL     1       8.128   4.267  17.208  0.00  0.00    +0.000 OA
ATOM      2  C   UNL     1       6.990   4.731  17.281  0.00  0.00    +0.000 C 
ATOM      3  N   UNL     1       6.141   4.938  16.203  0.00  0.00    +0.000 N 
ATOM      4  H   UNL     1       5.184   5.186  16.456  0.00  0.00    +0.000 HD
ENDROOT
BRANCH   3   5
ATOM      5  C   UNL     1       6.452   4.759  14.835  0.00  0.00    +0.000 A 
ATOM      6  C   UNL     1       7.653   5.188  14.266  0.00  0.00    +0.000 A 
ATOM      7  C   UNL     1       7.930   4.974  12.914  0.00  0.00    +0.000 A 
ATOM      8  C   UNL     1       7.005   4.320  12.107  0.00  0.00    +0.000 A 
ATOM      9  C   UNL     1       5.785   3.887  12.644  0.00  0.00    +0.000 A 
ATOM     10  C   UNL     1       5.511   4.124  14.009  0.00  0.00    +0.000 A 
BRANCH   9  11
ATOM     11  C   UNL     1       4.787   3.166  11.771  0.00  0.00    +0.000 C 
ATOM     12  F   UNL     1       3.587   2.943  12.379  0.00  0.00    +0.000 F 
ATOM     13  F   UNL     1       4.498   3.853  10.630  0.00  0.00    +0.000 F 
ATOM     14  F   UNL     1       5.230   1.944  11.368  0.00  0.00    +0.000 F 
ENDBRANCH   9  11
ENDBRANCH   3   5
BRANCH   2  15
ATOM     15  C   UNL     1       6.341   4.903  18.656  0.00  0.00    +0.000 C 
BRANCH  15  16
ATOM     16  N   UNL     1       4.968   4.470  18.765  0.00  0.00    +0.000 N 
ATOM     17  N   UNL     1       3.939   5.018  18.027  0.00  0.00    +0.000 NA
ATOM     18  C   UNL     1       2.946   4.204  18.248  0.00  0.00    +0.000 A 
ATOM     19  N   UNL     1       3.233   3.144  19.020  0.00  0.00    +0.000 N 
ATOM     20  C   UNL     1       4.549   3.274  19.377  0.00  0.00    +0.000 A 
ATOM     21  O   UNL     1       5.211   2.508  20.054  0.00  0.00    +0.000 OA
ATOM     22  C   UNL     1       2.300   2.146  19.500  0.00  0.00    +0.000 C 
ATOM     23  C   UNL     1       1.009   2.142  18.686  0.00  0.00    +0.000 C 
ATOM     24  C   UNL     1       0.537   3.573  18.420  0.00  0.00    +0.000 C 
ATOM     25  C   UNL     1       1.589   4.348  17.634  0.00  0.00    +0.000 C 
ENDBRANCH  15  16
ENDBRANCH   2  15
TORSDOF 4
ENDMDL
MODEL 3
REMARK VINA RESULT:      -8.3      5.444      8.404
REMARK  Name = 
REMARK  4 active torsions:
REMARK  status: ('A' for Active; 'I' for Inactive)
REMARK    1  A    between atoms: C_2  and  C_3
REMARK    2  A    between atoms: C_3  and  N_4
REMARK    3  A    between atoms: N_14  and  C_15
REMARK    4  A    between atoms: C_19  and  C_20
REMARK                            x       y       z     vdW  Elec       q    Type
REMARK                         _______ _______ _______ _____ _____    ______ ____
ROOT
ATOM      1  O   UNL     1       1.338   4.860  20.673  0.00  0.00    +0.000 OA
ATOM      2  C   UNL     1       2.413   5.089  20.118  0.00  0.00    +0.000 C 
ATOM      3  N   UNL     1       2.844   6.339  19.699  0.00  0.00    +0.000 N 
ATOM      4  H   UNL     1       3.819   6.375  19.397  0.00  0.00    +0.000 HD
ENDROOT
BRANCH   3   5
ATOM      5  C   UNL     1       2.106   7.545  19.733  0.00  0.00    +0.000 A 
ATOM      6  C   UNL     1       1.962   8.379  18.621  0.00  0.00    +0.000 A 
ATOM      7  C   UNL     1       1.207   9.552  18.691  0.00  0.00    +0.000 A 
ATOM      8  C   UNL     1       0.577   9.908  19.878  0.00  0.00    +0.000 A 
ATOM      9  C   UNL     1       0.712   9.100  21.016  0.00  0.00    +0.000 A 
ATOM     10  C   UNL     1       1.491   7.925  20.936  0.00  0.00    +0.000 A 
BRANCH   9  11
ATOM     11  C   UNL     1       0.019   9.481  22.301  0.00  0.00    +0.000 C 
ATOM     12  F   UNL     1      -1.001   8.643  22.642  0.00  0.00    +0.000 F 
ATOM     13  F   UNL     1       0.864   9.485  23.370  0.00  0.00    +0.000 F 
ATOM     14  F   UNL     1      -0.527  10.727  22.253  0.00  0.00    +0.000 F 
ENDBRANCH   9  11
ENDBRANCH   3   5
BRANCH   2  15
ATOM     15  C   UNL     1       3.474   3.987  20.061  0.00  0.00    +0.000 C 
BRANCH  15  16
ATOM     16  N   UNL     1       4.323   3.990  18.894  0.00  0.00    +0.000 N 
ATOM     17  N   UNL     1       3.845   3.859  17.606  0.00  0.00    +0.000 NA
ATOM     18  C   UNL     1       4.882   4.144  16.871  0.00  0.00    +0.000 A 
ATOM     19  N   UNL     1       5.985   4.500  17.548  0.00  0.00    +0.000 N 
ATOM     20  C   UNL     1       5.663   4.419  18.876  0.00  0.00    +0.000 A 
ATOM     21  O   UNL     1       6.377   4.684  19.828  0.00  0.00    +0.000 OA
ATOM     22  C   UNL     1       7.293   4.770  16.989  0.00  0.00    +0.000 C 
ATOM     23  C   UNL     1       7.219   5.053  15.490  0.00  0.00    +0.000 C 
ATOM     24  C   UNL     1       6.277   4.062  14.803  0.00  0.00    +0.000 C 
ATOM     25  C   UNL     1       4.868   4.177  15.376  0.00  0.00    +0.000 C 
ENDBRANCH  15  16
ENDBRANCH   2  15
TORSDOF 4
ENDMDL
MODEL 4
REMARK VINA RESULT:      -8.2      1.322      1.751
REMARK  Name = 
REMARK  4 active torsions:
REMARK  status: ('A' for Active; 'I' for Inactive)
REMARK    1  A    between atoms: C_2  and  C_3
REMARK    2  A    between atoms: C_3  and  N_4
REMARK    3  A    between atoms: N_14  and  C_15
REMARK    4  A    between atoms: C_19  and  C_20
REMARK                            x       y       z     vdW  Elec       q    Type
REMARK                         _______ _______ _______ _____ _____    ______ ____
ROOT
ATOM      1  O   UNL     1       4.951   6.732  15.918  0.00  0.00    +0.000 OA
ATOM      2  C   UNL     1       5.547   5.822  16.495  0.00  0.00    +0.000 C 
ATOM      3  N   UNL     1       6.349   4.874  15.875  0.00  0.00    +0.000 N 
ATOM      4  H   UNL     1       6.887   4.287  16.514  0.00  0.00    +0.000 HD
ENDROOT
BRANCH   3   5
ATOM      5  C   UNL     1       6.548   4.712  14.484  0.00  0.00    +0.000 A 
ATOM      6  C   UNL     1       7.693   5.163  13.823  0.00  0.00    +0.000 A 
ATOM      7  C   UNL     1       7.860   4.965  12.451  0.00  0.00    +0.000 A 
ATOM      8  C   UNL     1       6.881   4.307  11.715  0.00  0.00    +0.000 A 
ATOM      9  C   UNL     1       5.714   3.854  12.346  0.00  0.00    +0.000 A 
ATOM     10  C   UNL     1       5.551   4.073  13.731  0.00  0.00    +0.000 A 
BRANCH   9  11
ATOM     11  C   UNL     1       4.656   3.129  11.550  0.00  0.00    +0.000 C 
ATOM     12  F   UNL     1       4.275   3.786  10.418  0.00  0.00    +0.000 F 
ATOM     13  F   UNL     1       5.064   1.895  11.139  0.00  0.00    +0.000 F 
ATOM     14  F   UNL     1       3.513   2.925  12.261  0.00  0.00    +0.000 F 
ENDBRANCH   9  11
ENDBRANCH   3   5
BRANCH   2  15
ATOM     15  C   UNL     1       5.614   5.824  18.024  0.00  0.00    +0.000 C 
BRANCH  15  16
ATOM     16  N   UNL     1       4.620   5.026  18.701  0.00  0.00    +0.000 N 
ATOM     17  N   UNL     1       3.863   5.492  19.757  0.00  0.00    +0.000 NA
ATOM     18  C   UNL     1       2.957   4.567  19.907  0.00  0.00    +0.000 A 
ATOM     19  N   UNL     1       3.012   3.561  19.020  0.00  0.00    +0.000 N 
ATOM     20  C   UNL     1       4.082   3.823  18.207  0.00  0.00    +0.000 A 
ATOM     21  O   UNL     1       4.465   3.168  17.254  0.00  0.00    +0.000 OA
ATOM     22  C   UNL     1       2.196   2.365  19.018  0.00  0.00    +0.000 C 
ATOM     23  C   UNL     1       0.938   2.539  19.866  0.00  0.00    +0.000 C 
ATOM     24  C   UNL     1       1.271   3.242  21.183  0.00  0.00    +0.000 C 
ATOM     25  C   UNL     1       1.858   4.624  20.920  0.00  0.00    +0.000 C 
ENDBRANCH  15  16
ENDBRANCH   2  15
TORSDOF 4
ENDMDL
MODEL 5
REMARK VINA RESULT:      -8.1      1.422      1.631
REMARK  Name = 
REMARK  4 active torsions:
REMARK  status: ('A' for Active; 'I' for Inactive)
REMARK    1  A    between atoms: C_2  and  C_3
REMARK    2  A    between atoms: C_3  and  N_4
REMARK    3  A    between atoms: N_14  and  C_15
REMARK    4  A    between atoms: C_19  and  C_20
REMARK                            x       y       z     vdW  Elec       q    Type
REMARK                         _______ _______ _______ _____ _____    ______ ____
ROOT
ATOM      1  O   UNL     1       5.109   7.233  15.639  0.00  0.00    +0.000 OA
ATOM      2  C   UNL     1       5.305   6.223  16.315  0.00  0.00    +0.000 C 
ATOM      3  N   UNL     1       5.870   5.045  15.847  0.00  0.00    +0.000 N 
ATOM      4  H   UNL     1       6.099   4.363  16.572  0.00  0.00    +0.000 HD
ENDROOT
BRANCH   3   5
ATOM      5  C   UNL     1       6.224   4.750  14.509  0.00  0.00    +0.000 A 
ATOM      6  C   UNL     1       7.478   5.049  13.973  0.00  0.00    +0.000 A 
ATOM      7  C   UNL     1       7.796   4.722  12.652  0.00  0.00    +0.000 A 
ATOM      8  C   UNL     1       6.859   4.085  11.846  0.00  0.00    +0.000 A 
ATOM      9  C   UNL     1       5.587   3.782  12.350  0.00  0.00    +0.000 A 
ATOM     10  C   UNL     1       5.274   4.131  13.682  0.00  0.00    +0.000 A 
BRANCH   9  11
ATOM     11  C   UNL     1       4.575   3.079  11.479  0.00  0.00    +0.000 C 
ATOM     12  F   UNL     1       4.232   3.781  10.362  0.00  0.00    +0.000 F 
ATOM     13  F   UNL     1       5.019   1.871  11.031  0.00  0.00    +0.000 F 
ATOM     14  F   UNL     1       3.406   2.828  12.131  0.00  0.00    +0.000 F 
ENDBRANCH   9  11
ENDBRANCH   3   5
BRANCH   2  15
ATOM     15  C   UNL     1       5.131   6.295  17.835  0.00  0.00    +0.000 C 
BRANCH  15  16
ATOM     16  N   UNL     1       4.121   5.430  18.396  0.00  0.00    +0.000 N 
ATOM     17  N   UNL     1       4.219   4.054  18.405  0.00  0.00    +0.000 NA
ATOM     18  C   UNL     1       3.246   3.689  19.191  0.00  0.00    +0.000 A 
ATOM     19  N   UNL     1       2.546   4.693  19.741  0.00  0.00    +0.000 N 
ATOM     20  C   UNL     1       3.088   5.852  19.253  0.00  0.00    +0.000 A 
ATOM     21  O   UNL     1       2.760   6.994  19.524  0.00  0.00    +0.000 OA
ATOM     22  C   UNL     1       1.362   4.571  20.566  0.00  0.00    +0.000 C 
ATOM     23  C   UNL     1       1.217   3.164  21.140  0.00  0.00    +0.000 C 
ATOM     24  C   UNL     1       1.522   2.114  20.070  0.00  0.00    +0.000 C 
ATOM     25  C   UNL     1       2.949   2.270  19.557  0.00  0.00    +0.000 C 
ENDBRANCH  15  16
ENDBRANCH   2  15
TORSDOF 4
ENDMDL
MODEL 6
REMARK VINA RESULT:      -7.7      1.065      1.111
REMARK  Name = 
REMARK  4 active torsions:
REMARK  status: ('A' for Active; 'I' for Inactive)
REMARK    1  A    between atoms: C_2  and  C_3
REMARK    2  A    between atoms: C_3  and  N_4
REMARK    3  A    between atoms: N_14  and  C_15
REMARK    4  A    between atoms: C_19  and  C_20
REMARK                            x       y       z     vdW  Elec       q    Type
REMARK                         _______ _______ _______ _____ _____    ______ ____
ROOT
ATOM      1  O   UNL     1       7.284   4.337  17.065  0.00  0.00    +0.000 OA
ATOM      2  C   UNL     1       6.402   5.179  16.896  0.00  0.00    +0.000 C 
ATOM      3  N   UNL     1       5.842   5.515  15.672  0.00  0.00    +0.000 N 
ATOM      4  H   UNL     1       5.022   6.121  15.730  0.00  0.00    +0.000 HD
ENDROOT
BRANCH   3   5
ATOM      5  C   UNL     1       6.241   5.041  14.400  0.00  0.00    +0.000 A 
ATOM      6  C   UNL     1       7.521   5.245  13.881  0.00  0.00    +0.000 A 
ATOM      7  C   UNL     1       7.882   4.742  12.629  0.00  0.00    +0.000 A 
ATOM      8  C   UNL     1       6.963   4.022  11.874  0.00  0.00    +0.000 A 
ATOM      9  C   UNL     1       5.665   3.811  12.361  0.00  0.00    +0.000 A 
ATOM     10  C   UNL     1       5.309   4.337  13.622  0.00  0.00    +0.000 A 
BRANCH   9  11
ATOM     11  C   UNL     1       4.671   3.019  11.547  0.00  0.00    +0.000 C 
ATOM     12  F   UNL     1       3.478   2.823  12.178  0.00  0.00    +0.000 F 
ATOM     13  F   UNL     1       4.366   3.620  10.363  0.00  0.00    +0.000 F 
ATOM     14  F   UNL     1       5.128   1.777  11.226  0.00  0.00    +0.000 F 
ENDBRANCH   9  11
ENDBRANCH   3   5
BRANCH   2  15
ATOM     15  C   UNL     1       5.689   5.768  18.116  0.00  0.00    +0.000 C 
BRANCH  15  16
ATOM     16  N   UNL     1       4.636   4.959  18.682  0.00  0.00    +0.000 N 
ATOM     17  N   UNL     1       4.115   5.165  19.943  0.00  0.00    +0.000 NA
ATOM     18  C   UNL     1       3.063   4.397  19.962  0.00  0.00    +0.000 A 
ATOM     19  N   UNL     1       2.810   3.741  18.818  0.00  0.00    +0.000 N 
ATOM     20  C   UNL     1       3.812   4.084  17.950  0.00  0.00    +0.000 A 
ATOM     21  O   UNL     1       3.942   3.727  16.792  0.00  0.00    +0.000 OA
ATOM     22  C   UNL     1       1.772   2.756  18.597  0.00  0.00    +0.000 C 
ATOM     23  C   UNL     1       0.681   2.838  19.662  0.00  0.00    +0.000 C 
ATOM     24  C   UNL     1       1.299   3.008  21.051  0.00  0.00    +0.000 C 
ATOM     25  C   UNL     1       2.121   4.290  21.119  0.00  0.00    +0.000 C 
ENDBRANCH  15  16
ENDBRANCH   2  15
TORSDOF 4
ENDMDL
MODEL 7
REMARK VINA RESULT:      -7.7      1.123      1.294
REMARK  Name = 
REMARK  4 active torsions:
REMARK  status: ('A' for Active; 'I' for Inactive)
REMARK    1  A    between atoms: C_2  and  C_3
REMARK    2  A    between atoms: C_3  and  N_4
REMARK    3  A    between atoms: N_14  and  C_15
REMARK    4  A    between atoms: C_19  and  C_20
REMARK                            x       y       z     vdW  Elec       q    Type
REMARK                         _______ _______ _______ _____ _____    ______ ____
ROOT
ATOM      1  O   UNL     1       7.706   5.809  16.674  0.00  0.00    +0.000 OA
ATOM      2  C   UNL     1       6.772   5.024  16.841  0.00  0.00    +0.000 C 
ATOM      3  N   UNL     1       6.213   4.227  15.853  0.00  0.00    +0.000 N 
ATOM      4  H   UNL     1       5.552   3.527  16.193  0.00  0.00    +0.000 HD
ENDROOT
BRANCH   3   5
ATOM      5  C   UNL     1       6.531   4.239  14.475  0.00  0.00    +0.000 A 
ATOM      6  C   UNL     1       7.350   5.209  13.893  0.00  0.00    +0.000 A 
ATOM      7  C   UNL     1       7.657   5.174  12.531  0.00  0.00    +0.000 A 
ATOM      8  C   UNL     1       7.148   4.161  11.726  0.00  0.00    +0.000 A 
ATOM      9  C   UNL     1       6.313   3.179  12.276  0.00  0.00    +0.000 A 
ATOM     10  C   UNL     1       5.999   3.234  13.652  0.00  0.00    +0.000 A 
BRANCH   9  11
ATOM     11  C   UNL     1       5.771   2.071  11.405  0.00  0.00    +0.000 C 
ATOM     12  F   UNL     1       4.523   2.320  10.915  0.00  0.00    +0.000 F 
ATOM     13  F   UNL     1       6.552   1.833  10.315  0.00  0.00    +0.000 F 
ATOM     14  F   UNL     1       5.679   0.884  12.064  0.00  0.00    +0.000 F 
ENDBRANCH   9  11
ENDBRANCH   3   5
BRANCH   2  15
ATOM     15  C   UNL     1       6.306   4.709  18.265  0.00  0.00    +0.000 C 
BRANCH  15  16
ATOM     16  N   UNL     1       4.926   4.311  18.403  0.00  0.00    +0.000 N 
ATOM     17  N   UNL     1       4.473   3.035  18.134  0.00  0.00    +0.000 NA
ATOM     18  C   UNL     1       3.257   3.044  18.602  0.00  0.00    +0.000 A 
ATOM     19  N   UNL     1       2.880   4.185  19.198  0.00  0.00    +0.000 N 
ATOM     20  C   UNL     1       3.943   5.042  19.096  0.00  0.00    +0.000 A 
ATOM     21  O   UNL     1       4.024   6.176  19.533  0.00  0.00    +0.000 OA
ATOM     22  C   UNL     1       1.563   4.498  19.712  0.00  0.00    +0.000 C 
ATOM     23  C   UNL     1       0.726   3.238  19.924  0.00  0.00    +0.000 C 
ATOM     24  C   UNL     1       0.885   2.283  18.740  0.00  0.00    +0.000 C 
ATOM     25  C   UNL     1       2.341   1.861  18.582  0.00  0.00    +0.000 C 
ENDBRANCH  15  16
ENDBRANCH   2  15
TORSDOF 4
ENDMDL
MODEL 8
REMARK VINA RESULT:      -7.7      5.753      8.764
REMARK  Name = 
REMARK  4 active torsions:
REMARK  status: ('A' for Active; 'I' for Inactive)
REMARK    1  A    between atoms: C_2  and  C_3
REMARK    2  A    between atoms: C_3  and  N_4
REMARK    3  A    between atoms: N_14  and  C_15
REMARK    4  A    between atoms: C_19  and  C_20
REMARK                            x       y       z     vdW  Elec       q    Type
REMARK                         _______ _______ _______ _____ _____    ______ ____
ROOT
ATOM      1  O   UNL     1       1.000   5.177  20.617  0.00  0.00    +0.000 OA
ATOM      2  C   UNL     1       2.096   5.482  20.145  0.00  0.00    +0.000 C 
ATOM      3  N   UNL     1       2.532   6.778  19.912  0.00  0.00    +0.000 N 
ATOM      4  H   UNL     1       3.519   6.858  19.661  0.00  0.00    +0.000 HD
ENDROOT
BRANCH   3   5
ATOM      5  C   UNL     1       1.780   7.966  20.069  0.00  0.00    +0.000 A 
ATOM      6  C   UNL     1       1.530   8.851  19.018  0.00  0.00    +0.000 A 
ATOM      7  C   UNL     1       0.764  10.003  19.209  0.00  0.00    +0.000 A 
ATOM      8  C   UNL     1       0.231  10.287  20.462  0.00  0.00    +0.000 A 
ATOM      9  C   UNL     1       0.473   9.426  21.541  0.00  0.00    +0.000 A 
ATOM     10  C   UNL     1       1.262   8.272  21.337  0.00  0.00    +0.000 A 
BRANCH   9  11
ATOM     11  C   UNL     1      -0.116   9.727  22.898  0.00  0.00    +0.000 C 
ATOM     12  F   UNL     1      -1.252   9.025  23.170  0.00  0.00    +0.000 F 
ATOM     13  F   UNL     1       0.744   9.444  23.916  0.00  0.00    +0.000 F 
ATOM     14  F   UNL     1      -0.448  11.039  23.044  0.00  0.00    +0.000 F 
ENDBRANCH   9  11
ENDBRANCH   3   5
BRANCH   2  15
ATOM     15  C   UNL     1       3.171   4.402  19.993  0.00  0.00    +0.000 C 
BRANCH  15  16
ATOM     16  N   UNL     1       4.054   4.547  18.860  0.00  0.00    +0.000 N 
ATOM     17  N   UNL     1       5.401   4.822  18.978  0.00  0.00    +0.000 NA
ATOM     18  C   UNL     1       5.851   4.637  17.770  0.00  0.00    +0.000 A 
ATOM     19  N   UNL     1       4.942   4.217  16.876  0.00  0.00    +0.000 N 
ATOM     20  C   UNL     1       3.751   4.138  17.548  0.00  0.00    +0.000 A 
ATOM     21  O   UNL     1       2.676   3.772  17.108  0.00  0.00    +0.000 OA
ATOM     22  C   UNL     1       5.148   4.029  15.456  0.00  0.00    +0.000 C 
ATOM     23  C   UNL     1       6.632   3.923  15.110  0.00  0.00    +0.000 C 
ATOM     24  C   UNL     1       7.437   4.976  15.873  0.00  0.00    +0.000 C 
ATOM     25  C   UNL     1       7.288   4.780  17.378  0.00  0.00    +0.000 C 
ENDBRANCH  15  16
ENDBRANCH   2  15
TORSDOF 4
ENDMDL
MODEL 9
REMARK VINA RESULT:      -7.6      1.311      1.429
REMARK  Name = 
REMARK  4 active torsions:
REMARK  status: ('A' for Active; 'I' for Inactive)
REMARK    1  A    between atoms: C_2  and  C_3
REMARK    2  A    between atoms: C_3  and  N_4
REMARK    3  A    between atoms: N_14  and  C_15
REMARK    4  A    between atoms: C_19  and  C_20
REMARK                            x       y       z     vdW  Elec       q    Type
REMARK                         _______ _______ _______ _____ _____    ______ ____
ROOT
ATOM      1  O   UNL     1       5.169   6.755  15.614  0.00  0.00    +0.000 OA
ATOM      2  C   UNL     1       5.747   5.855  16.223  0.00  0.00    +0.000 C 
ATOM      3  N   UNL     1       6.573   4.901  15.646  0.00  0.00    +0.000 N 
ATOM      4  H   UNL     1       7.089   4.324  16.311  0.00  0.00    +0.000 HD
ENDROOT
BRANCH   3   5
ATOM      5  C   UNL     1       6.820   4.720  14.265  0.00  0.00    +0.000 A 
ATOM      6  C   UNL     1       7.672   5.549  13.531  0.00  0.00    +0.000 A 
ATOM      7  C   UNL     1       7.906   5.324  12.173  0.00  0.00    +0.000 A 
ATOM      8  C   UNL     1       7.290   4.259  11.525  0.00  0.00    +0.000 A 
ATOM      9  C   UNL     1       6.419   3.415  12.229  0.00  0.00    +0.000 A 
ATOM     10  C   UNL     1       6.180   3.663  13.599  0.00  0.00    +0.000 A 
BRANCH   9  11
ATOM     11  C   UNL     1       5.761   2.252  11.529  0.00  0.00    +0.000 C 
ATOM     12  F   UNL     1       4.499   2.520  11.089  0.00  0.00    +0.000 F 
ATOM     13  F   UNL     1       6.454   1.843  10.430  0.00  0.00    +0.000 F 
ATOM     14  F   UNL     1       5.648   1.155  12.328  0.00  0.00    +0.000 F 
ENDBRANCH   9  11
ENDBRANCH   3   5
BRANCH   2  15
ATOM     15  C   UNL     1       5.761   5.879  17.754  0.00  0.00    +0.000 C 
BRANCH  15  16
ATOM     16  N   UNL     1       4.691   5.163  18.406  0.00  0.00    +0.000 N 
ATOM     17  N   UNL     1       4.834   3.893  18.928  0.00  0.00    +0.000 NA
ATOM     18  C   UNL     1       3.737   3.725  19.611  0.00  0.00    +0.000 A 
ATOM     19  N   UNL     1       2.906   4.780  19.632  0.00  0.00    +0.000 N 
ATOM     20  C   UNL     1       3.494   5.746  18.861  0.00  0.00    +0.000 A 
ATOM     21  O   UNL     1       3.078   6.870  18.640  0.00  0.00    +0.000 OA
ATOM     22  C   UNL     1       1.588   4.830  20.228  0.00  0.00    +0.000 C 
ATOM     23  C   UNL     1       1.381   3.702  21.236  0.00  0.00    +0.000 C 
ATOM     24  C   UNL     1       1.929   2.383  20.687  0.00  0.00    +0.000 C 
ATOM     25  C   UNL     1       3.423   2.499  20.408  0.00  0.00    +0.000 C 
ENDBRANCH  15  16
ENDBRANCH   2  15
TORSDOF 4
ENDMDL
