MODEL 1
REMARK VINA RESULT:      -7.6      0.000      0.000
REMARK  Name = 
REMARK  7 active torsions:
REMARK  status: ('A' for Active; 'I' for Inactive)
REMARK    1  A    between atoms: C_6  and  O_7
REMARK    2  A    between atoms: C_8  and  C_9
REMARK    3  A    between atoms: C_15  and  O_16
REMARK    4  A    between atoms: C_18  and  C_19
REMARK    5  A    between atoms: C_22  and  O_23
REMARK    6  A    between atoms: C_24  and  O_25
REMARK    7  A    between atoms: C_27  and  O_28
REMARK                            x       y       z     vdW  Elec       q    Type
REMARK                         _______ _______ _______ _____ _____    ______ ____
ROOT
ATOM      1  O   UNL     1       1.833   9.522  17.444  0.00  0.00    +0.000 OA
ATOM      2  C   UNL     1       2.050   8.873  18.463  0.00  0.00    +0.000 C 
ATOM      3  C   UNL     1       1.386   9.135  19.755  0.00  0.00    +0.000 A 
ATOM      4  C   UNL     1       1.236   8.054  20.630  0.00  0.00    +0.000 A 
ATOM      5  C   UNL     1       0.598   8.242  21.857  0.00  0.00    +0.000 A 
ATOM      6  C   UNL     1       0.069   9.494  22.183  0.00  0.00    +0.000 A 
ATOM      7  C   UNL     1       0.195  10.594  21.319  0.00  0.00    +0.000 A 
ATOM      8  C   UNL     1       0.913  10.400  20.120  0.00  0.00    +0.000 A 
ATOM      9  O   UNL     1       1.703   6.787  20.388  0.00  0.00    +0.000 OA
ATOM     10  C   UNL     1       2.044   6.525  19.013  0.00  0.00    +0.000 C 
ATOM     11  C   UNL     1       2.928   7.639  18.439  0.00  0.00    +0.000 C 
ENDROOT
BRANCH   7  12
ATOM     12  C   UNL     1      -0.419  11.943  21.675  0.00  0.00    +0.000 C 
ATOM     13  C   UNL     1      -1.599  12.299  20.744  0.00  0.00    +0.000 C 
ATOM     14  C   UNL     1      -2.165  13.685  21.053  0.00  0.00    +0.000 C 
ATOM     15  C   UNL     1      -1.056  14.730  21.120  0.00  0.00    +0.000 C 
ATOM     16  C   UNL     1       0.071  14.282  22.044  0.00  0.00    +0.000 C 
ATOM     17  N   UNL     1       0.621  12.992  21.611  0.00  0.00    +0.000 NA
ATOM     18  H   UNL     1       1.355  12.732  22.275  0.00  0.00    +0.000 HD
ENDBRANCH   7  12
BRANCH  10  19
ATOM     19  C   UNL     1       2.738   5.175  18.891  0.00  0.00    +0.000 A 
ATOM     20  C   UNL     1       4.006   4.997  19.487  0.00  0.00    +0.000 A 
ATOM     21  C   UNL     1       4.626   3.748  19.510  0.00  0.00    +0.000 A 
ATOM     22  C   UNL     1       3.975   2.664  18.935  0.00  0.00    +0.000 A 
ATOM     23  C   UNL     1       2.732   2.831  18.334  0.00  0.00    +0.000 A 
ATOM     24  C   UNL     1       2.107   4.070  18.300  0.00  0.00    +0.000 A 
BRANCH  22  25
ATOM     25  O   UNL     1       4.515   1.408  18.957  0.00  0.00    +0.000 OA
ATOM     26  H   UNL     1       3.808   0.772  18.745  0.00  0.00    +0.000 HD
ENDBRANCH  22  25
BRANCH  23  27
ATOM     27  O   UNL     1       2.095   1.750  17.785  0.00  0.00    +0.000 OA
ATOM     28  H   UNL     1       1.404   2.146  17.213  0.00  0.00    +0.000 HD
ENDBRANCH  23  27
ENDBRANCH  10  19
BRANCH   6  29
ATOM     29  O   UNL     1      -0.576   9.657  23.379  0.00  0.00    +0.000 OA
ATOM     30  H   UNL     1      -0.202  10.422  23.847  0.00  0.00    +0.000 HD
ENDBRANCH   6  29
BRANCH   8  31
ATOM     31  O   UNL     1       1.216  11.478  19.330  0.00  0.00    +0.000 OA
ATOM     32  H   UNL     1       0.412  12.036  19.258  0.00  0.00    +0.000 HD
ENDBRANCH   8  31
BRANCH  11  33
ATOM     33  O   UNL     1       3.352   7.370  17.098  0.00  0.00    +0.000 OA
ATOM     34  H   UNL     1       2.556   7.443  16.535  0.00  0.00    +0.000 HD
ENDBRANCH  11  33
TORSDOF 7
ENDMDL
MODEL 2
REMARK VINA RESULT:      -7.6      0.650      1.294
REMARK  Name = 
REMARK  7 active torsions:
REMARK  status: ('A' for Active; 'I' for Inactive)
REMARK    1  A    between atoms: C_6  and  O_7
REMARK    2  A    between atoms: C_8  and  C_9
REMARK    3  A    between atoms: C_15  and  O_16
REMARK    4  A    between atoms: C_18  and  C_19
REMARK    5  A    between atoms: C_22  and  O_23
REMARK    6  A    between atoms: C_24  and  O_25
REMARK    7  A    between atoms: C_27  and  O_28
REMARK                            x       y       z     vdW  Elec       q    Type
REMARK                         _______ _______ _______ _____ _____    ______ ____
ROOT
ATOM      1  O   UNL     1       1.775   9.557  17.363  0.00  0.00    +0.000 OA
ATOM      2  C   UNL     1       2.024   8.945  18.397  0.00  0.00    +0.000 C 
ATOM      3  C   UNL     1       1.475   9.314  19.716  0.00  0.00    +0.000 A 
ATOM      4  C   UNL     1       1.320   8.290  20.656  0.00  0.00    +0.000 A 
ATOM      5  C   UNL     1       0.787   8.580  21.913  0.00  0.00    +0.000 A 
ATOM      6  C   UNL     1       0.364   9.878  22.208  0.00  0.00    +0.000 A 
ATOM      7  C   UNL     1       0.497  10.925  21.279  0.00  0.00    +0.000 A 
ATOM      8  C   UNL     1       1.111  10.624  20.045  0.00  0.00    +0.000 A 
ATOM      9  O   UNL     1       1.686   6.983  20.450  0.00  0.00    +0.000 OA
ATOM     10  C   UNL     1       1.908   6.632  19.070  0.00  0.00    +0.000 C 
ATOM     11  C   UNL     1       2.817   7.655  18.377  0.00  0.00    +0.000 C 
ENDROOT
BRANCH   7  12
ATOM     12  C   UNL     1      -0.002  12.327  21.606  0.00  0.00    +0.000 C 
ATOM     13  C   UNL     1      -1.196  12.732  20.713  0.00  0.00    +0.000 C 
ATOM     14  C   UNL     1      -1.646  14.167  20.988  0.00  0.00    +0.000 C 
ATOM     15  C   UNL     1      -0.463  15.130  20.963  0.00  0.00    +0.000 C 
ATOM     16  C   UNL     1       0.671  14.637  21.854  0.00  0.00    +0.000 C 
ATOM     17  N   UNL     1       1.106  13.295  21.452  0.00  0.00    +0.000 NA
ATOM     18  H   UNL     1       1.850  13.007  22.093  0.00  0.00    +0.000 HD
ENDBRANCH   7  12
BRANCH  10  19
ATOM     19  C   UNL     1       2.504   5.234  18.972  0.00  0.00    +0.000 A 
ATOM     20  C   UNL     1       1.696   4.173  18.508  0.00  0.00    +0.000 A 
ATOM     21  C   UNL     1       2.227   2.903  18.283  0.00  0.00    +0.000 A 
ATOM     22  C   UNL     1       3.579   2.689  18.521  0.00  0.00    +0.000 A 
ATOM     23  C   UNL     1       4.381   3.723  18.990  0.00  0.00    +0.000 A 
ATOM     24  C   UNL     1       3.862   4.991  19.222  0.00  0.00    +0.000 A 
BRANCH  22  25
ATOM     25  O   UNL     1       4.165   1.476  18.285  0.00  0.00    +0.000 OA
ATOM     26  H   UNL     1       3.930   0.881  19.020  0.00  0.00    +0.000 HD
ENDBRANCH  22  25
BRANCH  23  27
ATOM     27  O   UNL     1       5.715   3.502  19.204  0.00  0.00    +0.000 OA
ATOM     28  H   UNL     1       5.905   2.683  18.701  0.00  0.00    +0.000 HD
ENDBRANCH  23  27
ENDBRANCH  10  19
BRANCH   6  29
ATOM     29  O   UNL     1      -0.180  10.143  23.435  0.00  0.00    +0.000 OA
ATOM     30  H   UNL     1      -1.016  10.625  23.322  0.00  0.00    +0.000 HD
ENDBRANCH   6  29
BRANCH   8  31
ATOM     31  O   UNL     1       1.424  11.640  19.180  0.00  0.00    +0.000 OA
ATOM     32  H   UNL     1       2.175  12.143  19.562  0.00  0.00    +0.000 HD
ENDBRANCH   8  31
BRANCH  11  33
ATOM     33  O   UNL     1       3.124   7.293  17.027  0.00  0.00    +0.000 OA
ATOM     34  H   UNL     1       3.201   6.319  17.010  0.00  0.00    +0.000 HD
ENDBRANCH  11  33
TORSDOF 7
ENDMDL
MODEL 3
REMARK VINA RESULT:      -7.4      2.466      8.506
REMARK  Name = 
REMARK  7 active torsions:
REMARK  status: ('A' for Active; 'I' for Inactive)
REMARK    1  A    between atoms: C_6  and  O_7
REMARK    2  A    between atoms: C_8  and  C_9
REMARK    3  A    between atoms: C_15  and  O_16
REMARK    4  A    between atoms: C_18  and  C_19
REMARK    5  A    between atoms: C_22  and  O_23
REMARK    6  A    between atoms: C_24  and  O_25
REMARK    7  A    between atoms: C_27  and  O_28
REMARK                            x       y       z     vdW  Elec       q    Type
REMARK                         _______ _______ _______ _____ _____    ______ ____
ROOT
ATOM      1  O   UNL     1       1.931  11.213  18.076  0.00  0.00    +0.000 OA
ATOM      2  C   UNL     1       1.232  10.663  18.922  0.00  0.00    +0.000 C 
ATOM      3  C   UNL     1       1.467   9.290  19.408  0.00  0.00    +0.000 A 
ATOM      4  C   UNL     1       1.045   8.987  20.707  0.00  0.00    +0.000 A 
ATOM      5  C   UNL     1       1.259   7.708  21.223  0.00  0.00    +0.000 A 
ATOM      6  C   UNL     1       1.941   6.755  20.462  0.00  0.00    +0.000 A 
ATOM      7  C   UNL     1       2.387   7.034  19.159  0.00  0.00    +0.000 A 
ATOM      8  C   UNL     1       2.088   8.307  18.629  0.00  0.00    +0.000 A 
ATOM      9  O   UNL     1       0.388   9.862  21.535  0.00  0.00    +0.000 OA
ATOM     10  C   UNL     1       0.474  11.245  21.136  0.00  0.00    +0.000 C 
ATOM     11  C   UNL     1       0.137  11.415  19.650  0.00  0.00    +0.000 C 
ENDROOT
BRANCH   7  12
ATOM     12  C   UNL     1       3.159   5.993  18.357  0.00  0.00    +0.000 C 
ATOM     13  C   UNL     1       2.253   4.821  17.919  0.00  0.00    +0.000 C 
ATOM     14  C   UNL     1       3.043   3.741  17.181  0.00  0.00    +0.000 C 
ATOM     15  C   UNL     1       4.289   3.338  17.964  0.00  0.00    +0.000 C 
ATOM     16  C   UNL     1       5.106   4.559  18.370  0.00  0.00    +0.000 C 
ATOM     17  N   UNL     1       4.295   5.492  19.161  0.00  0.00    +0.000 NA
ATOM     18  H   UNL     1       4.885   6.297  19.386  0.00  0.00    +0.000 HD
ENDBRANCH   7  12
BRANCH  10  19
ATOM     19  C   UNL     1      -0.450  12.098  21.995  0.00  0.00    +0.000 A 
ATOM     20  C   UNL     1      -0.184  13.478  22.129  0.00  0.00    +0.000 A 
ATOM     21  C   UNL     1      -1.067  14.324  22.802  0.00  0.00    +0.000 A 
ATOM     22  C   UNL     1      -2.228  13.788  23.344  0.00  0.00    +0.000 A 
ATOM     23  C   UNL     1      -2.493  12.428  23.229  0.00  0.00    +0.000 A 
ATOM     24  C   UNL     1      -1.620  11.575  22.565  0.00  0.00    +0.000 A 
BRANCH  22  25
ATOM     25  O   UNL     1      -3.149  14.571  23.983  0.00  0.00    +0.000 OA
ATOM     26  H   UNL     1      -3.029  14.454  24.942  0.00  0.00    +0.000 HD
ENDBRANCH  22  25
BRANCH  23  27
ATOM     27  O   UNL     1      -3.650  11.916  23.754  0.00  0.00    +0.000 OA
ATOM     28  H   UNL     1      -4.359  12.336  23.222  0.00  0.00    +0.000 HD
ENDBRANCH  23  27
ENDBRANCH  10  19
BRANCH   6  29
ATOM     29  O   UNL     1       2.167   5.513  20.991  0.00  0.00    +0.000 OA
ATOM     30  H   UNL     1       1.368   4.969  20.894  0.00  0.00    +0.000 HD
ENDBRANCH   6  29
BRANCH   8  31
ATOM     31  O   UNL     1       2.343   8.567  17.308  0.00  0.00    +0.000 OA
ATOM     32  H   UNL     1       2.861   7.816  16.946  0.00  0.00    +0.000 HD
ENDBRANCH   8  31
BRANCH  11  33
ATOM     33  O   UNL     1       0.134  12.787  19.240  0.00  0.00    +0.000 OA
ATOM     34  H   UNL     1      -0.090  12.792  18.288  0.00  0.00    +0.000 HD
ENDBRANCH  11  33
TORSDOF 7
ENDMDL
MODEL 4
REMARK VINA RESULT:      -7.4      1.201      1.713
REMARK  Name = 
REMARK  7 active torsions:
REMARK  status: ('A' for Active; 'I' for Inactive)
REMARK    1  A    between atoms: C_6  and  O_7
REMARK    2  A    between atoms: C_8  and  C_9
REMARK    3  A    between atoms: C_15  and  O_16
REMARK    4  A    between atoms: C_18  and  C_19
REMARK    5  A    between atoms: C_22  and  O_23
REMARK    6  A    between atoms: C_24  and  O_25
REMARK    7  A    between atoms: C_27  and  O_28
REMARK                            x       y       z     vdW  Elec       q    Type
REMARK                         _______ _______ _______ _____ _____    ______ ____
ROOT
ATOM      1  O   UNL     1       1.461   9.104  17.286  0.00  0.00    +0.000 OA
ATOM      2  C   UNL     1       1.839   8.777  18.407  0.00  0.00    +0.000 C 
ATOM      3  C   UNL     1       1.270   9.326  19.653  0.00  0.00    +0.000 A 
ATOM      4  C   UNL     1       1.317   8.517  20.793  0.00  0.00    +0.000 A 
ATOM      5  C   UNL     1       0.777   8.980  21.993  0.00  0.00    +0.000 A 
ATOM      6  C   UNL     1       0.146  10.226  22.038  0.00  0.00    +0.000 A 
ATOM      7  C   UNL     1       0.073  11.056  20.906  0.00  0.00    +0.000 A 
ATOM      8  C   UNL     1       0.696  10.600  19.725  0.00  0.00    +0.000 A 
ATOM      9  O   UNL     1       1.896   7.273  20.839  0.00  0.00    +0.000 OA
ATOM     10  C   UNL     1       2.138   6.675  19.550  0.00  0.00    +0.000 C 
ATOM     11  C   UNL     1       2.840   7.658  18.606  0.00  0.00    +0.000 C 
ENDROOT
BRANCH   7  12
ATOM     12  C   UNL     1      -0.649  12.397  20.966  0.00  0.00    +0.000 C 
ATOM     13  C   UNL     1       0.142  13.437  21.790  0.00  0.00    +0.000 C 
ATOM     14  C   UNL     1      -0.619  14.757  21.913  0.00  0.00    +0.000 C 
ATOM     15  C   UNL     1      -2.055  14.525  22.372  0.00  0.00    +0.000 C 
ATOM     16  C   UNL     1      -2.746  13.470  21.516  0.00  0.00    +0.000 C 
ATOM     17  N   UNL     1      -2.000  12.206  21.539  0.00  0.00    +0.000 NA
ATOM     18  H   UNL     1      -2.495  11.545  20.935  0.00  0.00    +0.000 HD
ENDBRANCH   7  12
BRANCH  10  19
ATOM     19  C   UNL     1       2.961   5.403  19.707  0.00  0.00    +0.000 A 
ATOM     20  C   UNL     1       2.353   4.254  20.259  0.00  0.00    +0.000 A 
ATOM     21  C   UNL     1       3.025   3.033  20.309  0.00  0.00    +0.000 A 
ATOM     22  C   UNL     1       4.316   2.955  19.802  0.00  0.00    +0.000 A 
ATOM     23  C   UNL     1       4.928   4.084  19.268  0.00  0.00    +0.000 A 
ATOM     24  C   UNL     1       4.271   5.306  19.216  0.00  0.00    +0.000 A 
BRANCH  22  25
ATOM     25  O   UNL     1       5.013   1.779  19.790  0.00  0.00    +0.000 OA
ATOM     26  H   UNL     1       4.435   1.091  19.414  0.00  0.00    +0.000 HD
ENDBRANCH  22  25
BRANCH  23  27
ATOM     27  O   UNL     1       6.196   3.989  18.756  0.00  0.00    +0.000 OA
ATOM     28  H   UNL     1       6.059   3.950  17.786  0.00  0.00    +0.000 HD
ENDBRANCH  23  27
ENDBRANCH  10  19
BRANCH   6  29
ATOM     29  O   UNL     1      -0.402  10.656  23.215  0.00  0.00    +0.000 OA
ATOM     30  H   UNL     1      -1.290  10.275  23.318  0.00  0.00    +0.000 HD
ENDBRANCH   6  29
BRANCH   8  31
ATOM     31  O   UNL     1       0.807  11.444  18.651  0.00  0.00    +0.000 OA
ATOM     32  H   UNL     1       1.579  12.030  18.804  0.00  0.00    +0.000 HD
ENDBRANCH   8  31
BRANCH  11  33
ATOM     33  O   UNL     1       3.167   7.069  17.343  0.00  0.00    +0.000 OA
ATOM     34  H   UNL     1       2.515   6.357  17.190  0.00  0.00    +0.000 HD
ENDBRANCH  11  33
TORSDOF 7
ENDMDL
MODEL 5
REMARK VINA RESULT:      -7.3      2.599      8.716
REMARK  Name = 
REMARK  7 active torsions:
REMARK  status: ('A' for Active; 'I' for Inactive)
REMARK    1  A    between atoms: C_6  and  O_7
REMARK    2  A    between atoms: C_8  and  C_9
REMARK    3  A    between atoms: C_15  and  O_16
REMARK    4  A    between atoms: C_18  and  C_19
REMARK    5  A    between atoms: C_22  and  O_23
REMARK    6  A    between atoms: C_24  and  O_25
REMARK    7  A    between atoms: C_27  and  O_28
REMARK                            x       y       z     vdW  Elec       q    Type
REMARK                         _______ _______ _______ _____ _____    ______ ____
ROOT
ATOM      1  O   UNL     1       1.481  11.753  18.391  0.00  0.00    +0.000 OA
ATOM      2  C   UNL     1       0.787  11.151  19.204  0.00  0.00    +0.000 C 
ATOM      3  C   UNL     1       1.078   9.782  19.670  0.00  0.00    +0.000 A 
ATOM      4  C   UNL     1       0.634   9.430  20.949  0.00  0.00    +0.000 A 
ATOM      5  C   UNL     1       0.899   8.153  21.446  0.00  0.00    +0.000 A 
ATOM      6  C   UNL     1       1.649   7.252  20.687  0.00  0.00    +0.000 A 
ATOM      7  C   UNL     1       2.119   7.581  19.405  0.00  0.00    +0.000 A 
ATOM      8  C   UNL     1       1.770   8.848  18.891  0.00  0.00    +0.000 A 
ATOM      9  O   UNL     1      -0.090  10.253  21.774  0.00  0.00    +0.000 OA
ATOM     10  C   UNL     1      -0.063  11.647  21.406  0.00  0.00    +0.000 C 
ATOM     11  C   UNL     1      -0.365  11.831  19.914  0.00  0.00    +0.000 C 
ENDROOT
BRANCH   7  12
ATOM     12  C   UNL     1       2.965   6.597  18.606  0.00  0.00    +0.000 C 
ATOM     13  C   UNL     1       2.130   5.398  18.105  0.00  0.00    +0.000 C 
ATOM     14  C   UNL     1       2.994   4.374  17.369  0.00  0.00    +0.000 C 
ATOM     15  C   UNL     1       4.228   4.006  18.188  0.00  0.00    +0.000 C 
ATOM     16  C   UNL     1       4.974   5.251  18.654  0.00  0.00    +0.000 C 
ATOM     17  N   UNL     1       4.094   6.126  19.438  0.00  0.00    +0.000 NA
ATOM     18  H   UNL     1       4.637   6.950  19.706  0.00  0.00    +0.000 HD
ENDBRANCH   7  12
BRANCH  10  19
ATOM     19  C   UNL     1      -1.054  12.434  22.253  0.00  0.00    +0.000 A 
ATOM     20  C   UNL     1      -2.330  11.886  22.507  0.00  0.00    +0.000 A 
ATOM     21  C   UNL     1      -3.226  12.509  23.376  0.00  0.00    +0.000 A 
ATOM     22  C   UNL     1      -2.844  13.688  24.002  0.00  0.00    +0.000 A 
ATOM     23  C   UNL     1      -1.594  14.243  23.750  0.00  0.00    +0.000 A 
ATOM     24  C   UNL     1      -0.696  13.635  22.883  0.00  0.00    +0.000 A 
BRANCH  22  25
ATOM     25  O   UNL     1      -3.663  14.326  24.892  0.00  0.00    +0.000 OA
ATOM     26  H   UNL     1      -4.541  13.907  24.846  0.00  0.00    +0.000 HD
ENDBRANCH  22  25
BRANCH  23  27
ATOM     27  O   UNL     1      -1.225  15.398  24.387  0.00  0.00    +0.000 OA
ATOM     28  H   UNL     1      -0.629  15.843  23.748  0.00  0.00    +0.000 HD
ENDBRANCH  23  27
ENDBRANCH  10  19
BRANCH   6  29
ATOM     29  O   UNL     1       1.923   6.012  21.198  0.00  0.00    +0.000 OA
ATOM     30  H   UNL     1       1.203   5.401  20.971  0.00  0.00    +0.000 HD
ENDBRANCH   6  29
BRANCH   8  31
ATOM     31  O   UNL     1       2.050   9.148  17.583  0.00  0.00    +0.000 OA
ATOM     32  H   UNL     1       2.915   9.611  17.557  0.00  0.00    +0.000 HD
ENDBRANCH   8  31
BRANCH  11  33
ATOM     33  O   UNL     1      -0.426  13.209  19.531  0.00  0.00    +0.000 OA
ATOM     34  H   UNL     1      -0.806  13.232  18.630  0.00  0.00    +0.000 HD
ENDBRANCH  11  33
TORSDOF 7
ENDMDL
MODEL 6
REMARK VINA RESULT:      -7.2      1.346      1.777
REMARK  Name = 
REMARK  7 active torsions:
REMARK  status: ('A' for Active; 'I' for Inactive)
REMARK    1  A    between atoms: C_6  and  O_7
REMARK    2  A    between atoms: C_8  and  C_9
REMARK    3  A    between atoms: C_15  and  O_16
REMARK    4  A    between atoms: C_18  and  C_19
REMARK    5  A    between atoms: C_22  and  O_23
REMARK    6  A    between atoms: C_24  and  O_25
REMARK    7  A    between atoms: C_27  and  O_28
REMARK                            x       y       z     vdW  Elec       q    Type
REMARK                         _______ _______ _______ _____ _____    ______ ____
ROOT
ATOM      1  O   UNL     1       0.784  10.241  17.703  0.00  0.00    +0.000 OA
ATOM      2  C   UNL     1       1.321   9.594  18.596  0.00  0.00    +0.000 C 
ATOM      3  C   UNL     1       0.931   9.682  20.017  0.00  0.00    +0.000 A 
ATOM      4  C   UNL     1       1.149   8.554  20.815  0.00  0.00    +0.000 A 
ATOM      5  C   UNL     1       0.781   8.577  22.160  0.00  0.00    +0.000 A 
ATOM      6  C   UNL     1       0.150   9.705  22.691  0.00  0.00    +0.000 A 
ATOM      7  C   UNL     1      -0.093  10.848  21.911  0.00  0.00    +0.000 A 
ATOM      8  C   UNL     1       0.360  10.831  20.575  0.00  0.00    +0.000 A 
ATOM      9  O   UNL     1       1.742   7.396  20.378  0.00  0.00    +0.000 OA
ATOM     10  C   UNL     1       1.803   7.256  18.944  0.00  0.00    +0.000 C 
ATOM     11  C   UNL     1       2.352   8.528  18.287  0.00  0.00    +0.000 C 
ENDROOT
BRANCH   7  12
ATOM     12  C   UNL     1      -0.814  12.057  22.497  0.00  0.00    +0.000 C 
ATOM     13  C   UNL     1      -2.221  12.236  21.886  0.00  0.00    +0.000 C 
ATOM     14  C   UNL     1      -2.913  13.491  22.418  0.00  0.00    +0.000 C 
ATOM     15  C   UNL     1      -2.001  14.709  22.311  0.00  0.00    +0.000 C 
ATOM     16  C   UNL     1      -0.632  14.431  22.921  0.00  0.00    +0.000 C 
ATOM     17  N   UNL     1       0.000  13.272  22.279  0.00  0.00    +0.000 NA
ATOM     18  H   UNL     1       0.901  13.119  22.738  0.00  0.00    +0.000 HD
ENDBRANCH   7  12
BRANCH  10  19
ATOM     19  C   UNL     1       2.654   6.050  18.569  0.00  0.00    +0.000 A 
ATOM     20  C   UNL     1       2.048   4.961  17.906  0.00  0.00    +0.000 A 
ATOM     21  C   UNL     1       2.805   3.889  17.432  0.00  0.00    +0.000 A 
ATOM     22  C   UNL     1       4.181   3.905  17.619  0.00  0.00    +0.000 A 
ATOM     23  C   UNL     1       4.786   4.967  18.283  0.00  0.00    +0.000 A 
ATOM     24  C   UNL     1       4.043   6.037  18.763  0.00  0.00    +0.000 A 
BRANCH  22  25
ATOM     25  O   UNL     1       4.981   2.902  17.147  0.00  0.00    +0.000 OA
ATOM     26  H   UNL     1       5.119   3.051  16.194  0.00  0.00    +0.000 HD
ENDBRANCH  22  25
BRANCH  23  27
ATOM     27  O   UNL     1       6.147   4.977  18.446  0.00  0.00    +0.000 OA
ATOM     28  H   UNL     1       6.468   5.561  17.727  0.00  0.00    +0.000 HD
ENDBRANCH  23  27
ENDBRANCH  10  19
BRANCH   6  29
ATOM     29  O   UNL     1      -0.229   9.704  24.006  0.00  0.00    +0.000 OA
ATOM     30  H   UNL     1      -0.111  10.594  24.378  0.00  0.00    +0.000 HD
ENDBRANCH   6  29
BRANCH   8  31
ATOM     31  O   UNL     1       0.307  11.979  19.828  0.00  0.00    +0.000 OA
ATOM     32  H   UNL     1      -0.611  12.322  19.863  0.00  0.00    +0.000 HD
ENDBRANCH   8  31
BRANCH  11  33
ATOM     33  O   UNL     1       2.502   8.394  16.870  0.00  0.00    +0.000 OA
ATOM     34  H   UNL     1       1.713   7.913  16.550  0.00  0.00    +0.000 HD
ENDBRANCH  11  33
TORSDOF 7
ENDMDL
MODEL 7
REMARK VINA RESULT:      -7.0      0.983      1.251
REMARK  Name = 
REMARK  7 active torsions:
REMARK  status: ('A' for Active; 'I' for Inactive)
REMARK    1  A    between atoms: C_6  and  O_7
REMARK    2  A    between atoms: C_8  and  C_9
REMARK    3  A    between atoms: C_15  and  O_16
REMARK    4  A    between atoms: C_18  and  C_19
REMARK    5  A    between atoms: C_22  and  O_23
REMARK    6  A    between atoms: C_24  and  O_25
REMARK    7  A    between atoms: C_27  and  O_28
REMARK                            x       y       z     vdW  Elec       q    Type
REMARK                         _______ _______ _______ _____ _____    ______ ____
ROOT
ATOM      1  O   UNL     1       1.449   9.522  17.417  0.00  0.00    +0.000 OA
ATOM      2  C   UNL     1       1.744   8.981  18.478  0.00  0.00    +0.000 C 
ATOM      3  C   UNL     1       1.080   9.284  19.761  0.00  0.00    +0.000 A 
ATOM      4  C   UNL     1       1.046   8.270  20.723  0.00  0.00    +0.000 A 
ATOM      5  C   UNL     1       0.415   8.497  21.946  0.00  0.00    +0.000 A 
ATOM      6  C   UNL     1      -0.225   9.717  22.184  0.00  0.00    +0.000 A 
ATOM      7  C   UNL     1      -0.218  10.750  21.232  0.00  0.00    +0.000 A 
ATOM      8  C   UNL     1       0.495  10.526  20.035  0.00  0.00    +0.000 A 
ATOM      9  O   UNL     1       1.627   7.035  20.572  0.00  0.00    +0.000 OA
ATOM     10  C   UNL     1       1.968   6.695  19.213  0.00  0.00    +0.000 C 
ATOM     11  C   UNL     1       2.734   7.836  18.532  0.00  0.00    +0.000 C 
ENDROOT
BRANCH   7  12
ATOM     12  C   UNL     1      -0.950  12.060  21.495  0.00  0.00    +0.000 C 
ATOM     13  C   UNL     1      -0.084  13.046  22.311  0.00  0.00    +0.000 C 
ATOM     14  C   UNL     1      -0.847  14.330  22.640  0.00  0.00    +0.000 C 
ATOM     15  C   UNL     1      -2.214  14.019  23.241  0.00  0.00    +0.000 C 
ATOM     16  C   UNL     1      -2.984  13.025  22.380  0.00  0.00    +0.000 C 
ATOM     17  N   UNL     1      -2.220  11.784  22.203  0.00  0.00    +0.000 NA
ATOM     18  H   UNL     1      -2.772  11.165  21.603  0.00  0.00    +0.000 HD
ENDBRANCH   7  12
BRANCH  10  19
ATOM     19  C   UNL     1       2.784   5.410  19.182  0.00  0.00    +0.000 A 
ATOM     20  C   UNL     1       4.158   5.459  19.506  0.00  0.00    +0.000 A 
ATOM     21  C   UNL     1       4.919   4.295  19.612  0.00  0.00    +0.000 A 
ATOM     22  C   UNL     1       4.304   3.068  19.397  0.00  0.00    +0.000 A 
ATOM     23  C   UNL     1       2.955   3.009  19.065  0.00  0.00    +0.000 A 
ATOM     24  C   UNL     1       2.188   4.161  18.952  0.00  0.00    +0.000 A 
BRANCH  22  25
ATOM     25  O   UNL     1       4.988   1.891  19.522  0.00  0.00    +0.000 OA
ATOM     26  H   UNL     1       5.576   1.802  18.750  0.00  0.00    +0.000 HD
ENDBRANCH  22  25
BRANCH  23  27
ATOM     27  O   UNL     1       2.358   1.792  18.871  0.00  0.00    +0.000 OA
ATOM     28  H   UNL     1       2.841   1.191  19.476  0.00  0.00    +0.000 HD
ENDBRANCH  23  27
ENDBRANCH  10  19
BRANCH   6  29
ATOM     29  O   UNL     1      -0.863   9.916  23.378  0.00  0.00    +0.000 OA
ATOM     30  H   UNL     1      -0.348   9.505  24.093  0.00  0.00    +0.000 HD
ENDBRANCH   6  29
BRANCH   8  31
ATOM     31  O   UNL     1       0.682  11.560  19.155  0.00  0.00    +0.000 OA
ATOM     32  H   UNL     1       1.414  12.117  19.494  0.00  0.00    +0.000 HD
ENDBRANCH   8  31
BRANCH  11  33
ATOM     33  O   UNL     1       3.158   7.499  17.207  0.00  0.00    +0.000 OA
ATOM     34  H   UNL     1       2.380   7.119  16.752  0.00  0.00    +0.000 HD
ENDBRANCH  11  33
TORSDOF 7
ENDMDL
MODEL 8
REMARK VINA RESULT:      -6.9      1.011      1.591
REMARK  Name = 
REMARK  7 active torsions:
REMARK  status: ('A' for Active; 'I' for Inactive)
REMARK    1  A    between atoms: C_6  and  O_7
REMARK    2  A    between atoms: C_8  and  C_9
REMARK    3  A    between atoms: C_15  and  O_16
REMARK    4  A    between atoms: C_18  and  C_19
REMARK    5  A    between atoms: C_22  and  O_23
REMARK    6  A    between atoms: C_24  and  O_25
REMARK    7  A    between atoms: C_27  and  O_28
REMARK                            x       y       z     vdW  Elec       q    Type
REMARK                         _______ _______ _______ _____ _____    ______ ____
ROOT
ATOM      1  O   UNL     1       2.193   8.928  17.440  0.00  0.00    +0.000 OA
ATOM      2  C   UNL     1       2.244   8.251  18.462  0.00  0.00    +0.000 C 
ATOM      3  C   UNL     1       1.513   8.584  19.700  0.00  0.00    +0.000 A 
ATOM      4  C   UNL     1       1.160   7.525  20.543  0.00  0.00    +0.000 A 
ATOM      5  C   UNL     1       0.452   7.782  21.717  0.00  0.00    +0.000 A 
ATOM      6  C   UNL     1       0.055   9.087  22.020  0.00  0.00    +0.000 A 
ATOM      7  C   UNL     1       0.384  10.169  21.187  0.00  0.00    +0.000 A 
ATOM      8  C   UNL     1       1.170   9.895  20.047  0.00  0.00    +0.000 A 
ATOM      9  O   UNL     1       1.487   6.211  20.319  0.00  0.00    +0.000 OA
ATOM     10  C   UNL     1       1.906   5.918  18.971  0.00  0.00    +0.000 C 
ATOM     11  C   UNL     1       2.964   6.918  18.489  0.00  0.00    +0.000 C 
ENDROOT
BRANCH   7  12
ATOM     12  C   UNL     1      -0.087  11.581  21.515  0.00  0.00    +0.000 C 
ATOM     13  C   UNL     1      -0.956  11.611  22.792  0.00  0.00    +0.000 C 
ATOM     14  C   UNL     1      -1.492  13.014  23.078  0.00  0.00    +0.000 C 
ATOM     15  C   UNL     1      -2.143  13.618  21.837  0.00  0.00    +0.000 C 
ATOM     16  C   UNL     1      -1.222  13.523  20.627  0.00  0.00    +0.000 C 
ATOM     17  N   UNL     1      -0.841  12.130  20.367  0.00  0.00    +0.000 NA
ATOM     18  H   UNL     1      -0.210  12.128  19.562  0.00  0.00    +0.000 HD
ENDBRANCH   7  12
BRANCH  10  19
ATOM     19  C   UNL     1       2.438   4.493  18.883  0.00  0.00    +0.000 A 
ATOM     20  C   UNL     1       1.858   3.599  17.957  0.00  0.00    +0.000 A 
ATOM     21  C   UNL     1       2.389   2.325  17.751  0.00  0.00    +0.000 A 
ATOM     22  C   UNL     1       3.510   1.940  18.475  0.00  0.00    +0.000 A 
ATOM     23  C   UNL     1       4.081   2.809  19.398  0.00  0.00    +0.000 A 
ATOM     24  C   UNL     1       3.559   4.077  19.615  0.00  0.00    +0.000 A 
BRANCH  22  25
ATOM     25  O   UNL     1       4.097   0.719  18.292  0.00  0.00    +0.000 OA
ATOM     26  H   UNL     1       4.100   0.526  17.337  0.00  0.00    +0.000 HD
ENDBRANCH  22  25
BRANCH  23  27
ATOM     27  O   UNL     1       5.196   2.421  20.093  0.00  0.00    +0.000 OA
ATOM     28  H   UNL     1       5.781   2.035  19.408  0.00  0.00    +0.000 HD
ENDBRANCH  23  27
ENDBRANCH  10  19
BRANCH   6  29
ATOM     29  O   UNL     1      -0.662   9.320  23.162  0.00  0.00    +0.000 OA
ATOM     30  H   UNL     1      -0.871   8.474  23.592  0.00  0.00    +0.000 HD
ENDBRANCH   6  29
BRANCH   8  31
ATOM     31  O   UNL     1       1.666  10.934  19.302  0.00  0.00    +0.000 OA
ATOM     32  H   UNL     1       0.911  11.492  19.021  0.00  0.00    +0.000 HD
ENDBRANCH   8  31
BRANCH  11  33
ATOM     33  O   UNL     1       3.460   6.608  17.183  0.00  0.00    +0.000 OA
ATOM     34  H   UNL     1       3.881   5.727  17.246  0.00  0.00    +0.000 HD
ENDBRANCH  11  33
TORSDOF 7
ENDMDL
MODEL 9
REMARK VINA RESULT:      -6.9      2.450      8.919
REMARK  Name = 
REMARK  7 active torsions:
REMARK  status: ('A' for Active; 'I' for Inactive)
REMARK    1  A    between atoms: C_6  and  O_7
REMARK    2  A    between atoms: C_8  and  C_9
REMARK    3  A    between atoms: C_15  and  O_16
REMARK    4  A    between atoms: C_18  and  C_19
REMARK    5  A    between atoms: C_22  and  O_23
REMARK    6  A    between atoms: C_24  and  O_25
REMARK    7  A    between atoms: C_27  and  O_28
REMARK                            x       y       z     vdW  Elec       q    Type
REMARK                         _______ _______ _______ _____ _____    ______ ____
ROOT
ATOM      1  O   UNL     1      -0.245   8.148  22.188  0.00  0.00    +0.000 OA
ATOM      2  C   UNL     1       0.269   9.049  21.532  0.00  0.00    +0.000 C 
ATOM      3  C   UNL     1       1.057   8.819  20.306  0.00  0.00    +0.000 A 
ATOM      4  C   UNL     1       1.082   9.846  19.356  0.00  0.00    +0.000 A 
ATOM      5  C   UNL     1       1.797   9.673  18.170  0.00  0.00    +0.000 A 
ATOM      6  C   UNL     1       2.439   8.459  17.914  0.00  0.00    +0.000 A 
ATOM      7  C   UNL     1       2.422   7.406  18.844  0.00  0.00    +0.000 A 
ATOM      8  C   UNL     1       1.761   7.633  20.069  0.00  0.00    +0.000 A 
ATOM      9  O   UNL     1       0.465  11.062  19.510  0.00  0.00    +0.000 OA
ATOM     10  C   UNL     1      -0.529  11.104  20.553  0.00  0.00    +0.000 C 
ATOM     11  C   UNL     1       0.012  10.506  21.858  0.00  0.00    +0.000 C 
ENDROOT
BRANCH   7  12
ATOM     12  C   UNL     1       3.099   6.077  18.532  0.00  0.00    +0.000 C 
ATOM     13  C   UNL     1       2.069   4.949  18.305  0.00  0.00    +0.000 C 
ATOM     14  C   UNL     1       2.749   3.600  18.069  0.00  0.00    +0.000 C 
ATOM     15  C   UNL     1       3.795   3.316  19.143  0.00  0.00    +0.000 C 
ATOM     16  C   UNL     1       4.751   4.491  19.310  0.00  0.00    +0.000 C 
ATOM     17  N   UNL     1       4.018   5.720  19.635  0.00  0.00    +0.000 NA
ATOM     18  H   UNL     1       4.703   6.475  19.715  0.00  0.00    +0.000 HD
ENDBRANCH   7  12
BRANCH  10  19
ATOM     19  C   UNL     1      -0.998  12.535  20.775  0.00  0.00    +0.000 A 
ATOM     20  C   UNL     1      -0.045  13.535  21.064  0.00  0.00    +0.000 A 
ATOM     21  C   UNL     1      -0.408  14.879  21.154  0.00  0.00    +0.000 A 
ATOM     22  C   UNL     1      -1.737  15.230  20.949  0.00  0.00    +0.000 A 
ATOM     23  C   UNL     1      -2.686  14.252  20.677  0.00  0.00    +0.000 A 
ATOM     24  C   UNL     1      -2.337  12.910  20.590  0.00  0.00    +0.000 A 
BRANCH  22  25
ATOM     25  O   UNL     1      -2.148  16.533  20.988  0.00  0.00    +0.000 OA
ATOM     26  H   UNL     1      -2.751  16.681  20.237  0.00  0.00    +0.000 HD
ENDBRANCH  22  25
BRANCH  23  27
ATOM     27  O   UNL     1      -3.990  14.614  20.461  0.00  0.00    +0.000 OA
ATOM     28  H   UNL     1      -4.248  15.077  21.286  0.00  0.00    +0.000 HD
ENDBRANCH  23  27
ENDBRANCH  10  19
BRANCH   6  29
ATOM     29  O   UNL     1       3.114   8.295  16.735  0.00  0.00    +0.000 OA
ATOM     30  H   UNL     1       2.710   8.853  16.049  0.00  0.00    +0.000 HD
ENDBRANCH   6  29
BRANCH   8  31
ATOM     31  O   UNL     1       1.866   6.708  21.076  0.00  0.00    +0.000 OA
ATOM     32  H   UNL     1       0.973   6.337  21.240  0.00  0.00    +0.000 HD
ENDBRANCH   8  31
BRANCH  11  33
ATOM     33  O   UNL     1      -0.922  10.605  22.938  0.00  0.00    +0.000 OA
ATOM     34  H   UNL     1      -1.757  10.206  22.621  0.00  0.00    +0.000 HD
ENDBRANCH  11  33
TORSDOF 7
ENDMDL
