MODEL 1
REMARK VINA RESULT:      -8.7      0.000      0.000
REMARK  Name = 
REMARK  8 active torsions:
REMARK  status: ('A' for Active; 'I' for Inactive)
REMARK    1  A    between atoms: C_1  and  C_2
REMARK    2  A    between atoms: C_2  and  C_3
REMARK    3  A    between atoms: C_8  and  N_9
REMARK    4  A    between atoms: N_12  and  C_13
REMARK    5  A    between atoms: C_13  and  C_14
REMARK    6  A    between atoms: C_22  and  C_23
REMARK    7  A    between atoms: C_22  and  C_24
REMARK    8  A    between atoms: C_29  and  C_30
REMARK                            x       y       z     vdW  Elec       q    Type
REMARK                         _______ _______ _______ _____ _____    ______ ____
ROOT
ATOM      1  C   UNL     1       2.183   6.652  20.088  0.00  0.00    +0.000 A 
ATOM      2  C   UNL     1       1.394   7.420  20.970  0.00  0.00    +0.000 A 
ATOM      3  C   UNL     1       0.844   8.645  20.596  0.00  0.00    +0.000 A 
ATOM      4  C   UNL     1       1.073   9.151  19.308  0.00  0.00    +0.000 A 
ATOM      5  C   UNL     1       1.831   8.348  18.423  0.00  0.00    +0.000 A 
ATOM      6  C   UNL     1       2.385   7.089  18.756  0.00  0.00    +0.000 A 
ATOM      7  C   UNL     1       0.560  10.536  18.855  0.00  0.00    +0.000 C 
ATOM      8  C   UNL     1       1.770  11.432  18.508  0.00  0.00    +0.000 C 
ATOM      9  C   UNL     1      -0.355  10.375  17.623  0.00  0.00    +0.000 C 
ATOM     10  C   UNL     1      -0.225  11.187  19.969  0.00  0.00    +0.000 A 
ATOM     11  N   UNL     1      -0.837  12.419  19.913  0.00  0.00    +0.000 N 
ATOM     12  C   UNL     1      -1.443  12.698  21.119  0.00  0.00    +0.000 A 
ATOM     13  C   UNL     1      -2.169  13.824  21.531  0.00  0.00    +0.000 A 
ATOM     14  C   UNL     1      -2.671  13.834  22.844  0.00  0.00    +0.000 A 
ATOM     15  C   UNL     1      -2.447  12.755  23.706  0.00  0.00    +0.000 A 
ATOM     16  C   UNL     1      -1.726  11.644  23.278  0.00  0.00    +0.000 A 
ATOM     17  C   UNL     1      -1.213  11.611  21.963  0.00  0.00    +0.000 A 
ATOM     18  C   UNL     1      -0.454  10.668  21.225  0.00  0.00    +0.000 A 
ATOM     19  C   UNL     1       0.054   9.376  21.628  0.00  0.00    +0.000 C 
ATOM     20  O   UNL     1      -0.135   8.899  22.738  0.00  0.00    +0.000 OA
ATOM     21  H   UNL     1      -0.835  13.038  19.115  0.00  0.00    +0.000 HD
ENDROOT
BRANCH   6  22
ATOM     22  N   UNL     1       3.076   6.379  17.785  0.00  0.00    +0.000 N 
ATOM     23  C   UNL     1       4.210   6.952  17.021  0.00  0.00    +0.000 C 
ATOM     24  C   UNL     1       5.490   6.067  17.120  0.00  0.00    +0.000 C 
ATOM     25  N   UNL     1       5.298   4.603  16.912  0.00  0.00    +0.000 NA
ATOM     26  C   UNL     1       4.214   4.192  17.827  0.00  0.00    +0.000 C 
ATOM     27  C   UNL     1       2.895   4.940  17.575  0.00  0.00    +0.000 C 
BRANCH  25  28
ATOM     28  C   UNL     1       4.981   4.315  15.500  0.00  0.00    +0.000 C 
BRANCH  28  29
ATOM     29  C   UNL     1       6.198   4.069  14.573  0.00  0.00    +0.000 C 
ATOM     30  C   UNL     1       7.068   5.324  14.409  0.00  0.00    +0.000 C 
ATOM     31  C   UNL     1       8.056   5.205  13.251  0.00  0.00    +0.000 C 
ATOM     32  O   UNL     1       7.418   4.759  12.056  0.00  0.00    +0.000 OA
ATOM     33  C   UNL     1       6.841   3.467  12.217  0.00  0.00    +0.000 C 
ATOM     34  C   UNL     1       5.705   3.540  13.219  0.00  0.00    +0.000 C 
ENDBRANCH  28  29
ENDBRANCH  25  28
ENDBRANCH   6  22
BRANCH   1  36
ATOM     35  C   UNL     1       1.710   4.319  20.886  0.00  0.00    +0.000 C 
ATOM     36  C   UNL     1       2.775   5.406  20.713  0.00  0.00    +0.000 C 
ENDBRANCH   1  36
BRANCH  14  37
ATOM     37  C   UNL     1      -3.420  14.965  23.302  0.00  0.00    +0.000 C 
ATOM     38  N   UNL     1      -4.028  15.879  23.679  0.00  0.00    +0.000 NA
ENDBRANCH  14  37
TORSDOF 5
ENDMDL
MODEL 2
REMARK VINA RESULT:      -8.4      3.104     11.838
REMARK  Name = 
REMARK  8 active torsions:
REMARK  status: ('A' for Active; 'I' for Inactive)
REMARK    1  A    between atoms: C_1  and  C_2
REMARK    2  A    between atoms: C_2  and  C_3
REMARK    3  A    between atoms: C_8  and  N_9
REMARK    4  A    between atoms: N_12  and  C_13
REMARK    5  A    between atoms: C_13  and  C_14
REMARK    6  A    between atoms: C_22  and  C_23
REMARK    7  A    between atoms: C_22  and  C_24
REMARK    8  A    between atoms: C_29  and  C_30
REMARK                            x       y       z     vdW  Elec       q    Type
REMARK                         _______ _______ _______ _____ _____    ______ ____
ROOT
ATOM      1  C   UNL     1       0.705  12.696  19.100  0.00  0.00    +0.000 A 
ATOM      2  C   UNL     1       1.221  11.511  18.533  0.00  0.00    +0.000 A 
ATOM      3  C   UNL     1       1.234  10.302  19.227  0.00  0.00    +0.000 A 
ATOM      4  C   UNL     1       0.727  10.240  20.533  0.00  0.00    +0.000 A 
ATOM      5  C   UNL     1       0.175  11.426  21.070  0.00  0.00    +0.000 A 
ATOM      6  C   UNL     1       0.121  12.667  20.390  0.00  0.00    +0.000 A 
ATOM      7  C   UNL     1       0.782   8.953  21.385  0.00  0.00    +0.000 C 
ATOM      8  C   UNL     1       1.650   9.215  22.636  0.00  0.00    +0.000 C 
ATOM      9  C   UNL     1      -0.645   8.543  21.803  0.00  0.00    +0.000 C 
ATOM     10  C   UNL     1       1.403   7.829  20.588  0.00  0.00    +0.000 A 
ATOM     11  N   UNL     1       1.600   6.539  21.028  0.00  0.00    +0.000 N 
ATOM     12  C   UNL     1       2.209   5.795  20.041  0.00  0.00    +0.000 A 
ATOM     13  C   UNL     1       2.610   4.452  20.034  0.00  0.00    +0.000 A 
ATOM     14  C   UNL     1       3.223   3.958  18.870  0.00  0.00    +0.000 A 
ATOM     15  C   UNL     1       3.426   4.785  17.761  0.00  0.00    +0.000 A 
ATOM     16  C   UNL     1       3.019   6.116  17.784  0.00  0.00    +0.000 A 
ATOM     17  C   UNL     1       2.399   6.634  18.943  0.00  0.00    +0.000 A 
ATOM     18  C   UNL     1       1.882   7.905  19.298  0.00  0.00    +0.000 A 
ATOM     19  C   UNL     1       1.834   9.128  18.530  0.00  0.00    +0.000 C 
ATOM     20  O   UNL     1       2.257   9.217  17.386  0.00  0.00    +0.000 OA
ATOM     21  H   UNL     1       1.351   6.188  21.941  0.00  0.00    +0.000 HD
ENDROOT
BRANCH   6  22
ATOM     22  N   UNL     1      -0.484  13.750  21.011  0.00  0.00    +0.000 N 
ATOM     23  C   UNL     1      -1.827  14.250  20.631  0.00  0.00    +0.000 C 
ATOM     24  C   UNL     1      -2.795  14.317  21.852  0.00  0.00    +0.000 C 
ATOM     25  N   UNL     1      -2.247  14.932  23.095  0.00  0.00    +0.000 NA
ATOM     26  C   UNL     1      -0.975  14.239  23.377  0.00  0.00    +0.000 C 
ATOM     27  C   UNL     1       0.045  14.359  22.233  0.00  0.00    +0.000 C 
BRANCH  25  28
ATOM     28  C   UNL     1      -2.069  16.387  22.920  0.00  0.00    +0.000 C 
BRANCH  28  29
ATOM     29  C   UNL     1      -3.174  17.281  23.535  0.00  0.00    +0.000 C 
ATOM     30  C   UNL     1      -3.946  16.565  24.654  0.00  0.00    +0.000 C 
ATOM     31  C   UNL     1      -5.238  17.287  25.029  0.00  0.00    +0.000 C 
ATOM     32  O   UNL     1      -6.016  17.610  23.878  0.00  0.00    +0.000 OA
ATOM     33  C   UNL     1      -5.317  18.484  22.998  0.00  0.00    +0.000 C 
ATOM     34  C   UNL     1      -4.112  17.766  22.420  0.00  0.00    +0.000 C 
ENDBRANCH  28  29
ENDBRANCH  25  28
ENDBRANCH   6  22
BRANCH   1  36
ATOM     35  C   UNL     1       2.125  14.713  18.637  0.00  0.00    +0.000 C 
ATOM     36  C   UNL     1       0.876  13.923  18.231  0.00  0.00    +0.000 C 
ENDBRANCH   1  36
BRANCH  14  37
ATOM     37  C   UNL     1       3.644   2.590  18.822  0.00  0.00    +0.000 C 
ATOM     38  N   UNL     1       3.991   1.483  18.783  0.00  0.00    +0.000 NA
ENDBRANCH  14  37
TORSDOF 5
ENDMDL
MODEL 3
REMARK VINA RESULT:      -8.3      3.169     11.763
REMARK  Name = 
REMARK  8 active torsions:
REMARK  status: ('A' for Active; 'I' for Inactive)
REMARK    1  A    between atoms: C_1  and  C_2
REMARK    2  A    between atoms: C_2  and  C_3
REMARK    3  A    between atoms: C_8  and  N_9
REMARK    4  A    between atoms: N_12  and  C_13
REMARK    5  A    between atoms: C_13  and  C_14
REMARK    6  A    between atoms: C_22  and  C_23
REMARK    7  A    between atoms: C_22  and  C_24
REMARK    8  A    between atoms: C_29  and  C_30
REMARK                            x       y       z     vdW  Elec       q    Type
REMARK                         _______ _______ _______ _____ _____    ______ ____
ROOT
ATOM      1  C   UNL     1       0.784  12.721  19.322  0.00  0.00    +0.000 A 
ATOM      2  C   UNL     1       1.257  11.546  18.702  0.00  0.00    +0.000 A 
ATOM      3  C   UNL     1       1.270  10.316  19.358  0.00  0.00    +0.000 A 
ATOM      4  C   UNL     1       0.807  10.222  20.678  0.00  0.00    +0.000 A 
ATOM      5  C   UNL     1       0.297  11.401  21.271  0.00  0.00    +0.000 A 
ATOM      6  C   UNL     1       0.244  12.663  20.630  0.00  0.00    +0.000 A 
ATOM      7  C   UNL     1       0.867   8.909  21.489  0.00  0.00    +0.000 C 
ATOM      8  C   UNL     1       1.782   9.115  22.716  0.00  0.00    +0.000 C 
ATOM      9  C   UNL     1      -0.553   8.512  21.943  0.00  0.00    +0.000 C 
ATOM     10  C   UNL     1       1.437   7.799  20.636  0.00  0.00    +0.000 A 
ATOM     11  N   UNL     1       1.625   6.493  21.029  0.00  0.00    +0.000 N 
ATOM     12  C   UNL     1       2.184   5.768  20.000  0.00  0.00    +0.000 A 
ATOM     13  C   UNL     1       2.558   4.419  19.938  0.00  0.00    +0.000 A 
ATOM     14  C   UNL     1       3.121   3.950  18.738  0.00  0.00    +0.000 A 
ATOM     15  C   UNL     1       3.302   4.808  17.648  0.00  0.00    +0.000 A 
ATOM     16  C   UNL     1       2.922   6.144  17.727  0.00  0.00    +0.000 A 
ATOM     17  C   UNL     1       2.353   6.637  18.921  0.00  0.00    +0.000 A 
ATOM     18  C   UNL     1       1.873   7.906  19.333  0.00  0.00    +0.000 A 
ATOM     19  C   UNL     1       1.822   9.153  18.605  0.00  0.00    +0.000 C 
ATOM     20  O   UNL     1       2.207   9.270  17.450  0.00  0.00    +0.000 OA
ATOM     21  H   UNL     1       1.400   6.118  21.940  0.00  0.00    +0.000 HD
ENDROOT
BRANCH   6  22
ATOM     22  N   UNL     1      -0.318  13.737  21.305  0.00  0.00    +0.000 N 
ATOM     23  C   UNL     1       0.494  14.798  21.950  0.00  0.00    +0.000 C 
ATOM     24  C   UNL     1       0.098  16.222  21.452  0.00  0.00    +0.000 C 
ATOM     25  N   UNL     1      -1.363  16.521  21.402  0.00  0.00    +0.000 NA
ATOM     26  C   UNL     1      -1.986  15.425  20.634  0.00  0.00    +0.000 C 
ATOM     27  C   UNL     1      -1.750  14.041  21.260  0.00  0.00    +0.000 C 
BRANCH  25  28
ATOM     28  C   UNL     1      -1.916  16.640  22.765  0.00  0.00    +0.000 C 
BRANCH  28  29
ATOM     29  C   UNL     1      -3.451  16.830  22.856  0.00  0.00    +0.000 C 
ATOM     30  C   UNL     1      -3.835  18.240  23.330  0.00  0.00    +0.000 C 
ATOM     31  C   UNL     1      -5.299  18.338  23.750  0.00  0.00    +0.000 C 
ATOM     32  O   UNL     1      -5.665  17.286  24.642  0.00  0.00    +0.000 OA
ATOM     33  C   UNL     1      -5.512  16.006  24.038  0.00  0.00    +0.000 C 
ATOM     34  C   UNL     1      -4.043  15.745  23.765  0.00  0.00    +0.000 C 
ENDBRANCH  28  29
ENDBRANCH  25  28
ENDBRANCH   6  22
BRANCH   1  36
ATOM     35  C   UNL     1       2.377  14.517  18.590  0.00  0.00    +0.000 C 
ATOM     36  C   UNL     1       0.949  13.972  18.486  0.00  0.00    +0.000 C 
ENDBRANCH   1  36
BRANCH  14  37
ATOM     37  C   UNL     1       3.514   2.577  18.634  0.00  0.00    +0.000 C 
ATOM     38  N   UNL     1       3.828   1.463  18.547  0.00  0.00    +0.000 NA
ENDBRANCH  14  37
TORSDOF 5
ENDMDL
MODEL 4
REMARK VINA RESULT:      -8.2      3.194     11.590
REMARK  Name = 
REMARK  8 active torsions:
REMARK  status: ('A' for Active; 'I' for Inactive)
REMARK    1  A    between atoms: C_1  and  C_2
REMARK    2  A    between atoms: C_2  and  C_3
REMARK    3  A    between atoms: C_8  and  N_9
REMARK    4  A    between atoms: N_12  and  C_13
REMARK    5  A    between atoms: C_13  and  C_14
REMARK    6  A    between atoms: C_22  and  C_23
REMARK    7  A    between atoms: C_22  and  C_24
REMARK    8  A    between atoms: C_29  and  C_30
REMARK                            x       y       z     vdW  Elec       q    Type
REMARK                         _______ _______ _______ _____ _____    ______ ____
ROOT
ATOM      1  C   UNL     1       0.826  12.693  19.301  0.00  0.00    +0.000 A 
ATOM      2  C   UNL     1       1.306  11.518  18.684  0.00  0.00    +0.000 A 
ATOM      3  C   UNL     1       1.301  10.285  19.334  0.00  0.00    +0.000 A 
ATOM      4  C   UNL     1       0.811  10.187  20.645  0.00  0.00    +0.000 A 
ATOM      5  C   UNL     1       0.295  11.366  21.232  0.00  0.00    +0.000 A 
ATOM      6  C   UNL     1       0.260  12.631  20.597  0.00  0.00    +0.000 A 
ATOM      7  C   UNL     1       0.849   8.869  21.450  0.00  0.00    +0.000 C 
ATOM      8  C   UNL     1       1.741   9.066  22.696  0.00  0.00    +0.000 C 
ATOM      9  C   UNL     1      -0.581   8.477  21.874  0.00  0.00    +0.000 C 
ATOM     10  C   UNL     1       1.432   7.762  20.603  0.00  0.00    +0.000 A 
ATOM     11  N   UNL     1       1.606   6.452  20.994  0.00  0.00    +0.000 N 
ATOM     12  C   UNL     1       2.183   5.730  19.972  0.00  0.00    +0.000 A 
ATOM     13  C   UNL     1       2.552   4.379  19.911  0.00  0.00    +0.000 A 
ATOM     14  C   UNL     1       3.137   3.914  18.720  0.00  0.00    +0.000 A 
ATOM     15  C   UNL     1       3.343   4.776  17.638  0.00  0.00    +0.000 A 
ATOM     16  C   UNL     1       2.967   6.114  17.716  0.00  0.00    +0.000 A 
ATOM     17  C   UNL     1       2.377   6.604  18.901  0.00  0.00    +0.000 A 
ATOM     18  C   UNL     1       1.894   7.872  19.310  0.00  0.00    +0.000 A 
ATOM     19  C   UNL     1       1.863   9.123  18.587  0.00  0.00    +0.000 C 
ATOM     20  O   UNL     1       2.272   9.244  17.440  0.00  0.00    +0.000 OA
ATOM     21  H   UNL     1       1.362   6.074  21.898  0.00  0.00    +0.000 HD
ENDROOT
BRANCH   6  22
ATOM     22  N   UNL     1      -0.310  13.704  21.266  0.00  0.00    +0.000 N 
ATOM     23  C   UNL     1       0.473  14.631  22.117  0.00  0.00    +0.000 C 
ATOM     24  C   UNL     1       0.286  16.119  21.688  0.00  0.00    +0.000 C 
ATOM     25  N   UNL     1      -1.115  16.563  21.438  0.00  0.00    +0.000 NA
ATOM     26  C   UNL     1      -1.697  15.590  20.491  0.00  0.00    +0.000 C 
ATOM     27  C   UNL     1      -1.685  14.149  21.025  0.00  0.00    +0.000 C 
BRANCH  25  28
ATOM     28  C   UNL     1      -1.871  16.638  22.703  0.00  0.00    +0.000 C 
BRANCH  28  29
ATOM     29  C   UNL     1      -1.029  16.914  23.975  0.00  0.00    +0.000 C 
ATOM     30  C   UNL     1      -1.311  15.898  25.092  0.00  0.00    +0.000 C 
ATOM     31  C   UNL     1      -0.763  16.346  26.443  0.00  0.00    +0.000 C 
ATOM     32  O   UNL     1      -1.139  17.687  26.748  0.00  0.00    +0.000 OA
ATOM     33  C   UNL     1      -0.628  18.608  25.790  0.00  0.00    +0.000 C 
ATOM     34  C   UNL     1      -1.278  18.355  24.444  0.00  0.00    +0.000 C 
ENDBRANCH  28  29
ENDBRANCH  25  28
ENDBRANCH   6  22
BRANCH   1  36
ATOM     35  C   UNL     1       2.499  14.286  18.320  0.00  0.00    +0.000 C 
ATOM     36  C   UNL     1       1.013  13.947  18.474  0.00  0.00    +0.000 C 
ENDBRANCH   1  36
BRANCH  14  37
ATOM     37  C   UNL     1       3.525   2.540  18.617  0.00  0.00    +0.000 C 
ATOM     38  N   UNL     1       3.840   1.425  18.539  0.00  0.00    +0.000 NA
ENDBRANCH  14  37
TORSDOF 5
ENDMDL
MODEL 5
REMARK VINA RESULT:      -8.1      2.798     11.829
REMARK  Name = 
REMARK  8 active torsions:
REMARK  status: ('A' for Active; 'I' for Inactive)
REMARK    1  A    between atoms: C_1  and  C_2
REMARK    2  A    between atoms: C_2  and  C_3
REMARK    3  A    between atoms: C_8  and  N_9
REMARK    4  A    between atoms: N_12  and  C_13
REMARK    5  A    between atoms: C_13  and  C_14
REMARK    6  A    between atoms: C_22  and  C_23
REMARK    7  A    between atoms: C_22  and  C_24
REMARK    8  A    between atoms: C_29  and  C_30
REMARK                            x       y       z     vdW  Elec       q    Type
REMARK                         _______ _______ _______ _____ _____    ______ ____
ROOT
ATOM      1  C   UNL     1      -0.386  13.012  19.969  0.00  0.00    +0.000 A 
ATOM      2  C   UNL     1       0.401  12.180  19.145  0.00  0.00    +0.000 A 
ATOM      3  C   UNL     1       0.731  10.876  19.510  0.00  0.00    +0.000 A 
ATOM      4  C   UNL     1       0.280  10.356  20.732  0.00  0.00    +0.000 A 
ATOM      5  C   UNL     1      -0.543  11.189  21.526  0.00  0.00    +0.000 A 
ATOM      6  C   UNL     1      -0.921  12.509  21.180  0.00  0.00    +0.000 A 
ATOM      7  C   UNL     1       0.673   8.949  21.233  0.00  0.00    +0.000 C 
ATOM      8  C   UNL     1       1.470   9.087  22.549  0.00  0.00    +0.000 C 
ATOM      9  C   UNL     1      -0.597   8.104  21.465  0.00  0.00    +0.000 C 
ATOM     10  C   UNL     1       1.542   8.258  20.207  0.00  0.00    +0.000 A 
ATOM     11  N   UNL     1       2.066   6.989  20.315  0.00  0.00    +0.000 N 
ATOM     12  C   UNL     1       2.825   6.698  19.202  0.00  0.00    +0.000 A 
ATOM     13  C   UNL     1       3.551   5.545  18.874  0.00  0.00    +0.000 A 
ATOM     14  C   UNL     1       4.247   5.535  17.653  0.00  0.00    +0.000 A 
ATOM     15  C   UNL     1       4.215   6.643  16.801  0.00  0.00    +0.000 A 
ATOM     16  C   UNL     1       3.486   7.779  17.141  0.00  0.00    +0.000 A 
ATOM     17  C   UNL     1       2.777   7.811  18.362  0.00  0.00    +0.000 A 
ATOM     18  C   UNL     1       1.963   8.779  19.003  0.00  0.00    +0.000 A 
ATOM     19  C   UNL     1       1.594  10.107  18.568  0.00  0.00    +0.000 C 
ATOM     20  O   UNL     1       1.960  10.589  17.505  0.00  0.00    +0.000 OA
ATOM     21  H   UNL     1       1.930   6.364  21.097  0.00  0.00    +0.000 HD
ENDROOT
BRANCH   6  22
ATOM     22  N   UNL     1      -1.767  13.211  22.026  0.00  0.00    +0.000 N 
ATOM     23  C   UNL     1      -1.280  13.983  23.194  0.00  0.00    +0.000 C 
ATOM     24  C   UNL     1      -1.760  15.466  23.158  0.00  0.00    +0.000 C 
ATOM     25  N   UNL     1      -3.202  15.686  22.843  0.00  0.00    +0.000 NA
ATOM     26  C   UNL     1      -3.475  14.938  21.600  0.00  0.00    +0.000 C 
ATOM     27  C   UNL     1      -3.183  13.434  21.724  0.00  0.00    +0.000 C 
BRANCH  25  28
ATOM     28  C   UNL     1      -4.052  15.243  23.965  0.00  0.00    +0.000 C 
BRANCH  28  29
ATOM     29  C   UNL     1      -5.376  14.542  23.571  0.00  0.00    +0.000 C 
ATOM     30  C   UNL     1      -6.604  15.424  23.840  0.00  0.00    +0.000 C 
ATOM     31  C   UNL     1      -7.913  14.641  23.785  0.00  0.00    +0.000 C 
ATOM     32  O   UNL     1      -7.849  13.451  24.569  0.00  0.00    +0.000 OA
ATOM     33  C   UNL     1      -6.838  12.565  24.100  0.00  0.00    +0.000 C 
ATOM     34  C   UNL     1      -5.474  13.196  24.304  0.00  0.00    +0.000 C 
ENDBRANCH  28  29
ENDBRANCH  25  28
ENDBRANCH   6  22
BRANCH   1  36
ATOM     35  C   UNL     1       0.793  14.982  18.953  0.00  0.00    +0.000 C 
ATOM     36  C   UNL     1      -0.546  14.425  19.448  0.00  0.00    +0.000 C 
ENDBRANCH   1  36
BRANCH  14  37
ATOM     37  C   UNL     1       4.998   4.374  17.281  0.00  0.00    +0.000 C 
ATOM     38  N   UNL     1       5.604   3.433  16.975  0.00  0.00    +0.000 NA
ENDBRANCH  14  37
TORSDOF 5
ENDMDL
MODEL 6
REMARK VINA RESULT:      -8.1      3.099     11.786
REMARK  Name = 
REMARK  8 active torsions:
REMARK  status: ('A' for Active; 'I' for Inactive)
REMARK    1  A    between atoms: C_1  and  C_2
REMARK    2  A    between atoms: C_2  and  C_3
REMARK    3  A    between atoms: C_8  and  N_9
REMARK    4  A    between atoms: N_12  and  C_13
REMARK    5  A    between atoms: C_13  and  C_14
REMARK    6  A    between atoms: C_22  and  C_23
REMARK    7  A    between atoms: C_22  and  C_24
REMARK    8  A    between atoms: C_29  and  C_30
REMARK                            x       y       z     vdW  Elec       q    Type
REMARK                         _______ _______ _______ _____ _____    ______ ____
ROOT
ATOM      1  C   UNL     1       0.685  12.725  19.274  0.00  0.00    +0.000 A 
ATOM      2  C   UNL     1       1.199  11.559  18.667  0.00  0.00    +0.000 A 
ATOM      3  C   UNL     1       1.227  10.332  19.326  0.00  0.00    +0.000 A 
ATOM      4  C   UNL     1       0.737  10.230  20.637  0.00  0.00    +0.000 A 
ATOM      5  C   UNL     1       0.186  11.398  21.214  0.00  0.00    +0.000 A 
ATOM      6  C   UNL     1       0.117  12.657  20.570  0.00  0.00    +0.000 A 
ATOM      7  C   UNL     1       0.809   8.920  21.452  0.00  0.00    +0.000 C 
ATOM      8  C   UNL     1       1.692   9.151  22.699  0.00  0.00    +0.000 C 
ATOM      9  C   UNL     1      -0.611   8.491  21.876  0.00  0.00    +0.000 C 
ATOM     10  C   UNL     1       1.425   7.822  20.615  0.00  0.00    +0.000 A 
ATOM     11  N   UNL     1       1.634   6.521  21.016  0.00  0.00    +0.000 N 
ATOM     12  C   UNL     1       2.233   5.808  20.001  0.00  0.00    +0.000 A 
ATOM     13  C   UNL     1       2.640   4.467  19.952  0.00  0.00    +0.000 A 
ATOM     14  C   UNL     1       3.240   4.010  18.766  0.00  0.00    +0.000 A 
ATOM     15  C   UNL     1       3.425   4.869  17.678  0.00  0.00    +0.000 A 
ATOM     16  C   UNL     1       3.012   6.196  17.744  0.00  0.00    +0.000 A 
ATOM     17  C   UNL     1       2.405   6.678  18.925  0.00  0.00    +0.000 A 
ATOM     18  C   UNL     1       1.887   7.936  19.322  0.00  0.00    +0.000 A 
ATOM     19  C   UNL     1       1.823   9.180  18.589  0.00  0.00    +0.000 C 
ATOM     20  O   UNL     1       2.230   9.303  17.443  0.00  0.00    +0.000 OA
ATOM     21  H   UNL     1       1.398   6.143  21.923  0.00  0.00    +0.000 HD
ENDROOT
BRANCH   6  22
ATOM     22  N   UNL     1      -0.484  13.719  21.229  0.00  0.00    +0.000 N 
ATOM     23  C   UNL     1      -1.628  13.547  22.157  0.00  0.00    +0.000 C 
ATOM     24  C   UNL     1      -1.344  14.172  23.557  0.00  0.00    +0.000 C 
ATOM     25  N   UNL     1      -0.759  15.544  23.562  0.00  0.00    +0.000 NA
ATOM     26  C   UNL     1       0.423  15.495  22.678  0.00  0.00    +0.000 C 
ATOM     27  C   UNL     1       0.084  15.069  21.241  0.00  0.00    +0.000 C 
BRANCH  25  28
ATOM     28  C   UNL     1      -1.756  16.535  23.114  0.00  0.00    +0.000 C 
BRANCH  28  29
ATOM     29  C   UNL     1      -3.171  16.395  23.732  0.00  0.00    +0.000 C 
ATOM     30  C   UNL     1      -4.275  16.396  22.663  0.00  0.00    +0.000 C 
ATOM     31  C   UNL     1      -5.665  16.603  23.258  0.00  0.00    +0.000 C 
ATOM     32  O   UNL     1      -5.698  17.713  24.152  0.00  0.00    +0.000 OA
ATOM     33  C   UNL     1      -4.820  17.526  25.257  0.00  0.00    +0.000 C 
ATOM     34  C   UNL     1      -3.384  17.506  24.768  0.00  0.00    +0.000 C 
ENDBRANCH  28  29
ENDBRANCH  25  28
ENDBRANCH   6  22
BRANCH   1  36
ATOM     35  C   UNL     1       2.316  14.357  18.285  0.00  0.00    +0.000 C 
ATOM     36  C   UNL     1       0.839  13.977  18.438  0.00  0.00    +0.000 C 
ENDBRANCH   1  36
BRANCH  14  37
ATOM     37  C   UNL     1       3.667   2.646  18.674  0.00  0.00    +0.000 C 
ATOM     38  N   UNL     1       4.014   1.540  18.606  0.00  0.00    +0.000 NA
ENDBRANCH  14  37
TORSDOF 5
ENDMDL
MODEL 7
REMARK VINA RESULT:      -8.0      3.093     11.565
REMARK  Name = 
REMARK  8 active torsions:
REMARK  status: ('A' for Active; 'I' for Inactive)
REMARK    1  A    between atoms: C_1  and  C_2
REMARK    2  A    between atoms: C_2  and  C_3
REMARK    3  A    between atoms: C_8  and  N_9
REMARK    4  A    between atoms: N_12  and  C_13
REMARK    5  A    between atoms: C_13  and  C_14
REMARK    6  A    between atoms: C_22  and  C_23
REMARK    7  A    between atoms: C_22  and  C_24
REMARK    8  A    between atoms: C_29  and  C_30
REMARK                            x       y       z     vdW  Elec       q    Type
REMARK                         _______ _______ _______ _____ _____    ______ ____
ROOT
ATOM      1  C   UNL     1       0.591  12.745  19.175  0.00  0.00    +0.000 A 
ATOM      2  C   UNL     1       1.127  11.576  18.596  0.00  0.00    +0.000 A 
ATOM      3  C   UNL     1       1.166  10.361  19.279  0.00  0.00    +0.000 A 
ATOM      4  C   UNL     1       0.664  10.277  20.586  0.00  0.00    +0.000 A 
ATOM      5  C   UNL     1       0.092  11.448  21.136  0.00  0.00    +0.000 A 
ATOM      6  C   UNL     1       0.012  12.694  20.467  0.00  0.00    +0.000 A 
ATOM      7  C   UNL     1       0.748   8.984  21.427  0.00  0.00    +0.000 C 
ATOM      8  C   UNL     1       1.615   9.251  22.677  0.00  0.00    +0.000 C 
ATOM      9  C   UNL     1      -0.670   8.544  21.846  0.00  0.00    +0.000 C 
ATOM     10  C   UNL     1       1.386   7.880  20.617  0.00  0.00    +0.000 A 
ATOM     11  N   UNL     1       1.609   6.590  21.044  0.00  0.00    +0.000 N 
ATOM     12  C   UNL     1       2.228   5.865  20.049  0.00  0.00    +0.000 A 
ATOM     13  C   UNL     1       2.654   4.530  20.029  0.00  0.00    +0.000 A 
ATOM     14  C   UNL     1       3.272   4.059  18.857  0.00  0.00    +0.000 A 
ATOM     15  C   UNL     1       3.456   4.899  17.755  0.00  0.00    +0.000 A 
ATOM     16  C   UNL     1       3.023   6.222  17.792  0.00  0.00    +0.000 A 
ATOM     17  C   UNL     1       2.399   6.718  18.957  0.00  0.00    +0.000 A 
ATOM     18  C   UNL     1       1.859   7.975  19.326  0.00  0.00    +0.000 A 
ATOM     19  C   UNL     1       1.784   9.204  18.569  0.00  0.00    +0.000 C 
ATOM     20  O   UNL     1       2.201   9.312  17.424  0.00  0.00    +0.000 OA
ATOM     21  H   UNL     1       1.370   6.226  21.956  0.00  0.00    +0.000 HD
ENDROOT
BRANCH   6  22
ATOM     22  N   UNL     1      -0.610  13.759  21.100  0.00  0.00    +0.000 N 
ATOM     23  C   UNL     1      -2.035  14.106  20.881  0.00  0.00    +0.000 C 
ATOM     24  C   UNL     1      -2.834  14.173  22.218  0.00  0.00    +0.000 C 
ATOM     25  N   UNL     1      -2.192  14.925  23.335  0.00  0.00    +0.000 NA
ATOM     26  C   UNL     1      -0.830  14.373  23.478  0.00  0.00    +0.000 C 
ATOM     27  C   UNL     1       0.012  14.502  22.199  0.00  0.00    +0.000 C 
BRANCH  25  28
ATOM     28  C   UNL     1      -2.185  16.373  23.049  0.00  0.00    +0.000 C 
BRANCH  28  29
ATOM     29  C   UNL     1      -1.704  17.286  24.205  0.00  0.00    +0.000 C 
ATOM     30  C   UNL     1      -0.306  17.869  23.944  0.00  0.00    +0.000 C 
ATOM     31  C   UNL     1       0.318  18.478  25.195  0.00  0.00    +0.000 C 
ATOM     32  O   UNL     1       0.239  17.592  26.311  0.00  0.00    +0.000 OA
ATOM     33  C   UNL     1      -1.110  17.290  26.649  0.00  0.00    +0.000 C 
ATOM     34  C   UNL     1      -1.753  16.502  25.523  0.00  0.00    +0.000 C 
ENDBRANCH  28  29
ENDBRANCH  25  28
ENDBRANCH   6  22
BRANCH   1  36
ATOM     35  C   UNL     1       1.944  14.818  18.757  0.00  0.00    +0.000 C 
ATOM     36  C   UNL     1       0.736  13.983  18.317  0.00  0.00    +0.000 C 
ENDBRANCH   1  36
BRANCH  14  37
ATOM     37  C   UNL     1       3.719   2.700  18.796  0.00  0.00    +0.000 C 
ATOM     38  N   UNL     1       4.081   1.598  18.741  0.00  0.00    +0.000 NA
ENDBRANCH  14  37
TORSDOF 5
ENDMDL
MODEL 8
REMARK VINA RESULT:      -7.9      2.989     12.130
REMARK  Name = 
REMARK  8 active torsions:
REMARK  status: ('A' for Active; 'I' for Inactive)
REMARK    1  A    between atoms: C_1  and  C_2
REMARK    2  A    between atoms: C_2  and  C_3
REMARK    3  A    between atoms: C_8  and  N_9
REMARK    4  A    between atoms: N_12  and  C_13
REMARK    5  A    between atoms: C_13  and  C_14
REMARK    6  A    between atoms: C_22  and  C_23
REMARK    7  A    between atoms: C_22  and  C_24
REMARK    8  A    between atoms: C_29  and  C_30
REMARK                            x       y       z     vdW  Elec       q    Type
REMARK                         _______ _______ _______ _____ _____    ______ ____
ROOT
ATOM      1  C   UNL     1      -0.100  12.884  19.369  0.00  0.00    +0.000 A 
ATOM      2  C   UNL     1       0.601  11.834  18.739  0.00  0.00    +0.000 A 
ATOM      3  C   UNL     1       0.816  10.607  19.365  0.00  0.00    +0.000 A 
ATOM      4  C   UNL     1       0.333  10.390  20.664  0.00  0.00    +0.000 A 
ATOM      5  C   UNL     1      -0.403  11.438  21.264  0.00  0.00    +0.000 A 
ATOM      6  C   UNL     1      -0.664  12.688  20.654  0.00  0.00    +0.000 A 
ATOM      7  C   UNL     1       0.603   9.084  21.444  0.00  0.00    +0.000 C 
ATOM      8  C   UNL     1       1.423   9.415  22.710  0.00  0.00    +0.000 C 
ATOM      9  C   UNL     1      -0.735   8.423  21.833  0.00  0.00    +0.000 C 
ATOM     10  C   UNL     1       1.395   8.123  20.587  0.00  0.00    +0.000 A 
ATOM     11  N   UNL     1       1.804   6.861  20.955  0.00  0.00    +0.000 N 
ATOM     12  C   UNL     1       2.521   6.282  19.931  0.00  0.00    +0.000 A 
ATOM     13  C   UNL     1       3.137   5.025  19.851  0.00  0.00    +0.000 A 
ATOM     14  C   UNL     1       3.816   4.705  18.663  0.00  0.00    +0.000 A 
ATOM     15  C   UNL     1       3.875   5.614  17.602  0.00  0.00    +0.000 A 
ATOM     16  C   UNL     1       3.255   6.857  17.698  0.00  0.00    +0.000 A 
ATOM     17  C   UNL     1       2.565   7.201  18.882  0.00  0.00    +0.000 A 
ATOM     18  C   UNL     1       1.848   8.348  19.305  0.00  0.00    +0.000 A 
ATOM     19  C   UNL     1       1.596   9.587  18.606  0.00  0.00    +0.000 C 
ATOM     20  O   UNL     1       1.992   9.808  17.470  0.00  0.00    +0.000 OA
ATOM     21  H   UNL     1       1.621   6.423  21.847  0.00  0.00    +0.000 HD
ENDROOT
BRANCH   6  22
ATOM     22  N   UNL     1      -1.435  13.621  21.332  0.00  0.00    +0.000 N 
ATOM     23  C   UNL     1      -2.909  13.702  21.194  0.00  0.00    +0.000 C 
ATOM     24  C   UNL     1      -3.632  13.620  22.573  0.00  0.00    +0.000 C 
ATOM     25  N   UNL     1      -3.077  14.475  23.662  0.00  0.00    +0.000 NA
ATOM     26  C   UNL     1      -1.631  14.180  23.726  0.00  0.00    +0.000 C 
ATOM     27  C   UNL     1      -0.899  14.463  22.404  0.00  0.00    +0.000 C 
BRANCH  25  28
ATOM     28  C   UNL     1      -3.350  15.900  23.393  0.00  0.00    +0.000 C 
BRANCH  28  29
ATOM     29  C   UNL     1      -4.670  16.456  23.984  0.00  0.00    +0.000 C 
ATOM     30  C   UNL     1      -5.799  16.501  22.944  0.00  0.00    +0.000 C 
ATOM     31  C   UNL     1      -6.983  17.349  23.400  0.00  0.00    +0.000 C 
ATOM     32  O   UNL     1      -6.564  18.625  23.883  0.00  0.00    +0.000 OA
ATOM     33  C   UNL     1      -5.706  18.504  25.012  0.00  0.00    +0.000 C 
ATOM     34  C   UNL     1      -4.408  17.839  24.596  0.00  0.00    +0.000 C 
ENDBRANCH  28  29
ENDBRANCH  25  28
ENDBRANCH   6  22
BRANCH   1  36
ATOM     35  C   UNL     1       0.960  15.134  19.032  0.00  0.00    +0.000 C 
ATOM     36  C   UNL     1      -0.137  14.170  18.571  0.00  0.00    +0.000 C 
ENDBRANCH   1  36
BRANCH  14  37
ATOM     37  C   UNL     1       4.456   3.429  18.541  0.00  0.00    +0.000 C 
ATOM     38  N   UNL     1       4.979   2.398  18.441  0.00  0.00    +0.000 NA
ENDBRANCH  14  37
TORSDOF 5
ENDMDL
MODEL 9
REMARK VINA RESULT:      -7.8      3.060     11.577
REMARK  Name = 
REMARK  8 active torsions:
REMARK  status: ('A' for Active; 'I' for Inactive)
REMARK    1  A    between atoms: C_1  and  C_2
REMARK    2  A    between atoms: C_2  and  C_3
REMARK    3  A    between atoms: C_8  and  N_9
REMARK    4  A    between atoms: N_12  and  C_13
REMARK    5  A    between atoms: C_13  and  C_14
REMARK    6  A    between atoms: C_22  and  C_23
REMARK    7  A    between atoms: C_22  and  C_24
REMARK    8  A    between atoms: C_29  and  C_30
REMARK                            x       y       z     vdW  Elec       q    Type
REMARK                         _______ _______ _______ _____ _____    ______ ____
ROOT
ATOM      1  C   UNL     1       0.846  12.514  18.882  0.00  0.00    +0.000 A 
ATOM      2  C   UNL     1       1.403  11.323  18.369  0.00  0.00    +0.000 A 
ATOM      3  C   UNL     1       1.366  10.124  19.078  0.00  0.00    +0.000 A 
ATOM      4  C   UNL     1       0.767  10.077  20.345  0.00  0.00    +0.000 A 
ATOM      5  C   UNL     1       0.177  11.270  20.826  0.00  0.00    +0.000 A 
ATOM      6  C   UNL     1       0.171  12.501  20.127  0.00  0.00    +0.000 A 
ATOM      7  C   UNL     1       0.762   8.801  21.216  0.00  0.00    +0.000 C 
ATOM      8  C   UNL     1       1.537   9.080  22.522  0.00  0.00    +0.000 C 
ATOM      9  C   UNL     1      -0.692   8.395  21.535  0.00  0.00    +0.000 C 
ATOM     10  C   UNL     1       1.438   7.669  20.480  0.00  0.00    +0.000 A 
ATOM     11  N   UNL     1       1.605   6.385  20.949  0.00  0.00    +0.000 N 
ATOM     12  C   UNL     1       2.283   5.628  20.018  0.00  0.00    +0.000 A 
ATOM     13  C   UNL     1       2.684   4.286  20.058  0.00  0.00    +0.000 A 
ATOM     14  C   UNL     1       3.379   3.778  18.947  0.00  0.00    +0.000 A 
ATOM     15  C   UNL     1       3.661   4.591  17.844  0.00  0.00    +0.000 A 
ATOM     16  C   UNL     1       3.252   5.921  17.821  0.00  0.00    +0.000 A 
ATOM     17  C   UNL     1       2.551   6.453  18.926  0.00  0.00    +0.000 A 
ATOM     18  C   UNL     1       2.009   7.728  19.226  0.00  0.00    +0.000 A 
ATOM     19  C   UNL     1       2.015   8.941  18.441  0.00  0.00    +0.000 C 
ATOM     20  O   UNL     1       2.519   9.016  17.329  0.00  0.00    +0.000 OA
ATOM     21  H   UNL     1       1.291   6.045  21.847  0.00  0.00    +0.000 HD
ENDROOT
BRANCH   6  22
ATOM     22  N   UNL     1      -0.477  13.591  20.689  0.00  0.00    +0.000 N 
ATOM     23  C   UNL     1      -1.953  13.735  20.696  0.00  0.00    +0.000 C 
ATOM     24  C   UNL     1      -2.513  13.960  22.134  0.00  0.00    +0.000 C 
ATOM     25  N   UNL     1      -1.801  14.969  22.970  0.00  0.00    +0.000 NA
ATOM     26  C   UNL     1      -0.371  14.603  22.935  0.00  0.00    +0.000 C 
ATOM     27  C   UNL     1       0.213  14.585  21.514  0.00  0.00    +0.000 C 
BRANCH  25  28
ATOM     28  C   UNL     1      -2.046  16.332  22.460  0.00  0.00    +0.000 C 
BRANCH  28  29
ATOM     29  C   UNL     1      -3.487  16.618  21.968  0.00  0.00    +0.000 C 
ATOM     30  C   UNL     1      -3.515  17.611  20.795  0.00  0.00    +0.000 C 
ATOM     31  C   UNL     1      -4.912  18.161  20.527  0.00  0.00    +0.000 C 
ATOM     32  O   UNL     1      -5.534  18.631  21.722  0.00  0.00    +0.000 OA
ATOM     33  C   UNL     1      -5.698  17.586  22.675  0.00  0.00    +0.000 C 
ATOM     34  C   UNL     1      -4.337  17.110  23.147  0.00  0.00    +0.000 C 
ENDBRANCH  28  29
ENDBRANCH  25  28
ENDBRANCH   6  22
BRANCH   1  36
ATOM     35  C   UNL     1       2.357  14.466  18.427  0.00  0.00    +0.000 C 
ATOM     36  C   UNL     1       1.079  13.731  18.012  0.00  0.00    +0.000 C 
ENDBRANCH   1  36
BRANCH  14  37
ATOM     37  C   UNL     1       3.803   2.410  18.947  0.00  0.00    +0.000 C 
ATOM     38  N   UNL     1       4.152   1.303  18.947  0.00  0.00    +0.000 NA
ENDBRANCH  14  37
TORSDOF 5
ENDMDL
