MODEL 1
REMARK VINA RESULT:      -7.8      0.000      0.000
REMARK  Name = 
REMARK  8 active torsions:
REMARK  status: ('A' for Active; 'I' for Inactive)
REMARK    1  A    between atoms: C_1  and  C_2
REMARK    2  A    between atoms: C_2  and  C_3
REMARK    3  A    between atoms: C_2  and  C_5
REMARK    4  A    between atoms: C_5  and  N_6
REMARK    5  A    between atoms: C_9  and  N_10
REMARK    6  A    between atoms: N_10  and  C_11
REMARK    7  A    between atoms: N_10  and  C_21
REMARK    8  A    between atoms: C_14  and  C_15
REMARK                            x       y       z     vdW  Elec       q    Type
REMARK                         _______ _______ _______ _____ _____    ______ ____
ROOT
ATOM      1  N   UNL     1       2.969   6.016  19.191  0.00  0.00    +0.000 N 
ENDROOT
BRANCH   1   5
ATOM      2  N   UNL     1       5.429   5.182  16.396  0.00  0.00    +0.000 NA
ATOM      3  C   UNL     1       4.896   6.516  16.720  0.00  0.00    +0.000 C 
ATOM      4  C   UNL     1       5.113   6.921  18.175  0.00  0.00    +0.000 C 
ATOM      5  C   UNL     1       4.489   5.908  19.157  0.00  0.00    +0.000 C 
ATOM      6  C   UNL     1       5.170   4.575  18.811  0.00  0.00    +0.000 C 
ATOM      7  C   UNL     1       4.992   4.156  17.359  0.00  0.00    +0.000 C 
BRANCH   2   8
ATOM      8  C   UNL     1       4.974   4.757  15.046  0.00  0.00    +0.000 C 
BRANCH   8  10
ATOM      9  C   UNL     1       7.198   4.998  13.912  0.00  0.00    +0.000 C 
ATOM     10  C   UNL     1       6.001   4.069  14.117  0.00  0.00    +0.000 C 
ATOM     11  C   UNL     1       5.397   3.665  12.777  0.00  0.00    +0.000 C 
ATOM     12  F   UNL     1       6.484   2.945  14.724  0.00  0.00    +0.000 F 
ENDBRANCH   8  10
ENDBRANCH   2   8
ENDBRANCH   1   5
BRANCH   1  13
ATOM     13  C   UNL     1       2.346   7.289  19.146  0.00  0.00    +0.000 A 
ATOM     14  C   UNL     1       2.130   7.960  17.936  0.00  0.00    +0.000 A 
ATOM     15  C   UNL     1       1.497   9.208  17.875  0.00  0.00    +0.000 A 
ATOM     16  C   UNL     1       0.942   9.781  19.023  0.00  0.00    +0.000 A 
ATOM     17  C   UNL     1       1.099   9.107  20.238  0.00  0.00    +0.000 A 
ATOM     18  C   UNL     1       1.833   7.909  20.300  0.00  0.00    +0.000 A 
BRANCH  16  19
ATOM     19  C   UNL     1       0.133  11.053  18.929  0.00  0.00    +0.000 C 
ATOM     20  F   UNL     1      -0.478  11.398  20.095  0.00  0.00    +0.000 F 
ATOM     21  F   UNL     1       0.897  12.126  18.580  0.00  0.00    +0.000 F 
ATOM     22  F   UNL     1      -0.859  10.982  17.998  0.00  0.00    +0.000 F 
ENDBRANCH  16  19
ENDBRANCH   1  13
BRANCH   1  23
ATOM     23  C   UNL     1       2.237   4.780  19.099  0.00  0.00    +0.000 A 
ATOM     24  C   UNL     1       1.941   3.990  20.219  0.00  0.00    +0.000 A 
ATOM     25  C   UNL     1       1.275   2.757  20.110  0.00  0.00    +0.000 A 
ATOM     26  C   UNL     1       0.856   2.348  18.864  0.00  0.00    +0.000 A 
ATOM     27  N   UNL     1       1.052   3.078  17.754  0.00  0.00    +0.000 NA
ATOM     28  C   UNL     1       1.722   4.253  17.903  0.00  0.00    +0.000 A 
ENDBRANCH   1  23
TORSDOF 6
ENDMDL
MODEL 2
REMARK VINA RESULT:      -7.6      1.747      2.398
REMARK  Name = 
REMARK  8 active torsions:
REMARK  status: ('A' for Active; 'I' for Inactive)
REMARK    1  A    between atoms: C_1  and  C_2
REMARK    2  A    between atoms: C_2  and  C_3
REMARK    3  A    between atoms: C_2  and  C_5
REMARK    4  A    between atoms: C_5  and  N_6
REMARK    5  A    between atoms: C_9  and  N_10
REMARK    6  A    between atoms: N_10  and  C_11
REMARK    7  A    between atoms: N_10  and  C_21
REMARK    8  A    between atoms: C_14  and  C_15
REMARK                            x       y       z     vdW  Elec       q    Type
REMARK                         _______ _______ _______ _____ _____    ______ ____
ROOT
ATOM      1  N   UNL     1       4.330   5.722  18.228  0.00  0.00    +0.000 N 
ENDROOT
BRANCH   1   5
ATOM      2  N   UNL     1       6.305   4.638  15.148  0.00  0.00    +0.000 NA
ATOM      3  C   UNL     1       5.308   5.720  15.210  0.00  0.00    +0.000 C 
ATOM      4  C   UNL     1       5.601   6.758  16.289  0.00  0.00    +0.000 C 
ATOM      5  C   UNL     1       5.700   6.122  17.691  0.00  0.00    +0.000 C 
ATOM      6  C   UNL     1       6.822   5.080  17.558  0.00  0.00    +0.000 C 
ATOM      7  C   UNL     1       6.568   4.046  16.471  0.00  0.00    +0.000 C 
BRANCH   2   8
ATOM      8  C   UNL     1       5.833   3.550  14.252  0.00  0.00    +0.000 C 
BRANCH   8  10
ATOM      9  C   UNL     1       6.154   2.359  12.068  0.00  0.00    +0.000 C 
ATOM     10  C   UNL     1       6.021   3.732  12.728  0.00  0.00    +0.000 C 
ATOM     11  C   UNL     1       7.218   4.611  12.388  0.00  0.00    +0.000 C 
ATOM     12  F   UNL     1       4.903   4.309  12.196  0.00  0.00    +0.000 F 
ENDBRANCH   8  10
ENDBRANCH   2   8
ENDBRANCH   1   5
BRANCH   1  13
ATOM     13  C   UNL     1       3.346   6.713  18.471  0.00  0.00    +0.000 A 
ATOM     14  C   UNL     1       2.660   6.785  19.691  0.00  0.00    +0.000 A 
ATOM     15  C   UNL     1       1.701   7.771  19.953  0.00  0.00    +0.000 A 
ATOM     16  C   UNL     1       1.476   8.805  19.040  0.00  0.00    +0.000 A 
ATOM     17  C   UNL     1       2.185   8.786  17.834  0.00  0.00    +0.000 A 
ATOM     18  C   UNL     1       3.064   7.728  17.540  0.00  0.00    +0.000 A 
BRANCH  16  19
ATOM     19  C   UNL     1       0.550   9.946  19.389  0.00  0.00    +0.000 C 
ATOM     20  F   UNL     1       1.199  11.105  19.687  0.00  0.00    +0.000 F 
ATOM     21  F   UNL     1      -0.301  10.250  18.369  0.00  0.00    +0.000 F 
ATOM     22  F   UNL     1      -0.239   9.677  20.466  0.00  0.00    +0.000 F 
ENDBRANCH  16  19
ENDBRANCH   1  13
BRANCH   1  23
ATOM     23  C   UNL     1       4.060   4.310  18.303  0.00  0.00    +0.000 A 
ATOM     24  C   UNL     1       3.301   3.633  17.338  0.00  0.00    +0.000 A 
ATOM     25  C   UNL     1       2.996   2.265  17.452  0.00  0.00    +0.000 A 
ATOM     26  C   UNL     1       3.512   1.566  18.520  0.00  0.00    +0.000 A 
ATOM     27  N   UNL     1       4.295   2.135  19.452  0.00  0.00    +0.000 NA
ATOM     28  C   UNL     1       4.544   3.465  19.315  0.00  0.00    +0.000 A 
ENDBRANCH   1  23
TORSDOF 6
ENDMDL
MODEL 3
REMARK VINA RESULT:      -7.6      1.742      2.165
REMARK  Name = 
REMARK  8 active torsions:
REMARK  status: ('A' for Active; 'I' for Inactive)
REMARK    1  A    between atoms: C_1  and  C_2
REMARK    2  A    between atoms: C_2  and  C_3
REMARK    3  A    between atoms: C_2  and  C_5
REMARK    4  A    between atoms: C_5  and  N_6
REMARK    5  A    between atoms: C_9  and  N_10
REMARK    6  A    between atoms: N_10  and  C_11
REMARK    7  A    between atoms: N_10  and  C_21
REMARK    8  A    between atoms: C_14  and  C_15
REMARK                            x       y       z     vdW  Elec       q    Type
REMARK                         _______ _______ _______ _____ _____    ______ ____
ROOT
ATOM      1  N   UNL     1       4.413   5.713  18.199  0.00  0.00    +0.000 N 
ENDROOT
BRANCH   1   5
ATOM      2  N   UNL     1       6.221   4.567  15.040  0.00  0.00    +0.000 NA
ATOM      3  C   UNL     1       5.309   5.718  15.156  0.00  0.00    +0.000 C 
ATOM      4  C   UNL     1       5.707   6.703  16.251  0.00  0.00    +0.000 C 
ATOM      5  C   UNL     1       5.794   6.024  17.634  0.00  0.00    +0.000 C 
ATOM      6  C   UNL     1       6.831   4.906  17.444  0.00  0.00    +0.000 C 
ATOM      7  C   UNL     1       6.473   3.922  16.340  0.00  0.00    +0.000 C 
BRANCH   2   8
ATOM      8  C   UNL     1       5.646   3.541  14.130  0.00  0.00    +0.000 C 
BRANCH   8  10
ATOM      9  C   UNL     1       6.099   2.279  12.011  0.00  0.00    +0.000 C 
ATOM     10  C   UNL     1       5.928   3.673  12.616  0.00  0.00    +0.000 C 
ATOM     11  C   UNL     1       7.146   4.541  12.323  0.00  0.00    +0.000 C 
ATOM     12  F   UNL     1       4.846   4.232  11.997  0.00  0.00    +0.000 F 
ENDBRANCH   8  10
ENDBRANCH   2   8
ENDBRANCH   1   5
BRANCH   1  13
ATOM     13  C   UNL     1       3.496   6.763  18.453  0.00  0.00    +0.000 A 
ATOM     14  C   UNL     1       3.209   7.738  17.489  0.00  0.00    +0.000 A 
ATOM     15  C   UNL     1       2.290   8.769  17.719  0.00  0.00    +0.000 A 
ATOM     16  C   UNL     1       1.526   8.794  18.889  0.00  0.00    +0.000 A 
ATOM     17  C   UNL     1       1.756   7.802  19.848  0.00  0.00    +0.000 A 
ATOM     18  C   UNL     1       2.760   6.838  19.650  0.00  0.00    +0.000 A 
BRANCH  16  19
ATOM     19  C   UNL     1       0.433   9.821  19.068  0.00  0.00    +0.000 C 
ATOM     20  F   UNL     1      -0.324   9.625  20.183  0.00  0.00    +0.000 F 
ATOM     21  F   UNL     1       0.926  11.087  19.174  0.00  0.00    +0.000 F 
ATOM     22  F   UNL     1      -0.445   9.848  18.026  0.00  0.00    +0.000 F 
ENDBRANCH  16  19
ENDBRANCH   1  13
BRANCH   1  23
ATOM     23  C   UNL     1       4.058   4.321  18.289  0.00  0.00    +0.000 A 
ATOM     24  C   UNL     1       3.228   3.689  17.352  0.00  0.00    +0.000 A 
ATOM     25  C   UNL     1       2.842   2.343  17.483  0.00  0.00    +0.000 A 
ATOM     26  C   UNL     1       3.347   1.617  18.537  0.00  0.00    +0.000 A 
ATOM     27  N   UNL     1       4.194   2.138  19.441  0.00  0.00    +0.000 NA
ATOM     28  C   UNL     1       4.520   3.450  19.290  0.00  0.00    +0.000 A 
ENDBRANCH   1  23
TORSDOF 6
ENDMDL
MODEL 4
REMARK VINA RESULT:      -7.6      0.773      1.364
REMARK  Name = 
REMARK  8 active torsions:
REMARK  status: ('A' for Active; 'I' for Inactive)
REMARK    1  A    between atoms: C_1  and  C_2
REMARK    2  A    between atoms: C_2  and  C_3
REMARK    3  A    between atoms: C_2  and  C_5
REMARK    4  A    between atoms: C_5  and  N_6
REMARK    5  A    between atoms: C_9  and  N_10
REMARK    6  A    between atoms: N_10  and  C_11
REMARK    7  A    between atoms: N_10  and  C_21
REMARK    8  A    between atoms: C_14  and  C_15
REMARK                            x       y       z     vdW  Elec       q    Type
REMARK                         _______ _______ _______ _____ _____    ______ ____
ROOT
ATOM      1  N   UNL     1       2.866   5.963  19.343  0.00  0.00    +0.000 N 
ENDROOT
BRANCH   1   5
ATOM      2  N   UNL     1       5.554   4.630  16.984  0.00  0.00    +0.000 NA
ATOM      3  C   UNL     1       5.016   6.001  17.010  0.00  0.00    +0.000 C 
ATOM      4  C   UNL     1       5.108   6.667  18.380  0.00  0.00    +0.000 C 
ATOM      5  C   UNL     1       4.381   5.850  19.468  0.00  0.00    +0.000 C 
ATOM      6  C   UNL     1       5.069   4.476  19.435  0.00  0.00    +0.000 C 
ATOM      7  C   UNL     1       5.015   3.799  18.074  0.00  0.00    +0.000 C 
BRANCH   2   8
ATOM      8  C   UNL     1       5.215   3.965  15.698  0.00  0.00    +0.000 C 
BRANCH   8  10
ATOM      9  C   UNL     1       5.574   3.567  13.248  0.00  0.00    +0.000 C 
ATOM     10  C   UNL     1       5.828   4.540  14.400  0.00  0.00    +0.000 C 
ATOM     11  C   UNL     1       7.317   4.834  14.538  0.00  0.00    +0.000 C 
ATOM     12  F   UNL     1       5.191   5.703  14.071  0.00  0.00    +0.000 F 
ENDBRANCH   8  10
ENDBRANCH   2   8
ENDBRANCH   1   5
BRANCH   1  13
ATOM     13  C   UNL     1       2.257   7.236  19.212  0.00  0.00    +0.000 A 
ATOM     14  C   UNL     1       1.728   7.915  20.317  0.00  0.00    +0.000 A 
ATOM     15  C   UNL     1       1.142   9.182  20.205  0.00  0.00    +0.000 A 
ATOM     16  C   UNL     1       1.173   9.877  18.993  0.00  0.00    +0.000 A 
ATOM     17  C   UNL     1       1.742   9.242  17.884  0.00  0.00    +0.000 A 
ATOM     18  C   UNL     1       2.227   7.925  17.986  0.00  0.00    +0.000 A 
BRANCH  16  19
ATOM     19  C   UNL     1       0.674  11.300  18.912  0.00  0.00    +0.000 C 
ATOM     20  F   UNL     1       0.417  11.858  20.127  0.00  0.00    +0.000 F 
ATOM     21  F   UNL     1       1.570  12.128  18.307  0.00  0.00    +0.000 F 
ATOM     22  F   UNL     1      -0.483  11.415  18.201  0.00  0.00    +0.000 F 
ENDBRANCH  16  19
ENDBRANCH   1  13
BRANCH   1  23
ATOM     23  C   UNL     1       2.143   4.727  19.197  0.00  0.00    +0.000 A 
ATOM     24  C   UNL     1       1.742   3.950  20.294  0.00  0.00    +0.000 A 
ATOM     25  C   UNL     1       1.086   2.716  20.136  0.00  0.00    +0.000 A 
ATOM     26  C   UNL     1       0.782   2.295  18.862  0.00  0.00    +0.000 A 
ATOM     27  N   UNL     1       1.082   3.013  17.766  0.00  0.00    +0.000 NA
ATOM     28  C   UNL     1       1.738   4.188  17.964  0.00  0.00    +0.000 A 
ENDBRANCH   1  23
TORSDOF 6
ENDMDL
MODEL 5
REMARK VINA RESULT:      -7.5      1.655      2.278
REMARK  Name = 
REMARK  8 active torsions:
REMARK  status: ('A' for Active; 'I' for Inactive)
REMARK    1  A    between atoms: C_1  and  C_2
REMARK    2  A    between atoms: C_2  and  C_3
REMARK    3  A    between atoms: C_2  and  C_5
REMARK    4  A    between atoms: C_5  and  N_6
REMARK    5  A    between atoms: C_9  and  N_10
REMARK    6  A    between atoms: N_10  and  C_11
REMARK    7  A    between atoms: N_10  and  C_21
REMARK    8  A    between atoms: C_14  and  C_15
REMARK                            x       y       z     vdW  Elec       q    Type
REMARK                         _______ _______ _______ _____ _____    ______ ____
ROOT
ATOM      1  N   UNL     1       4.322   5.691  18.260  0.00  0.00    +0.000 N 
ENDROOT
BRANCH   1   5
ATOM      2  N   UNL     1       6.227   4.645  15.123  0.00  0.00    +0.000 NA
ATOM      3  C   UNL     1       5.271   5.760  15.233  0.00  0.00    +0.000 C 
ATOM      4  C   UNL     1       5.612   6.748  16.345  0.00  0.00    +0.000 C 
ATOM      5  C   UNL     1       5.700   6.059  17.722  0.00  0.00    +0.000 C 
ATOM      6  C   UNL     1       6.782   4.983  17.541  0.00  0.00    +0.000 C 
ATOM      7  C   UNL     1       6.481   3.998  16.422  0.00  0.00    +0.000 C 
BRANCH   2   8
ATOM      8  C   UNL     1       5.708   3.607  14.195  0.00  0.00    +0.000 C 
BRANCH   8  10
ATOM      9  C   UNL     1       6.321   2.363  12.105  0.00  0.00    +0.000 C 
ATOM     10  C   UNL     1       6.039   3.747  12.691  0.00  0.00    +0.000 C 
ATOM     11  C   UNL     1       7.210   4.688  12.436  0.00  0.00    +0.000 C 
ATOM     12  F   UNL     1       4.948   4.232  12.027  0.00  0.00    +0.000 F 
ENDBRANCH   8  10
ENDBRANCH   2   8
ENDBRANCH   1   5
BRANCH   1  13
ATOM     13  C   UNL     1       3.349   6.700  18.472  0.00  0.00    +0.000 A 
ATOM     14  C   UNL     1       2.675   6.827  19.693  0.00  0.00    +0.000 A 
ATOM     15  C   UNL     1       1.728   7.832  19.924  0.00  0.00    +0.000 A 
ATOM     16  C   UNL     1       1.505   8.832  18.973  0.00  0.00    +0.000 A 
ATOM     17  C   UNL     1       2.202   8.758  17.763  0.00  0.00    +0.000 A 
ATOM     18  C   UNL     1       3.069   7.681  17.503  0.00  0.00    +0.000 A 
BRANCH  16  19
ATOM     19  C   UNL     1       0.592   9.995  19.284  0.00  0.00    +0.000 C 
ATOM     20  F   UNL     1      -0.062  10.482  18.194  0.00  0.00    +0.000 F 
ATOM     21  F   UNL     1      -0.378   9.664  20.181  0.00  0.00    +0.000 F 
ATOM     22  F   UNL     1       1.254  11.057  19.823  0.00  0.00    +0.000 F 
ENDBRANCH  16  19
ENDBRANCH   1  13
BRANCH   1  23
ATOM     23  C   UNL     1       4.032   4.285  18.367  0.00  0.00    +0.000 A 
ATOM     24  C   UNL     1       4.479   3.499  19.437  0.00  0.00    +0.000 A 
ATOM     25  C   UNL     1       4.237   2.115  19.501  0.00  0.00    +0.000 A 
ATOM     26  C   UNL     1       3.487   1.535  18.504  0.00  0.00    +0.000 A 
ATOM     27  N   UNL     1       2.976   2.235  17.477  0.00  0.00    +0.000 NA
ATOM     28  C   UNL     1       3.256   3.566  17.442  0.00  0.00    +0.000 A 
ENDBRANCH   1  23
TORSDOF 6
ENDMDL
MODEL 6
REMARK VINA RESULT:      -7.5      1.570      1.936
REMARK  Name = 
REMARK  8 active torsions:
REMARK  status: ('A' for Active; 'I' for Inactive)
REMARK    1  A    between atoms: C_1  and  C_2
REMARK    2  A    between atoms: C_2  and  C_3
REMARK    3  A    between atoms: C_2  and  C_5
REMARK    4  A    between atoms: C_5  and  N_6
REMARK    5  A    between atoms: C_9  and  N_10
REMARK    6  A    between atoms: N_10  and  C_11
REMARK    7  A    between atoms: N_10  and  C_21
REMARK    8  A    between atoms: C_14  and  C_15
REMARK                            x       y       z     vdW  Elec       q    Type
REMARK                         _______ _______ _______ _____ _____    ______ ____
ROOT
ATOM      1  N   UNL     1       4.283   5.660  18.368  0.00  0.00    +0.000 N 
ENDROOT
BRANCH   1   5
ATOM      2  N   UNL     1       5.990   4.794  15.066  0.00  0.00    +0.000 NA
ATOM      3  C   UNL     1       5.181   5.994  15.343  0.00  0.00    +0.000 C 
ATOM      4  C   UNL     1       5.661   6.786  16.556  0.00  0.00    +0.000 C 
ATOM      5  C   UNL     1       5.687   5.923  17.835  0.00  0.00    +0.000 C 
ATOM      6  C   UNL     1       6.623   4.756  17.488  0.00  0.00    +0.000 C 
ATOM      7  C   UNL     1       6.183   3.963  16.266  0.00  0.00    +0.000 C 
BRANCH   2   8
ATOM      8  C   UNL     1       5.329   3.953  14.034  0.00  0.00    +0.000 C 
BRANCH   8  10
ATOM      9  C   UNL     1       7.123   4.792  12.495  0.00  0.00    +0.000 C 
ATOM     10  C   UNL     1       6.096   3.681  12.719  0.00  0.00    +0.000 C 
ATOM     11  C   UNL     1       5.168   3.554  11.517  0.00  0.00    +0.000 C 
ATOM     12  F   UNL     1       6.805   2.519  12.837  0.00  0.00    +0.000 F 
ENDBRANCH   8  10
ENDBRANCH   2   8
ENDBRANCH   1   5
BRANCH   1  13
ATOM     13  C   UNL     1       3.405   6.743  18.621  0.00  0.00    +0.000 A 
ATOM     14  C   UNL     1       3.139   7.717  17.649  0.00  0.00    +0.000 A 
ATOM     15  C   UNL     1       2.257   8.780  17.878  0.00  0.00    +0.000 A 
ATOM     16  C   UNL     1       1.507   8.842  19.056  0.00  0.00    +0.000 A 
ATOM     17  C   UNL     1       1.716   7.853  20.023  0.00  0.00    +0.000 A 
ATOM     18  C   UNL     1       2.685   6.854  19.825  0.00  0.00    +0.000 A 
BRANCH  16  19
ATOM     19  C   UNL     1       0.451   9.907  19.237  0.00  0.00    +0.000 C 
ATOM     20  F   UNL     1       0.961  11.147  19.470  0.00  0.00    +0.000 F 
ATOM     21  F   UNL     1      -0.346  10.035  18.139  0.00  0.00    +0.000 F 
ATOM     22  F   UNL     1      -0.387   9.649  20.280  0.00  0.00    +0.000 F 
ENDBRANCH  16  19
ENDBRANCH   1  13
BRANCH   1  23
ATOM     23  C   UNL     1       3.870   4.282  18.427  0.00  0.00    +0.000 A 
ATOM     24  C   UNL     1       2.977   3.719  17.506  0.00  0.00    +0.000 A 
ATOM     25  C   UNL     1       2.537   2.387  17.608  0.00  0.00    +0.000 A 
ATOM     26  C   UNL     1       3.051   1.604  18.617  0.00  0.00    +0.000 A 
ATOM     27  N   UNL     1       3.954   2.058  19.502  0.00  0.00    +0.000 NA
ATOM     28  C   UNL     1       4.333   3.359  19.380  0.00  0.00    +0.000 A 
ENDBRANCH   1  23
TORSDOF 6
ENDMDL
MODEL 7
REMARK VINA RESULT:      -7.4      0.738      1.008
REMARK  Name = 
REMARK  8 active torsions:
REMARK  status: ('A' for Active; 'I' for Inactive)
REMARK    1  A    between atoms: C_1  and  C_2
REMARK    2  A    between atoms: C_2  and  C_3
REMARK    3  A    between atoms: C_2  and  C_5
REMARK    4  A    between atoms: C_5  and  N_6
REMARK    5  A    between atoms: C_9  and  N_10
REMARK    6  A    between atoms: N_10  and  C_11
REMARK    7  A    between atoms: N_10  and  C_21
REMARK    8  A    between atoms: C_14  and  C_15
REMARK                            x       y       z     vdW  Elec       q    Type
REMARK                         _______ _______ _______ _____ _____    ______ ____
ROOT
ATOM      1  N   UNL     1       3.390   5.972  19.013  0.00  0.00    +0.000 N 
ENDROOT
BRANCH   1   5
ATOM      2  N   UNL     1       5.605   5.264  15.987  0.00  0.00    +0.000 NA
ATOM      3  C   UNL     1       4.977   6.552  16.327  0.00  0.00    +0.000 C 
ATOM      4  C   UNL     1       5.308   7.038  17.735  0.00  0.00    +0.000 C 
ATOM      5  C   UNL     1       4.900   6.011  18.811  0.00  0.00    +0.000 C 
ATOM      6  C   UNL     1       5.672   4.737  18.434  0.00  0.00    +0.000 C 
ATOM      7  C   UNL     1       5.381   4.242  17.025  0.00  0.00    +0.000 C 
BRANCH   2   8
ATOM      8  C   UNL     1       5.052   4.740  14.710  0.00  0.00    +0.000 C 
BRANCH   8  10
ATOM      9  C   UNL     1       7.219   4.907  13.459  0.00  0.00    +0.000 C 
ATOM     10  C   UNL     1       6.015   4.009  13.747  0.00  0.00    +0.000 C 
ATOM     11  C   UNL     1       5.336   3.587  12.450  0.00  0.00    +0.000 C 
ATOM     12  F   UNL     1       6.507   2.890  14.356  0.00  0.00    +0.000 F 
ENDBRANCH   8  10
ENDBRANCH   2   8
ENDBRANCH   1   5
BRANCH   1  13
ATOM     13  C   UNL     1       2.640   7.175  18.996  0.00  0.00    +0.000 A 
ATOM     14  C   UNL     1       2.390   7.870  17.806  0.00  0.00    +0.000 A 
ATOM     15  C   UNL     1       1.633   9.048  17.773  0.00  0.00    +0.000 A 
ATOM     16  C   UNL     1       0.989   9.513  18.923  0.00  0.00    +0.000 A 
ATOM     17  C   UNL     1       1.180   8.809  20.116  0.00  0.00    +0.000 A 
ATOM     18  C   UNL     1       2.033   7.691  20.156  0.00  0.00    +0.000 A 
BRANCH  16  19
ATOM     19  C   UNL     1       0.055  10.698  18.851  0.00  0.00    +0.000 C 
ATOM     20  F   UNL     1      -0.523  11.010  20.044  0.00  0.00    +0.000 F 
ATOM     21  F   UNL     1       0.690  11.831  18.441  0.00  0.00    +0.000 F 
ATOM     22  F   UNL     1      -0.974  10.509  17.979  0.00  0.00    +0.000 F 
ENDBRANCH  16  19
ENDBRANCH   1  13
BRANCH   1  23
ATOM     23  C   UNL     1       2.782   4.668  19.044  0.00  0.00    +0.000 A 
ATOM     24  C   UNL     1       1.984   4.178  18.000  0.00  0.00    +0.000 A 
ATOM     25  C   UNL     1       1.350   2.925  18.068  0.00  0.00    +0.000 A 
ATOM     26  C   UNL     1       1.573   2.138  19.175  0.00  0.00    +0.000 A 
ATOM     27  N   UNL     1       2.371   2.515  20.188  0.00  0.00    +0.000 NA
ATOM     28  C   UNL     1       2.945   3.745  20.091  0.00  0.00    +0.000 A 
ENDBRANCH   1  23
TORSDOF 6
ENDMDL
MODEL 8
REMARK VINA RESULT:      -7.4      1.678      2.178
REMARK  Name = 
REMARK  8 active torsions:
REMARK  status: ('A' for Active; 'I' for Inactive)
REMARK    1  A    between atoms: C_1  and  C_2
REMARK    2  A    between atoms: C_2  and  C_3
REMARK    3  A    between atoms: C_2  and  C_5
REMARK    4  A    between atoms: C_5  and  N_6
REMARK    5  A    between atoms: C_9  and  N_10
REMARK    6  A    between atoms: N_10  and  C_11
REMARK    7  A    between atoms: N_10  and  C_21
REMARK    8  A    between atoms: C_14  and  C_15
REMARK                            x       y       z     vdW  Elec       q    Type
REMARK                         _______ _______ _______ _____ _____    ______ ____
ROOT
ATOM      1  N   UNL     1       4.353   5.625  18.233  0.00  0.00    +0.000 N 
ENDROOT
BRANCH   1   5
ATOM      2  N   UNL     1       6.131   4.679  14.992  0.00  0.00    +0.000 NA
ATOM      3  C   UNL     1       5.221   5.820  15.188  0.00  0.00    +0.000 C 
ATOM      4  C   UNL     1       5.628   6.735  16.339  0.00  0.00    +0.000 C 
ATOM      5  C   UNL     1       5.729   5.971  17.676  0.00  0.00    +0.000 C 
ATOM      6  C   UNL     1       6.764   4.869  17.407  0.00  0.00    +0.000 C 
ATOM      7  C   UNL     1       6.396   3.955  16.248  0.00  0.00    +0.000 C 
BRANCH   2   8
ATOM      8  C   UNL     1       5.548   3.711  14.027  0.00  0.00    +0.000 C 
BRANCH   8  10
ATOM      9  C   UNL     1       7.212   4.724  12.447  0.00  0.00    +0.000 C 
ATOM     10  C   UNL     1       6.212   3.583  12.636  0.00  0.00    +0.000 C 
ATOM     11  C   UNL     1       5.194   3.566  11.503  0.00  0.00    +0.000 C 
ATOM     12  F   UNL     1       6.934   2.425  12.580  0.00  0.00    +0.000 F 
ENDBRANCH   8  10
ENDBRANCH   2   8
ENDBRANCH   1   5
BRANCH   1  13
ATOM     13  C   UNL     1       3.396   6.648  18.449  0.00  0.00    +0.000 A 
ATOM     14  C   UNL     1       2.690   6.753  19.655  0.00  0.00    +0.000 A 
ATOM     15  C   UNL     1       1.757   7.770  19.890  0.00  0.00    +0.000 A 
ATOM     16  C   UNL     1       1.582   8.802  18.963  0.00  0.00    +0.000 A 
ATOM     17  C   UNL     1       2.311   8.749  17.771  0.00  0.00    +0.000 A 
ATOM     18  C   UNL     1       3.162   7.662  17.503  0.00  0.00    +0.000 A 
BRANCH  16  19
ATOM     19  C   UNL     1       0.684   9.974  19.284  0.00  0.00    +0.000 C 
ATOM     20  F   UNL     1       0.564  10.220  20.618  0.00  0.00    +0.000 F 
ATOM     21  F   UNL     1       1.136  11.136  18.733  0.00  0.00    +0.000 F 
ATOM     22  F   UNL     1      -0.587   9.810  18.822  0.00  0.00    +0.000 F 
ENDBRANCH  16  19
ENDBRANCH   1  13
BRANCH   1  23
ATOM     23  C   UNL     1       4.047   4.224  18.356  0.00  0.00    +0.000 A 
ATOM     24  C   UNL     1       3.240   3.541  17.436  0.00  0.00    +0.000 A 
ATOM     25  C   UNL     1       2.903   2.186  17.598  0.00  0.00    +0.000 A 
ATOM     26  C   UNL     1       3.434   1.502  18.668  0.00  0.00    +0.000 A 
ATOM     27  N   UNL     1       4.261   2.075  19.559  0.00  0.00    +0.000 NA
ATOM     28  C   UNL     1       4.541   3.393  19.377  0.00  0.00    +0.000 A 
ENDBRANCH   1  23
TORSDOF 6
ENDMDL
MODEL 9
REMARK VINA RESULT:      -7.4      1.444      1.752
REMARK  Name = 
REMARK  8 active torsions:
REMARK  status: ('A' for Active; 'I' for Inactive)
REMARK    1  A    between atoms: C_1  and  C_2
REMARK    2  A    between atoms: C_2  and  C_3
REMARK    3  A    between atoms: C_2  and  C_5
REMARK    4  A    between atoms: C_5  and  N_6
REMARK    5  A    between atoms: C_9  and  N_10
REMARK    6  A    between atoms: N_10  and  C_11
REMARK    7  A    between atoms: N_10  and  C_21
REMARK    8  A    between atoms: C_14  and  C_15
REMARK                            x       y       z     vdW  Elec       q    Type
REMARK                         _______ _______ _______ _____ _____    ______ ____
ROOT
ATOM      1  N   UNL     1       4.176   5.797  18.303  0.00  0.00    +0.000 N 
ENDROOT
BRANCH   1   5
ATOM      2  N   UNL     1       6.116   4.619  15.235  0.00  0.00    +0.000 NA
ATOM      3  C   UNL     1       5.225   5.789  15.308  0.00  0.00    +0.000 C 
ATOM      4  C   UNL     1       5.589   6.763  16.426  0.00  0.00    +0.000 C 
ATOM      5  C   UNL     1       5.591   6.079  17.809  0.00  0.00    +0.000 C 
ATOM      6  C   UNL     1       6.611   4.939  17.668  0.00  0.00    +0.000 C 
ATOM      7  C   UNL     1       6.288   3.966  16.544  0.00  0.00    +0.000 C 
BRANCH   2   8
ATOM      8  C   UNL     1       5.565   3.608  14.295  0.00  0.00    +0.000 C 
BRANCH   8  10
ATOM      9  C   UNL     1       7.102   4.741  12.668  0.00  0.00    +0.000 C 
ATOM     10  C   UNL     1       6.054   3.639  12.828  0.00  0.00    +0.000 C 
ATOM     11  C   UNL     1       4.913   3.833  11.837  0.00  0.00    +0.000 C 
ATOM     12  F   UNL     1       6.682   2.463  12.532  0.00  0.00    +0.000 F 
ENDBRANCH   8  10
ENDBRANCH   2   8
ENDBRANCH   1   5
BRANCH   1  13
ATOM     13  C   UNL     1       3.287   6.871  18.560  0.00  0.00    +0.000 A 
ATOM     14  C   UNL     1       2.976   7.820  17.577  0.00  0.00    +0.000 A 
ATOM     15  C   UNL     1       2.083   8.873  17.810  0.00  0.00    +0.000 A 
ATOM     16  C   UNL     1       1.367   8.946  19.008  0.00  0.00    +0.000 A 
ATOM     17  C   UNL     1       1.620   7.981  19.988  0.00  0.00    +0.000 A 
ATOM     18  C   UNL     1       2.601   6.994  19.782  0.00  0.00    +0.000 A 
BRANCH  16  19
ATOM     19  C   UNL     1       0.298   9.997  19.198  0.00  0.00    +0.000 C 
ATOM     20  F   UNL     1      -0.621  10.028  18.194  0.00  0.00    +0.000 F 
ATOM     21  F   UNL     1      -0.413   9.808  20.345  0.00  0.00    +0.000 F 
ATOM     22  F   UNL     1       0.804  11.259  19.275  0.00  0.00    +0.000 F 
ENDBRANCH  16  19
ENDBRANCH   1  13
BRANCH   1  23
ATOM     23  C   UNL     1       3.769   4.417  18.322  0.00  0.00    +0.000 A 
ATOM     24  C   UNL     1       4.183   3.518  19.315  0.00  0.00    +0.000 A 
ATOM     25  C   UNL     1       3.824   2.159  19.291  0.00  0.00    +0.000 A 
ATOM     26  C   UNL     1       2.992   1.720  18.287  0.00  0.00    +0.000 A 
ATOM     27  N   UNL     1       2.508   2.534  17.334  0.00  0.00    +0.000 NA
ATOM     28  C   UNL     1       2.901   3.836  17.383  0.00  0.00    +0.000 A 
ENDBRANCH   1  23
TORSDOF 6
ENDMDL
