MODEL 1
REMARK VINA RESULT:      -7.4      0.000      0.000
REMARK  Name = 
REMARK  3 active torsions:
REMARK  status: ('A' for Active; 'I' for Inactive)
REMARK    1  A    between atoms: N_3  and  N_4
REMARK    2  A    between atoms: C_5  and  C_7
REMARK    3  A    between atoms: N_13  and  C_14
REMARK                            x       y       z     vdW  Elec       q    Type
REMARK                         _______ _______ _______ _____ _____    ______ ____
ROOT
ATOM      1  O   UNL     1       7.742   9.312  17.668  0.00  0.00    +0.000 OA
ATOM      2  C   UNL     1       8.507   8.928  18.550  0.00  0.00    +0.000 C 
ATOM      3  N   UNL     1       8.557   7.594  18.928  0.00  0.00    +0.000 N 
ATOM      4  N   UNL     1       9.451   9.680  19.218  0.00  0.00    +0.000 N 
ATOM      5  H   UNL     1       8.736   7.373  19.907  0.00  0.00    +0.000 HD
ATOM      6  H   UNL     1      10.178   9.146  19.674  0.00  0.00    +0.000 HD
ENDROOT
BRANCH   4   7
ATOM      7  C   UNL     1       9.690  11.059  19.041  0.00  0.00    +0.000 A 
ATOM      8  C   UNL     1       9.322  12.025  19.981  0.00  0.00    +0.000 A 
ATOM      9  C   UNL     1       9.532  13.384  19.723  0.00  0.00    +0.000 A 
ATOM     10  C   UNL     1      10.116  13.780  18.523  0.00  0.00    +0.000 A 
ATOM     11 CL   UNL     1      10.329  15.453  18.185  0.00  0.00    +0.000 Cl
ATOM     12  C   UNL     1      10.521  12.826  17.594  0.00  0.00    +0.000 A 
ATOM     13  C   UNL     1      10.318  11.468  17.857  0.00  0.00    +0.000 A 
ENDBRANCH   4   7
BRANCH   3  14
ATOM     14  N   UNL     1       7.628   6.730  18.310  0.00  0.00    +0.000 N 
ATOM     15  C   UNL     1       7.155   5.659  19.043  0.00  0.00    +0.000 C 
ATOM     16  O   UNL     1       7.557   5.407  20.175  0.00  0.00    +0.000 OA
ATOM     17  H   UNL     1       7.101   7.141  17.540  0.00  0.00    +0.000 HD
BRANCH  15  18
ATOM     18  C   UNL     1       6.107   4.825  18.395  0.00  0.00    +0.000 A 
ATOM     19  C   UNL     1       5.071   4.251  19.129  0.00  0.00    +0.000 A 
ATOM     20  C   UNL     1       4.124   3.513  18.441  0.00  0.00    +0.000 A 
ATOM     21  N   UNL     1       4.152   3.319  17.105  0.00  0.00    +0.000 NA
ATOM     22  C   UNL     1       5.159   3.899  16.420  0.00  0.00    +0.000 A 
ATOM     23  C   UNL     1       6.151   4.659  17.010  0.00  0.00    +0.000 A 
ENDBRANCH  15  18
ENDBRANCH   3  14
TORSDOF 3
ENDMDL
MODEL 2
REMARK VINA RESULT:      -7.3      0.180      1.091
REMARK  Name = 
REMARK  3 active torsions:
REMARK  status: ('A' for Active; 'I' for Inactive)
REMARK    1  A    between atoms: N_3  and  N_4
REMARK    2  A    between atoms: C_5  and  C_7
REMARK    3  A    between atoms: N_13  and  C_14
REMARK                            x       y       z     vdW  Elec       q    Type
REMARK                         _______ _______ _______ _____ _____    ______ ____
ROOT
ATOM      1  O   UNL     1       7.712   9.227  17.633  0.00  0.00    +0.000 OA
ATOM      2  C   UNL     1       8.477   8.849  18.516  0.00  0.00    +0.000 C 
ATOM      3  N   UNL     1       8.526   7.518  18.906  0.00  0.00    +0.000 N 
ATOM      4  N   UNL     1       9.424   9.606  19.177  0.00  0.00    +0.000 N 
ATOM      5  H   UNL     1       8.706   7.305  19.886  0.00  0.00    +0.000 HD
ATOM      6  H   UNL     1      10.150   9.073  19.636  0.00  0.00    +0.000 HD
ENDROOT
BRANCH   4   7
ATOM      7  C   UNL     1       9.665  10.982  18.988  0.00  0.00    +0.000 A 
ATOM      8  C   UNL     1      10.234  11.506  17.824  0.00  0.00    +0.000 A 
ATOM      9  C   UNL     1      10.502  12.874  17.718  0.00  0.00    +0.000 A 
ATOM     10  C   UNL     1      10.198  13.725  18.777  0.00  0.00    +0.000 A 
ATOM     11 CL   UNL     1      10.574  15.400  18.666  0.00  0.00    +0.000 Cl
ATOM     12  C   UNL     1       9.597  13.223  19.928  0.00  0.00    +0.000 A 
ATOM     13  C   UNL     1       9.321  11.855  20.028  0.00  0.00    +0.000 A 
ENDBRANCH   4   7
BRANCH   3  14
ATOM     14  N   UNL     1       7.594   6.651  18.296  0.00  0.00    +0.000 N 
ATOM     15  C   UNL     1       7.085   5.614  19.054  0.00  0.00    +0.000 C 
ATOM     16  O   UNL     1       7.458   5.393  20.203  0.00  0.00    +0.000 OA
ATOM     17  H   UNL     1       7.092   7.045  17.502  0.00  0.00    +0.000 HD
BRANCH  15  18
ATOM     18  C   UNL     1       6.036   4.777  18.412  0.00  0.00    +0.000 A 
ATOM     19  C   UNL     1       5.050   4.137  19.160  0.00  0.00    +0.000 A 
ATOM     20  C   UNL     1       4.097   3.402  18.478  0.00  0.00    +0.000 A 
ATOM     21  N   UNL     1       4.073   3.271  17.134  0.00  0.00    +0.000 NA
ATOM     22  C   UNL     1       5.031   3.914  16.436  0.00  0.00    +0.000 A 
ATOM     23  C   UNL     1       6.025   4.677  17.020  0.00  0.00    +0.000 A 
ENDBRANCH  15  18
ENDBRANCH   3  14
TORSDOF 3
ENDMDL
MODEL 3
REMARK VINA RESULT:      -7.1      0.477      1.554
REMARK  Name = 
REMARK  3 active torsions:
REMARK  status: ('A' for Active; 'I' for Inactive)
REMARK    1  A    between atoms: N_3  and  N_4
REMARK    2  A    between atoms: C_5  and  C_7
REMARK    3  A    between atoms: N_13  and  C_14
REMARK                            x       y       z     vdW  Elec       q    Type
REMARK                         _______ _______ _______ _____ _____    ______ ____
ROOT
ATOM      1  O   UNL     1       7.926   9.453  17.777  0.00  0.00    +0.000 OA
ATOM      2  C   UNL     1       8.634   9.016  18.681  0.00  0.00    +0.000 C 
ATOM      3  N   UNL     1       8.619   7.670  19.021  0.00  0.00    +0.000 N 
ATOM      4  N   UNL     1       9.570   9.714  19.415  0.00  0.00    +0.000 N 
ATOM      5  H   UNL     1       8.742   7.415  19.999  0.00  0.00    +0.000 HD
ATOM      6  H   UNL     1      10.255   9.141  19.889  0.00  0.00    +0.000 HD
ENDROOT
BRANCH   4   7
ATOM      7  C   UNL     1       9.865  11.087  19.292  0.00  0.00    +0.000 A 
ATOM      8  C   UNL     1      10.113  11.709  18.065  0.00  0.00    +0.000 A 
ATOM      9  C   UNL     1      10.458  13.063  18.011  0.00  0.00    +0.000 A 
ATOM     10  C   UNL     1      10.552  13.803  19.187  0.00  0.00    +0.000 A 
ATOM     11 CL   UNL     1      11.024  15.456  19.124  0.00  0.00    +0.000 Cl
ATOM     12  C   UNL     1      10.271  13.206  20.412  0.00  0.00    +0.000 A 
ATOM     13  C   UNL     1       9.918  11.853  20.463  0.00  0.00    +0.000 A 
ENDBRANCH   4   7
BRANCH   3  14
ATOM     14  N   UNL     1       7.691   6.859  18.333  0.00  0.00    +0.000 N 
ATOM     15  C   UNL     1       7.195   5.749  18.988  0.00  0.00    +0.000 C 
ATOM     16  O   UNL     1       7.574   5.420  20.108  0.00  0.00    +0.000 OA
ATOM     17  H   UNL     1       7.182   7.325  17.583  0.00  0.00    +0.000 HD
BRANCH  15  18
ATOM     18  C   UNL     1       6.148   4.970  18.271  0.00  0.00    +0.000 A 
ATOM     19  C   UNL     1       6.201   4.767  16.894  0.00  0.00    +0.000 A 
ATOM     20  C   UNL     1       5.201   4.008  16.314  0.00  0.00    +0.000 A 
ATOM     21  N   UNL     1       4.182   3.456  17.008  0.00  0.00    +0.000 NA
ATOM     22  C   UNL     1       4.166   3.658  18.341  0.00  0.00    +0.000 A 
ATOM     23  C   UNL     1       5.119   4.396  19.018  0.00  0.00    +0.000 A 
ENDBRANCH  15  18
ENDBRANCH   3  14
TORSDOF 3
ENDMDL
MODEL 4
REMARK VINA RESULT:      -7.1      0.320      1.102
REMARK  Name = 
REMARK  3 active torsions:
REMARK  status: ('A' for Active; 'I' for Inactive)
REMARK    1  A    between atoms: N_3  and  N_4
REMARK    2  A    between atoms: C_5  and  C_7
REMARK    3  A    between atoms: N_13  and  C_14
REMARK                            x       y       z     vdW  Elec       q    Type
REMARK                         _______ _______ _______ _____ _____    ______ ____
ROOT
ATOM      1  O   UNL     1       7.902   9.569  17.696  0.00  0.00    +0.000 OA
ATOM      2  C   UNL     1       8.617   9.154  18.605  0.00  0.00    +0.000 C 
ATOM      3  N   UNL     1       8.627   7.812  18.957  0.00  0.00    +0.000 N 
ATOM      4  N   UNL     1       9.540   9.876  19.333  0.00  0.00    +0.000 N 
ATOM      5  H   UNL     1       8.755   7.568  19.938  0.00  0.00    +0.000 HD
ATOM      6  H   UNL     1      10.235   9.320  19.812  0.00  0.00    +0.000 HD
ENDROOT
BRANCH   4   7
ATOM      7  C   UNL     1       9.809  11.254  19.197  0.00  0.00    +0.000 A 
ATOM      8  C   UNL     1       9.319  12.219  20.081  0.00  0.00    +0.000 A 
ATOM      9  C   UNL     1       9.572  13.577  19.860  0.00  0.00    +0.000 A 
ATOM     10  C   UNL     1      10.320  13.974  18.756  0.00  0.00    +0.000 A 
ATOM     11 CL   UNL     1      10.588  15.647  18.458  0.00  0.00    +0.000 Cl
ATOM     12  C   UNL     1      10.845  13.021  17.888  0.00  0.00    +0.000 A 
ATOM     13  C   UNL     1      10.599  11.662  18.115  0.00  0.00    +0.000 A 
ENDBRANCH   4   7
BRANCH   3  14
ATOM     14  N   UNL     1       7.715   6.977  18.276  0.00  0.00    +0.000 N 
ATOM     15  C   UNL     1       7.350   5.791  18.882  0.00  0.00    +0.000 C 
ATOM     16  O   UNL     1       7.832   5.419  19.948  0.00  0.00    +0.000 OA
ATOM     17  H   UNL     1       7.120   7.450  17.597  0.00  0.00    +0.000 HD
BRANCH  15  18
ATOM     18  C   UNL     1       6.316   4.981  18.182  0.00  0.00    +0.000 A 
ATOM     19  C   UNL     1       6.385   4.727  16.814  0.00  0.00    +0.000 A 
ATOM     20  C   UNL     1       5.396   3.942  16.251  0.00  0.00    +0.000 A 
ATOM     21  N   UNL     1       4.371   3.412  16.954  0.00  0.00    +0.000 NA
ATOM     22  C   UNL     1       4.339   3.662  18.278  0.00  0.00    +0.000 A 
ATOM     23  C   UNL     1       5.280   4.430  18.938  0.00  0.00    +0.000 A 
ENDBRANCH  15  18
ENDBRANCH   3  14
TORSDOF 3
ENDMDL
MODEL 5
REMARK VINA RESULT:      -7.0      7.259      9.273
REMARK  Name = 
REMARK  3 active torsions:
REMARK  status: ('A' for Active; 'I' for Inactive)
REMARK    1  A    between atoms: N_3  and  N_4
REMARK    2  A    between atoms: C_5  and  C_7
REMARK    3  A    between atoms: N_13  and  C_14
REMARK                            x       y       z     vdW  Elec       q    Type
REMARK                         _______ _______ _______ _____ _____    ______ ____
ROOT
ATOM      1  O   UNL     1       1.850   7.809  18.415  0.00  0.00    +0.000 OA
ATOM      2  C   UNL     1       2.388   7.304  19.398  0.00  0.00    +0.000 C 
ATOM      3  N   UNL     1       1.943   7.579  20.683  0.00  0.00    +0.000 N 
ATOM      4  N   UNL     1       3.405   6.371  19.402  0.00  0.00    +0.000 N 
ATOM      5  H   UNL     1       2.629   7.626  21.435  0.00  0.00    +0.000 HD
ATOM      6  H   UNL     1       3.507   5.855  20.265  0.00  0.00    +0.000 HD
ENDROOT
BRANCH   4   7
ATOM      7  C   UNL     1       4.054   5.847  18.265  0.00  0.00    +0.000 A 
ATOM      8  C   UNL     1       4.848   6.619  17.414  0.00  0.00    +0.000 A 
ATOM      9  C   UNL     1       5.419   6.055  16.268  0.00  0.00    +0.000 A 
ATOM     10  C   UNL     1       5.199   4.713  15.972  0.00  0.00    +0.000 A 
ATOM     11 CL   UNL     1       5.859   4.032  14.537  0.00  0.00    +0.000 Cl
ATOM     12  C   UNL     1       4.440   3.923  16.831  0.00  0.00    +0.000 A 
ATOM     13  C   UNL     1       3.878   4.486  17.981  0.00  0.00    +0.000 A 
ENDBRANCH   4   7
BRANCH   3  14
ATOM     14  N   UNL     1       0.904   8.527  20.799  0.00  0.00    +0.000 N 
ATOM     15  C   UNL     1       0.941   9.398  21.870  0.00  0.00    +0.000 C 
ATOM     16  O   UNL     1       1.803   9.334  22.742  0.00  0.00    +0.000 OA
ATOM     17  H   UNL     1       0.425   8.752  19.928  0.00  0.00    +0.000 HD
BRANCH  15  18
ATOM     18  C   UNL     1      -0.115  10.445  21.909  0.00  0.00    +0.000 A 
ATOM     19  C   UNL     1      -0.405  11.236  20.799  0.00  0.00    +0.000 A 
ATOM     20  C   UNL     1      -1.421  12.166  20.916  0.00  0.00    +0.000 A 
ATOM     21  N   UNL     1      -2.143  12.348  22.043  0.00  0.00    +0.000 NA
ATOM     22  C   UNL     1      -1.851  11.558  23.096  0.00  0.00    +0.000 A 
ATOM     23  C   UNL     1      -0.858  10.596  23.081  0.00  0.00    +0.000 A 
ENDBRANCH  15  18
ENDBRANCH   3  14
TORSDOF 3
ENDMDL
MODEL 6
REMARK VINA RESULT:      -7.0      3.724      8.682
REMARK  Name = 
REMARK  3 active torsions:
REMARK  status: ('A' for Active; 'I' for Inactive)
REMARK    1  A    between atoms: N_3  and  N_4
REMARK    2  A    between atoms: C_5  and  C_7
REMARK    3  A    between atoms: N_13  and  C_14
REMARK                            x       y       z     vdW  Elec       q    Type
REMARK                         _______ _______ _______ _____ _____    ______ ____
ROOT
ATOM      1  O   UNL     1       6.956   8.016  17.122  0.00  0.00    +0.000 OA
ATOM      2  C   UNL     1       7.584   7.509  18.049  0.00  0.00    +0.000 C 
ATOM      3  N   UNL     1       8.619   8.190  18.675  0.00  0.00    +0.000 N 
ATOM      4  N   UNL     1       7.339   6.293  18.652  0.00  0.00    +0.000 N 
ATOM      5  H   UNL     1       9.419   7.656  19.010  0.00  0.00    +0.000 HD
ATOM      6  H   UNL     1       7.748   6.182  19.570  0.00  0.00    +0.000 HD
ENDROOT
BRANCH   4   7
ATOM      7  C   UNL     1       6.335   5.373  18.287  0.00  0.00    +0.000 A 
ATOM      8  C   UNL     1       6.272   4.770  17.027  0.00  0.00    +0.000 A 
ATOM      9  C   UNL     1       5.218   3.910  16.704  0.00  0.00    +0.000 A 
ATOM     10  C   UNL     1       4.224   3.646  17.642  0.00  0.00    +0.000 A 
ATOM     11 CL   UNL     1       2.902   2.627  17.225  0.00  0.00    +0.000 Cl
ATOM     12  C   UNL     1       4.294   4.210  18.912  0.00  0.00    +0.000 A 
ATOM     13  C   UNL     1       5.354   5.063  19.237  0.00  0.00    +0.000 A 
ENDBRANCH   4   7
BRANCH   3  14
ATOM     14  N   UNL     1       8.959   9.449  18.135  0.00  0.00    +0.000 N 
ATOM     15  C   UNL     1       9.310  10.454  19.014  0.00  0.00    +0.000 C 
ATOM     16  O   UNL     1       9.278  10.306  20.232  0.00  0.00    +0.000 OA
ATOM     17  H   UNL     1       9.278   9.432  17.167  0.00  0.00    +0.000 HD
BRANCH  15  18
ATOM     18  C   UNL     1       9.755  11.739  18.408  0.00  0.00    +0.000 A 
ATOM     19  C   UNL     1       8.978  12.893  18.485  0.00  0.00    +0.000 A 
ATOM     20  C   UNL     1       9.481  14.049  17.917  0.00  0.00    +0.000 A 
ATOM     21  N   UNL     1      10.678  14.119  17.294  0.00  0.00    +0.000 NA
ATOM     22  C   UNL     1      11.413  12.989  17.248  0.00  0.00    +0.000 A 
ATOM     23  C   UNL     1      11.004  11.784  17.788  0.00  0.00    +0.000 A 
ENDBRANCH  15  18
ENDBRANCH   3  14
TORSDOF 3
ENDMDL
MODEL 7
REMARK VINA RESULT:      -7.0      7.253      9.233
REMARK  Name = 
REMARK  3 active torsions:
REMARK  status: ('A' for Active; 'I' for Inactive)
REMARK    1  A    between atoms: N_3  and  N_4
REMARK    2  A    between atoms: C_5  and  C_7
REMARK    3  A    between atoms: N_13  and  C_14
REMARK                            x       y       z     vdW  Elec       q    Type
REMARK                         _______ _______ _______ _____ _____    ______ ____
ROOT
ATOM      1  O   UNL     1       1.825   7.803  18.548  0.00  0.00    +0.000 OA
ATOM      2  C   UNL     1       2.337   7.253  19.520  0.00  0.00    +0.000 C 
ATOM      3  N   UNL     1       1.873   7.488  20.807  0.00  0.00    +0.000 N 
ATOM      4  N   UNL     1       3.336   6.302  19.507  0.00  0.00    +0.000 N 
ATOM      5  H   UNL     1       2.546   7.495  21.572  0.00  0.00    +0.000 HD
ATOM      6  H   UNL     1       3.414   5.752  20.352  0.00  0.00    +0.000 HD
ENDROOT
BRANCH   4   7
ATOM      7  C   UNL     1       3.996   5.808  18.363  0.00  0.00    +0.000 A 
ATOM      8  C   UNL     1       4.736   6.618  17.497  0.00  0.00    +0.000 A 
ATOM      9  C   UNL     1       5.319   6.080  16.345  0.00  0.00    +0.000 A 
ATOM     10  C   UNL     1       5.167   4.727  16.057  0.00  0.00    +0.000 A 
ATOM     11 CL   UNL     1       5.842   4.076  14.615  0.00  0.00    +0.000 Cl
ATOM     12  C   UNL     1       4.464   3.901  16.930  0.00  0.00    +0.000 A 
ATOM     13  C   UNL     1       3.889   4.438  18.086  0.00  0.00    +0.000 A 
ENDBRANCH   4   7
BRANCH   3  14
ATOM     14  N   UNL     1       0.849   8.451  20.940  0.00  0.00    +0.000 N 
ATOM     15  C   UNL     1       0.963   9.376  21.958  0.00  0.00    +0.000 C 
ATOM     16  O   UNL     1       1.880   9.351  22.773  0.00  0.00    +0.000 OA
ATOM     17  H   UNL     1       0.315   8.633  20.091  0.00  0.00    +0.000 HD
BRANCH  15  18
ATOM     18  C   UNL     1      -0.083  10.433  22.011  0.00  0.00    +0.000 A 
ATOM     19  C   UNL     1      -0.945  10.558  23.099  0.00  0.00    +0.000 A 
ATOM     20  C   UNL     1      -1.869  11.586  23.077  0.00  0.00    +0.000 A 
ATOM     21  N   UNL     1      -1.981  12.471  22.062  0.00  0.00    +0.000 NA
ATOM     22  C   UNL     1      -1.124  12.334  21.030  0.00  0.00    +0.000 A 
ATOM     23  C   UNL     1      -0.162  11.345  20.957  0.00  0.00    +0.000 A 
ENDBRANCH  15  18
ENDBRANCH   3  14
TORSDOF 3
ENDMDL
MODEL 8
REMARK VINA RESULT:      -6.9      3.715      8.704
REMARK  Name = 
REMARK  3 active torsions:
REMARK  status: ('A' for Active; 'I' for Inactive)
REMARK    1  A    between atoms: N_3  and  N_4
REMARK    2  A    between atoms: C_5  and  C_7
REMARK    3  A    between atoms: N_13  and  C_14
REMARK                            x       y       z     vdW  Elec       q    Type
REMARK                         _______ _______ _______ _____ _____    ______ ____
ROOT
ATOM      1  O   UNL     1       6.959   8.036  17.118  0.00  0.00    +0.000 OA
ATOM      2  C   UNL     1       7.572   7.516  18.047  0.00  0.00    +0.000 C 
ATOM      3  N   UNL     1       8.613   8.178  18.683  0.00  0.00    +0.000 N 
ATOM      4  N   UNL     1       7.302   6.302  18.646  0.00  0.00    +0.000 N 
ATOM      5  H   UNL     1       9.402   7.630  19.022  0.00  0.00    +0.000 HD
ATOM      6  H   UNL     1       7.703   6.182  19.566  0.00  0.00    +0.000 HD
ENDROOT
BRANCH   4   7
ATOM      7  C   UNL     1       6.286   5.400  18.270  0.00  0.00    +0.000 A 
ATOM      8  C   UNL     1       6.225   4.798  17.011  0.00  0.00    +0.000 A 
ATOM      9  C   UNL     1       5.159   3.956  16.676  0.00  0.00    +0.000 A 
ATOM     10  C   UNL     1       4.150   3.711  17.604  0.00  0.00    +0.000 A 
ATOM     11 CL   UNL     1       2.814   2.716  17.175  0.00  0.00    +0.000 Cl
ATOM     12  C   UNL     1       4.217   4.275  18.875  0.00  0.00    +0.000 A 
ATOM     13  C   UNL     1       5.289   5.109  19.211  0.00  0.00    +0.000 A 
ENDBRANCH   4   7
BRANCH   3  14
ATOM     14  N   UNL     1       8.979   9.432  18.149  0.00  0.00    +0.000 N 
ATOM     15  C   UNL     1       9.310  10.438  19.034  0.00  0.00    +0.000 C 
ATOM     16  O   UNL     1       9.240  10.295  20.252  0.00  0.00    +0.000 OA
ATOM     17  H   UNL     1       9.326   9.409  17.191  0.00  0.00    +0.000 HD
BRANCH  15  18
ATOM     18  C   UNL     1       9.782  11.717  18.437  0.00  0.00    +0.000 A 
ATOM     19  C   UNL     1      10.954  11.787  17.686  0.00  0.00    +0.000 A 
ATOM     20  C   UNL     1      11.303  13.011  17.146  0.00  0.00    +0.000 A 
ATOM     21  N   UNL     1      10.573  14.136  17.306  0.00  0.00    +0.000 NA
ATOM     22  C   UNL     1       9.436  14.034  18.025  0.00  0.00    +0.000 A 
ATOM     23  C   UNL     1       8.996  12.858  18.603  0.00  0.00    +0.000 A 
ENDBRANCH  15  18
ENDBRANCH   3  14
TORSDOF 3
ENDMDL
MODEL 9
REMARK VINA RESULT:      -6.9      7.207      9.301
REMARK  Name = 
REMARK  3 active torsions:
REMARK  status: ('A' for Active; 'I' for Inactive)
REMARK    1  A    between atoms: N_3  and  N_4
REMARK    2  A    between atoms: C_5  and  C_7
REMARK    3  A    between atoms: N_13  and  C_14
REMARK                            x       y       z     vdW  Elec       q    Type
REMARK                         _______ _______ _______ _____ _____    ______ ____
ROOT
ATOM      1  O   UNL     1       1.811   7.629  18.625  0.00  0.00    +0.000 OA
ATOM      2  C   UNL     1       2.340   7.116  19.608  0.00  0.00    +0.000 C 
ATOM      3  N   UNL     1       1.919   7.424  20.895  0.00  0.00    +0.000 N 
ATOM      4  N   UNL     1       3.320   6.145  19.614  0.00  0.00    +0.000 N 
ATOM      5  H   UNL     1       2.614   7.454  21.639  0.00  0.00    +0.000 HD
ATOM      6  H   UNL     1       3.410   5.636  20.483  0.00  0.00    +0.000 HD
ENDROOT
BRANCH   4   7
ATOM      7  C   UNL     1       3.935   5.581  18.478  0.00  0.00    +0.000 A 
ATOM      8  C   UNL     1       3.675   4.282  18.033  0.00  0.00    +0.000 A 
ATOM      9  C   UNL     1       4.361   3.758  16.932  0.00  0.00    +0.000 A 
ATOM     10  C   UNL     1       5.308   4.534  16.270  0.00  0.00    +0.000 A 
ATOM     11 CL   UNL     1       6.187   3.872  14.948  0.00  0.00    +0.000 Cl
ATOM     12  C   UNL     1       5.550   5.842  16.680  0.00  0.00    +0.000 A 
ATOM     13  C   UNL     1       4.856   6.368  17.775  0.00  0.00    +0.000 A 
ENDBRANCH   4   7
BRANCH   3  14
ATOM     14  N   UNL     1       0.918   8.413  21.009  0.00  0.00    +0.000 N 
ATOM     15  C   UNL     1       1.058   9.360  22.005  0.00  0.00    +0.000 C 
ATOM     16  O   UNL     1       1.978   9.332  22.817  0.00  0.00    +0.000 OA
ATOM     17  H   UNL     1       0.385   8.588  20.159  0.00  0.00    +0.000 HD
BRANCH  15  18
ATOM     18  C   UNL     1       0.038  10.442  22.036  0.00  0.00    +0.000 A 
ATOM     19  C   UNL     1      -0.078  11.371  21.004  0.00  0.00    +0.000 A 
ATOM     20  C   UNL     1      -1.072  12.327  21.103  0.00  0.00    +0.000 A 
ATOM     21  N   UNL     1      -1.932  12.408  22.142  0.00  0.00    +0.000 NA
ATOM     22  C   UNL     1      -1.805  11.487  23.119  0.00  0.00    +0.000 A 
ATOM     23  C   UNL     1      -0.849  10.489  23.113  0.00  0.00    +0.000 A 
ENDBRANCH  15  18
ENDBRANCH   3  14
TORSDOF 3
ENDMDL
