MODEL 1
REMARK VINA RESULT:      -7.9      0.000      0.000
REMARK  Name = 
REMARK  4 active torsions:
REMARK  status: ('A' for Active; 'I' for Inactive)
REMARK    1  A    between atoms: C_1  and  C_2
REMARK    2  A    between atoms: C_8  and  C_9
REMARK    3  A    between atoms: C_9  and  C_10
REMARK    4  A    between atoms: C_17  and  C_18
REMARK                            x       y       z     vdW  Elec       q    Type
REMARK                         _______ _______ _______ _____ _____    ______ ____
ROOT
ATOM      1  C   UNL     1       1.523  11.205  18.163  0.00  0.00    +0.000 C 
ATOM      2  C   UNL     1       1.230  10.268  19.307  0.00  0.00    +0.000 A 
ATOM      3  C   UNL     1       0.478  10.684  20.353  0.00  0.00    +0.000 A 
ATOM      4  C   UNL     1       0.163   9.820  21.482  0.00  0.00    +0.000 A 
ATOM      5 BR   UNL     1      -0.895  10.498  22.855  0.00  0.00    +0.000 Br
ATOM      6  C   UNL     1       0.646   8.569  21.497  0.00  0.00    +0.000 A 
ATOM      7  N   UNL     1       1.431   8.125  20.435  0.00  0.00    +0.000 N 
ATOM      8  C   UNL     1       2.044   6.896  20.231  0.00  0.00    +0.000 A 
ATOM      9  C   UNL     1       2.649   7.011  18.982  0.00  0.00    +0.000 A 
ATOM     10  N   UNL     1       2.439   8.260  18.450  0.00  0.00    +0.000 NA
ATOM     11  C   UNL     1       1.727   8.920  19.333  0.00  0.00    +0.000 A 
ENDROOT
BRANCH   9  12
ATOM     12  C   UNL     1       3.343   5.982  18.213  0.00  0.00    +0.000 A 
ATOM     13  C   UNL     1       2.591   5.069  17.452  0.00  0.00    +0.000 A 
ATOM     14  C   UNL     1       3.213   4.022  16.762  0.00  0.00    +0.000 A 
ATOM     15  C   UNL     1       4.597   3.874  16.828  0.00  0.00    +0.000 A 
ATOM     16  C   UNL     1       5.350   4.799  17.542  0.00  0.00    +0.000 A 
ATOM     17 CL   UNL     1       7.062   4.633  17.628  0.00  0.00    +0.000 Cl
ATOM     18  C   UNL     1       4.734   5.860  18.207  0.00  0.00    +0.000 A 
ENDBRANCH   9  12
BRANCH   8  19
ATOM     19  C   UNL     1       1.955   5.791  21.239  0.00  0.00    +0.000 C 
BRANCH  19  20
ATOM     20  C   UNL     1       1.916   4.380  20.692  0.00  0.00    +0.000 A 
ATOM     21  C   UNL     1       0.760   3.809  20.138  0.00  0.00    +0.000 A 
ATOM     22  C   UNL     1       0.803   2.556  19.522  0.00  0.00    +0.000 A 
ATOM     23  C   UNL     1       2.005   1.855  19.441  0.00  0.00    +0.000 A 
ATOM     24  C   UNL     1       3.158   2.405  19.993  0.00  0.00    +0.000 A 
ATOM     25 CL   UNL     1       4.648   1.550  19.884  0.00  0.00    +0.000 Cl
ATOM     26  C   UNL     1       3.120   3.655  20.612  0.00  0.00    +0.000 A 
ENDBRANCH  19  20
ENDBRANCH   8  19
TORSDOF 3
ENDMDL
MODEL 2
REMARK VINA RESULT:      -7.6      1.956      4.121
REMARK  Name = 
REMARK  4 active torsions:
REMARK  status: ('A' for Active; 'I' for Inactive)
REMARK    1  A    between atoms: C_1  and  C_2
REMARK    2  A    between atoms: C_8  and  C_9
REMARK    3  A    between atoms: C_9  and  C_10
REMARK    4  A    between atoms: C_17  and  C_18
REMARK                            x       y       z     vdW  Elec       q    Type
REMARK                         _______ _______ _______ _____ _____    ______ ____
ROOT
ATOM      1  C   UNL     1       0.046   8.505  21.648  0.00  0.00    +0.000 C 
ATOM      2  C   UNL     1       0.882   8.912  20.463  0.00  0.00    +0.000 A 
ATOM      3  C   UNL     1       0.984  10.217  20.117  0.00  0.00    +0.000 A 
ATOM      4  C   UNL     1       1.780  10.665  18.984  0.00  0.00    +0.000 A 
ATOM      5 BR   UNL     1       1.859  12.488  18.615  0.00  0.00    +0.000 Br
ATOM      6  C   UNL     1       2.427   9.753  18.242  0.00  0.00    +0.000 A 
ATOM      7  N   UNL     1       2.325   8.404  18.575  0.00  0.00    +0.000 N 
ATOM      8  C   UNL     1       2.885   7.290  17.963  0.00  0.00    +0.000 A 
ATOM      9  C   UNL     1       2.483   6.218  18.756  0.00  0.00    +0.000 A 
ATOM     10  N   UNL     1       1.694   6.648  19.796  0.00  0.00    +0.000 NA
ATOM     11  C   UNL     1       1.593   7.950  19.665  0.00  0.00    +0.000 A 
ENDROOT
BRANCH   9  12
ATOM     12  C   UNL     1       2.870   4.815  18.647  0.00  0.00    +0.000 A 
ATOM     13  C   UNL     1       2.434   4.065  17.540  0.00  0.00    +0.000 A 
ATOM     14  C   UNL     1       2.719   2.700  17.437  0.00  0.00    +0.000 A 
ATOM     15  C   UNL     1       3.443   2.065  18.444  0.00  0.00    +0.000 A 
ATOM     16  C   UNL     1       3.916   2.809  19.519  0.00  0.00    +0.000 A 
ATOM     17 CL   UNL     1       4.817   2.040  20.768  0.00  0.00    +0.000 Cl
ATOM     18  C   UNL     1       3.657   4.177  19.609  0.00  0.00    +0.000 A 
ENDBRANCH   9  12
BRANCH   8  19
ATOM     19  C   UNL     1       3.726   7.405  16.729  0.00  0.00    +0.000 C 
BRANCH  19  20
ATOM     20  C   UNL     1       4.968   6.540  16.677  0.00  0.00    +0.000 A 
ATOM     21  C   UNL     1       5.895   6.473  17.728  0.00  0.00    +0.000 A 
ATOM     22  C   UNL     1       6.953   5.561  17.695  0.00  0.00    +0.000 A 
ATOM     23  C   UNL     1       7.098   4.693  16.614  0.00  0.00    +0.000 A 
ATOM     24  C   UNL     1       6.191   4.753  15.561  0.00  0.00    +0.000 A 
ATOM     25 CL   UNL     1       6.357   3.675  14.229  0.00  0.00    +0.000 Cl
ATOM     26  C   UNL     1       5.134   5.665  15.587  0.00  0.00    +0.000 A 
ENDBRANCH  19  20
ENDBRANCH   8  19
TORSDOF 3
ENDMDL
MODEL 3
REMARK VINA RESULT:      -7.5      1.840      4.058
REMARK  Name = 
REMARK  4 active torsions:
REMARK  status: ('A' for Active; 'I' for Inactive)
REMARK    1  A    between atoms: C_1  and  C_2
REMARK    2  A    between atoms: C_8  and  C_9
REMARK    3  A    between atoms: C_9  and  C_10
REMARK    4  A    between atoms: C_17  and  C_18
REMARK                            x       y       z     vdW  Elec       q    Type
REMARK                         _______ _______ _______ _____ _____    ______ ____
ROOT
ATOM      1  C   UNL     1      -0.057   8.296  21.632  0.00  0.00    +0.000 C 
ATOM      2  C   UNL     1       0.819   8.684  20.469  0.00  0.00    +0.000 A 
ATOM      3  C   UNL     1       0.943   9.984  20.114  0.00  0.00    +0.000 A 
ATOM      4  C   UNL     1       1.777  10.414  19.001  0.00  0.00    +0.000 A 
ATOM      5 BR   UNL     1       1.884  12.232  18.618  0.00  0.00    +0.000 Br
ATOM      6  C   UNL     1       2.437   9.489  18.288  0.00  0.00    +0.000 A 
ATOM      7  N   UNL     1       2.313   8.144  18.630  0.00  0.00    +0.000 N 
ATOM      8  C   UNL     1       2.879   7.019  18.046  0.00  0.00    +0.000 A 
ATOM      9  C   UNL     1       2.444   5.959  18.837  0.00  0.00    +0.000 A 
ATOM     10  N   UNL     1       1.628   6.406  19.848  0.00  0.00    +0.000 NA
ATOM     11  C   UNL     1       1.544   7.708  19.702  0.00  0.00    +0.000 A 
ENDROOT
BRANCH   9  12
ATOM     12  C   UNL     1       2.820   4.551  18.753  0.00  0.00    +0.000 A 
ATOM     13  C   UNL     1       2.321   3.767  17.697  0.00  0.00    +0.000 A 
ATOM     14  C   UNL     1       2.596   2.398  17.623  0.00  0.00    +0.000 A 
ATOM     15  C   UNL     1       3.375   1.793  18.609  0.00  0.00    +0.000 A 
ATOM     16  C   UNL     1       3.908   2.570  19.630  0.00  0.00    +0.000 A 
ATOM     17 CL   UNL     1       4.876   1.839  20.852  0.00  0.00    +0.000 Cl
ATOM     18  C   UNL     1       3.658   3.941  19.689  0.00  0.00    +0.000 A 
ENDBRANCH   9  12
BRANCH   8  19
ATOM     19  C   UNL     1       3.759   7.114  16.837  0.00  0.00    +0.000 C 
BRANCH  19  20
ATOM     20  C   UNL     1       4.958   6.190  16.802  0.00  0.00    +0.000 A 
ATOM     21  C   UNL     1       5.266   5.382  15.697  0.00  0.00    +0.000 A 
ATOM     22  C   UNL     1       6.454   4.649  15.653  0.00  0.00    +0.000 A 
ATOM     23  C   UNL     1       7.361   4.717  16.710  0.00  0.00    +0.000 A 
ATOM     24  C   UNL     1       7.065   5.508  17.815  0.00  0.00    +0.000 A 
ATOM     25 CL   UNL     1       8.187   5.607  19.117  0.00  0.00    +0.000 Cl
ATOM     26  C   UNL     1       5.878   6.240  17.866  0.00  0.00    +0.000 A 
ENDBRANCH  19  20
ENDBRANCH   8  19
TORSDOF 3
ENDMDL
MODEL 4
REMARK VINA RESULT:      -7.4      1.927      4.257
REMARK  Name = 
REMARK  4 active torsions:
REMARK  status: ('A' for Active; 'I' for Inactive)
REMARK    1  A    between atoms: C_1  and  C_2
REMARK    2  A    between atoms: C_8  and  C_9
REMARK    3  A    between atoms: C_9  and  C_10
REMARK    4  A    between atoms: C_17  and  C_18
REMARK                            x       y       z     vdW  Elec       q    Type
REMARK                         _______ _______ _______ _____ _____    ______ ____
ROOT
ATOM      1  C   UNL     1       0.324   9.122  22.279  0.00  0.00    +0.000 C 
ATOM      2  C   UNL     1       0.917   9.408  20.924  0.00  0.00    +0.000 A 
ATOM      3  C   UNL     1       0.847  10.654  20.399  0.00  0.00    +0.000 A 
ATOM      4  C   UNL     1       1.405  10.986  19.095  0.00  0.00    +0.000 A 
ATOM      5 BR   UNL     1       1.263  12.739  18.485  0.00  0.00    +0.000 Br
ATOM      6  C   UNL     1       1.997  10.020  18.377  0.00  0.00    +0.000 A 
ATOM      7  N   UNL     1       2.069   8.728  18.895  0.00  0.00    +0.000 N 
ATOM      8  C   UNL     1       2.615   7.576  18.345  0.00  0.00    +0.000 A 
ATOM      9  C   UNL     1       2.443   6.605  19.328  0.00  0.00    +0.000 A 
ATOM     10  N   UNL     1       1.801   7.128  20.425  0.00  0.00    +0.000 NA
ATOM     11  C   UNL     1       1.568   8.389  20.146  0.00  0.00    +0.000 A 
ENDROOT
BRANCH   9  12
ATOM     12  C   UNL     1       2.927   5.229  19.337  0.00  0.00    +0.000 A 
ATOM     13  C   UNL     1       4.289   4.980  19.584  0.00  0.00    +0.000 A 
ATOM     14  C   UNL     1       4.808   3.682  19.527  0.00  0.00    +0.000 A 
ATOM     15  C   UNL     1       3.969   2.614  19.216  0.00  0.00    +0.000 A 
ATOM     16  C   UNL     1       2.613   2.846  19.014  0.00  0.00    +0.000 A 
ATOM     17 CL   UNL     1       1.562   1.536  18.636  0.00  0.00    +0.000 Cl
ATOM     18  C   UNL     1       2.089   4.136  19.100  0.00  0.00    +0.000 A 
ENDBRANCH   9  12
BRANCH   8  19
ATOM     19  C   UNL     1       3.230   7.567  16.979  0.00  0.00    +0.000 C 
BRANCH  19  20
ATOM     20  C   UNL     1       4.615   6.966  16.867  0.00  0.00    +0.000 A 
ATOM     21  C   UNL     1       5.737   7.509  17.512  0.00  0.00    +0.000 A 
ATOM     22  C   UNL     1       6.966   6.846  17.494  0.00  0.00    +0.000 A 
ATOM     23  C   UNL     1       7.095   5.624  16.836  0.00  0.00    +0.000 A 
ATOM     24  C   UNL     1       5.994   5.077  16.185  0.00  0.00    +0.000 A 
ATOM     25 CL   UNL     1       6.144   3.562  15.382  0.00  0.00    +0.000 Cl
ATOM     26  C   UNL     1       4.764   5.736  16.198  0.00  0.00    +0.000 A 
ENDBRANCH  19  20
ENDBRANCH   8  19
TORSDOF 3
ENDMDL
MODEL 5
REMARK VINA RESULT:      -7.4      1.958      4.345
REMARK  Name = 
REMARK  4 active torsions:
REMARK  status: ('A' for Active; 'I' for Inactive)
REMARK    1  A    between atoms: C_1  and  C_2
REMARK    2  A    between atoms: C_8  and  C_9
REMARK    3  A    between atoms: C_9  and  C_10
REMARK    4  A    between atoms: C_17  and  C_18
REMARK                            x       y       z     vdW  Elec       q    Type
REMARK                         _______ _______ _______ _____ _____    ______ ____
ROOT
ATOM      1  C   UNL     1       0.007   9.135  22.287  0.00  0.00    +0.000 C 
ATOM      2  C   UNL     1       0.663   9.442  20.966  0.00  0.00    +0.000 A 
ATOM      3  C   UNL     1       0.610  10.694  20.454  0.00  0.00    +0.000 A 
ATOM      4  C   UNL     1       1.228  11.046  19.183  0.00  0.00    +0.000 A 
ATOM      5 BR   UNL     1       1.103  12.805  18.588  0.00  0.00    +0.000 Br
ATOM      6  C   UNL     1       1.863  10.094  18.483  0.00  0.00    +0.000 A 
ATOM      7  N   UNL     1       1.919   8.796  18.988  0.00  0.00    +0.000 N 
ATOM      8  C   UNL     1       2.500   7.655  18.452  0.00  0.00    +0.000 A 
ATOM      9  C   UNL     1       2.288   6.670  19.413  0.00  0.00    +0.000 A 
ATOM     10  N   UNL     1       1.589   7.175  20.484  0.00  0.00    +0.000 NA
ATOM     11  C   UNL     1       1.360   8.438  20.209  0.00  0.00    +0.000 A 
ENDROOT
BRANCH   9  12
ATOM     12  C   UNL     1       2.782   5.297  19.429  0.00  0.00    +0.000 A 
ATOM     13  C   UNL     1       4.144   5.060  19.685  0.00  0.00    +0.000 A 
ATOM     14  C   UNL     1       4.672   3.765  19.634  0.00  0.00    +0.000 A 
ATOM     15  C   UNL     1       3.842   2.689  19.323  0.00  0.00    +0.000 A 
ATOM     16  C   UNL     1       2.486   2.911  19.113  0.00  0.00    +0.000 A 
ATOM     17 CL   UNL     1       1.447   1.592  18.734  0.00  0.00    +0.000 Cl
ATOM     18  C   UNL     1       1.953   4.198  19.192  0.00  0.00    +0.000 A 
ENDBRANCH   9  12
BRANCH   8  19
ATOM     19  C   UNL     1       3.182   7.667  17.117  0.00  0.00    +0.000 C 
BRANCH  19  20
ATOM     20  C   UNL     1       4.515   6.954  17.035  0.00  0.00    +0.000 A 
ATOM     21  C   UNL     1       4.714   5.795  16.271  0.00  0.00    +0.000 A 
ATOM     22  C   UNL     1       5.991   5.249  16.115  0.00  0.00    +0.000 A 
ATOM     23  C   UNL     1       7.093   5.858  16.713  0.00  0.00    +0.000 A 
ATOM     24  C   UNL     1       6.910   7.004  17.480  0.00  0.00    +0.000 A 
ATOM     25 CL   UNL     1       8.268   7.768  18.210  0.00  0.00    +0.000 Cl
ATOM     26  C   UNL     1       5.636   7.552  17.642  0.00  0.00    +0.000 A 
ENDBRANCH  19  20
ENDBRANCH   8  19
TORSDOF 3
ENDMDL
MODEL 6
REMARK VINA RESULT:      -7.1      1.570      4.055
REMARK  Name = 
REMARK  4 active torsions:
REMARK  status: ('A' for Active; 'I' for Inactive)
REMARK    1  A    between atoms: C_1  and  C_2
REMARK    2  A    between atoms: C_8  and  C_9
REMARK    3  A    between atoms: C_9  and  C_10
REMARK    4  A    between atoms: C_17  and  C_18
REMARK                            x       y       z     vdW  Elec       q    Type
REMARK                         _______ _______ _______ _____ _____    ______ ____
ROOT
ATOM      1  C   UNL     1       0.204   9.522  22.894  0.00  0.00    +0.000 C 
ATOM      2  C   UNL     1       0.756   9.608  21.495  0.00  0.00    +0.000 A 
ATOM      3  C   UNL     1       0.866  10.809  20.878  0.00  0.00    +0.000 A 
ATOM      4  C   UNL     1       1.395  10.949  19.529  0.00  0.00    +0.000 A 
ATOM      5 BR   UNL     1       1.514  12.654  18.791  0.00  0.00    +0.000 Br
ATOM      6  C   UNL     1       1.775   9.849  18.862  0.00  0.00    +0.000 A 
ATOM      7  N   UNL     1       1.659   8.603  19.475  0.00  0.00    +0.000 N 
ATOM      8  C   UNL     1       1.972   7.339  18.992  0.00  0.00    +0.000 A 
ATOM      9  C   UNL     1       1.697   6.482  20.055  0.00  0.00    +0.000 A 
ATOM     10  N   UNL     1       1.216   7.181  21.135  0.00  0.00    +0.000 NA
ATOM     11  C   UNL     1       1.181   8.442  20.770  0.00  0.00    +0.000 A 
ENDROOT
BRANCH   9  12
ATOM     12  C   UNL     1       1.943   5.047  20.149  0.00  0.00    +0.000 A 
ATOM     13  C   UNL     1       0.857   4.174  20.340  0.00  0.00    +0.000 A 
ATOM     14  C   UNL     1       1.059   2.800  20.511  0.00  0.00    +0.000 A 
ATOM     15  C   UNL     1       2.352   2.281  20.496  0.00  0.00    +0.000 A 
ATOM     16  C   UNL     1       3.426   3.132  20.263  0.00  0.00    +0.000 A 
ATOM     17 CL   UNL     1       5.030   2.505  20.235  0.00  0.00    +0.000 Cl
ATOM     18  C   UNL     1       3.225   4.498  20.063  0.00  0.00    +0.000 A 
ENDBRANCH   9  12
BRANCH   8  19
ATOM     19  C   UNL     1       2.497   7.130  17.604  0.00  0.00    +0.000 C 
BRANCH  19  20
ATOM     20  C   UNL     1       3.851   6.463  17.489  0.00  0.00    +0.000 A 
ATOM     21  C   UNL     1       4.011   5.122  17.108  0.00  0.00    +0.000 A 
ATOM     22  C   UNL     1       5.281   4.587  16.882  0.00  0.00    +0.000 A 
ATOM     23  C   UNL     1       6.415   5.385  17.026  0.00  0.00    +0.000 A 
ATOM     24  C   UNL     1       6.273   6.714  17.412  0.00  0.00    +0.000 A 
ATOM     25 CL   UNL     1       7.668   7.708  17.578  0.00  0.00    +0.000 Cl
ATOM     26  C   UNL     1       5.006   7.253  17.641  0.00  0.00    +0.000 A 
ENDBRANCH  19  20
ENDBRANCH   8  19
TORSDOF 3
ENDMDL
MODEL 7
REMARK VINA RESULT:      -7.1      1.686      4.156
REMARK  Name = 
REMARK  4 active torsions:
REMARK  status: ('A' for Active; 'I' for Inactive)
REMARK    1  A    between atoms: C_1  and  C_2
REMARK    2  A    between atoms: C_8  and  C_9
REMARK    3  A    between atoms: C_9  and  C_10
REMARK    4  A    between atoms: C_17  and  C_18
REMARK                            x       y       z     vdW  Elec       q    Type
REMARK                         _______ _______ _______ _____ _____    ______ ____
ROOT
ATOM      1  C   UNL     1      -0.020   9.804  22.884  0.00  0.00    +0.000 C 
ATOM      2  C   UNL     1       0.600   9.821  21.511  0.00  0.00    +0.000 A 
ATOM      3  C   UNL     1       0.790  10.995  20.864  0.00  0.00    +0.000 A 
ATOM      4  C   UNL     1       1.386  11.069  19.537  0.00  0.00    +0.000 A 
ATOM      5 BR   UNL     1       1.612  12.742  18.754  0.00  0.00    +0.000 Br
ATOM      6  C   UNL     1       1.748   9.933  18.923  0.00  0.00    +0.000 A 
ATOM      7  N   UNL     1       1.551   8.713  19.568  0.00  0.00    +0.000 N 
ATOM      8  C   UNL     1       1.830   7.423  19.140  0.00  0.00    +0.000 A 
ATOM      9  C   UNL     1       1.470   6.613  20.214  0.00  0.00    +0.000 A 
ATOM     10  N   UNL     1       0.971   7.367  21.248  0.00  0.00    +0.000 NA
ATOM     11  C   UNL     1       1.007   8.615  20.843  0.00  0.00    +0.000 A 
ENDROOT
BRANCH   9  12
ATOM     12  C   UNL     1       1.649   5.172  20.363  0.00  0.00    +0.000 A 
ATOM     13  C   UNL     1       2.515   4.688  21.360  0.00  0.00    +0.000 A 
ATOM     14  C   UNL     1       2.774   3.318  21.487  0.00  0.00    +0.000 A 
ATOM     15  C   UNL     1       2.170   2.415  20.614  0.00  0.00    +0.000 A 
ATOM     16  C   UNL     1       1.279   2.883  19.655  0.00  0.00    +0.000 A 
ATOM     17 CL   UNL     1       0.520   1.779  18.573  0.00  0.00    +0.000 Cl
ATOM     18  C   UNL     1       0.998   4.246  19.546  0.00  0.00    +0.000 A 
ENDBRANCH   9  12
BRANCH   8  19
ATOM     19  C   UNL     1       2.409   7.147  17.785  0.00  0.00    +0.000 C 
BRANCH  19  20
ATOM     20  C   UNL     1       3.646   6.274  17.746  0.00  0.00    +0.000 A 
ATOM     21  C   UNL     1       3.599   4.896  17.483  0.00  0.00    +0.000 A 
ATOM     22  C   UNL     1       4.772   4.156  17.321  0.00  0.00    +0.000 A 
ATOM     23  C   UNL     1       6.015   4.782  17.412  0.00  0.00    +0.000 A 
ATOM     24  C   UNL     1       6.077   6.145  17.681  0.00  0.00    +0.000 A 
ATOM     25 CL   UNL     1       7.608   6.926  17.780  0.00  0.00    +0.000 Cl
ATOM     26  C   UNL     1       4.908   6.889  17.846  0.00  0.00    +0.000 A 
ENDBRANCH  19  20
ENDBRANCH   8  19
TORSDOF 3
ENDMDL
MODEL 8
REMARK VINA RESULT:      -7.0      1.765      4.028
REMARK  Name = 
REMARK  4 active torsions:
REMARK  status: ('A' for Active; 'I' for Inactive)
REMARK    1  A    between atoms: C_1  and  C_2
REMARK    2  A    between atoms: C_8  and  C_9
REMARK    3  A    between atoms: C_9  and  C_10
REMARK    4  A    between atoms: C_17  and  C_18
REMARK                            x       y       z     vdW  Elec       q    Type
REMARK                         _______ _______ _______ _____ _____    ______ ____
ROOT
ATOM      1  C   UNL     1      -0.129   9.522  22.425  0.00  0.00    +0.000 C 
ATOM      2  C   UNL     1       0.638   9.612  21.131  0.00  0.00    +0.000 A 
ATOM      3  C   UNL     1       0.833  10.813  20.538  0.00  0.00    +0.000 A 
ATOM      4  C   UNL     1       1.568  10.957  19.289  0.00  0.00    +0.000 A 
ATOM      5 BR   UNL     1       1.788  12.662  18.576  0.00  0.00    +0.000 Br
ATOM      6  C   UNL     1       2.059   9.860  18.693  0.00  0.00    +0.000 A 
ATOM      7  N   UNL     1       1.858   8.613  19.282  0.00  0.00    +0.000 N 
ATOM      8  C   UNL     1       2.254   7.352  18.858  0.00  0.00    +0.000 A 
ATOM      9  C   UNL     1       1.821   6.493  19.865  0.00  0.00    +0.000 A 
ATOM     10  N   UNL     1       1.169   7.189  20.854  0.00  0.00    +0.000 NA
ATOM     11  C   UNL     1       1.182   8.449  20.486  0.00  0.00    +0.000 A 
ENDROOT
BRANCH   9  12
ATOM     12  C   UNL     1       2.062   5.060  20.000  0.00  0.00    +0.000 A 
ATOM     13  C   UNL     1       2.251   4.512  21.281  0.00  0.00    +0.000 A 
ATOM     14  C   UNL     1       2.560   3.158  21.448  0.00  0.00    +0.000 A 
ATOM     15  C   UNL     1       2.686   2.333  20.332  0.00  0.00    +0.000 A 
ATOM     16  C   UNL     1       2.457   2.858  19.065  0.00  0.00    +0.000 A 
ATOM     17 CL   UNL     1       2.603   1.851  17.677  0.00  0.00    +0.000 Cl
ATOM     18  C   UNL     1       2.120   4.202  18.899  0.00  0.00    +0.000 A 
ENDBRANCH   9  12
BRANCH   8  19
ATOM     19  C   UNL     1       2.994   7.147  17.571  0.00  0.00    +0.000 C 
BRANCH  19  20
ATOM     20  C   UNL     1       4.309   6.401  17.661  0.00  0.00    +0.000 A 
ATOM     21  C   UNL     1       4.966   6.159  18.877  0.00  0.00    +0.000 A 
ATOM     22  C   UNL     1       6.105   5.351  18.928  0.00  0.00    +0.000 A 
ATOM     23  C   UNL     1       6.602   4.764  17.766  0.00  0.00    +0.000 A 
ATOM     24  C   UNL     1       5.965   5.001  16.552  0.00  0.00    +0.000 A 
ATOM     25 CL   UNL     1       6.566   4.268  15.115  0.00  0.00    +0.000 Cl
ATOM     26  C   UNL     1       4.829   5.810  16.495  0.00  0.00    +0.000 A 
ENDBRANCH  19  20
ENDBRANCH   8  19
TORSDOF 3
ENDMDL
MODEL 9
REMARK VINA RESULT:      -7.0      6.209      9.704
REMARK  Name = 
REMARK  4 active torsions:
REMARK  status: ('A' for Active; 'I' for Inactive)
REMARK    1  A    between atoms: C_1  and  C_2
REMARK    2  A    between atoms: C_8  and  C_9
REMARK    3  A    between atoms: C_9  and  C_10
REMARK    4  A    between atoms: C_17  and  C_18
REMARK                            x       y       z     vdW  Elec       q    Type
REMARK                         _______ _______ _______ _____ _____    ______ ____
ROOT
ATOM      1  C   UNL     1      -6.986  11.846  18.386  0.00  0.00    +0.000 C 
ATOM      2  C   UNL     1      -5.492  11.726  18.237  0.00  0.00    +0.000 A 
ATOM      3  C   UNL     1      -4.960  11.190  17.113  0.00  0.00    +0.000 A 
ATOM      4  C   UNL     1      -3.524  11.053  16.916  0.00  0.00    +0.000 A 
ATOM      5 BR   UNL     1      -2.909  10.316  15.321  0.00  0.00    +0.000 Br
ATOM      6  C   UNL     1      -2.693  11.457  17.888  0.00  0.00    +0.000 A 
ATOM      7  N   UNL     1      -3.221  12.001  19.058  0.00  0.00    +0.000 N 
ATOM      8  C   UNL     1      -2.575  12.474  20.192  0.00  0.00    +0.000 A 
ATOM      9  C   UNL     1      -3.602  12.939  21.010  0.00  0.00    +0.000 A 
ATOM     10  N   UNL     1      -4.826  12.743  20.417  0.00  0.00    +0.000 NA
ATOM     11  C   UNL     1      -4.586  12.166  19.262  0.00  0.00    +0.000 A 
ENDROOT
BRANCH   9  12
ATOM     12  C   UNL     1      -3.498  13.644  22.284  0.00  0.00    +0.000 A 
ATOM     13  C   UNL     1      -3.780  12.953  23.476  0.00  0.00    +0.000 A 
ATOM     14  C   UNL     1      -3.766  13.610  24.711  0.00  0.00    +0.000 A 
ATOM     15  C   UNL     1      -3.471  14.971  24.768  0.00  0.00    +0.000 A 
ATOM     16  C   UNL     1      -3.148  15.650  23.599  0.00  0.00    +0.000 A 
ATOM     17 CL   UNL     1      -2.776  17.330  23.654  0.00  0.00    +0.000 Cl
ATOM     18  C   UNL     1      -3.133  14.989  22.370  0.00  0.00    +0.000 A 
ENDBRANCH   9  12
BRANCH   8  19
ATOM     19  C   UNL     1      -1.084  12.428  20.331  0.00  0.00    +0.000 C 
BRANCH  19  20
ATOM     20  C   UNL     1      -0.519  11.302  21.170  0.00  0.00    +0.000 A 
ATOM     21  C   UNL     1      -0.838  11.126  22.525  0.00  0.00    +0.000 A 
ATOM     22  C   UNL     1      -0.403   9.998  23.224  0.00  0.00    +0.000 A 
ATOM     23  C   UNL     1       0.352   9.020  22.579  0.00  0.00    +0.000 A 
ATOM     24  C   UNL     1       0.684   9.185  21.238  0.00  0.00    +0.000 A 
ATOM     25 CL   UNL     1       1.605   7.974  20.432  0.00  0.00    +0.000 Cl
ATOM     26  C   UNL     1       0.254  10.311  20.535  0.00  0.00    +0.000 A 
ENDBRANCH  19  20
ENDBRANCH   8  19
TORSDOF 3
ENDMDL
