MODEL 1
REMARK VINA RESULT:      -7.3      0.000      0.000
REMARK  Name = 
REMARK  9 active torsions:
REMARK  status: ('A' for Active; 'I' for Inactive)
REMARK    1  A    between atoms: C_1  and  C_2
REMARK    2  A    between atoms: C_5  and  C_6
REMARK    3  A    between atoms: C_7  and  C_8
REMARK    4  A    between atoms: C_8  and  C_9
REMARK    5  A    between atoms: N_11  and  C_12
REMARK    6  A    between atoms: C_12  and  C_13
REMARK    7  A    between atoms: C_12  and  C_18
REMARK    8  A    between atoms: C_18  and  C_19
REMARK    9  A    between atoms: C_18  and  C_20
REMARK                            x       y       z     vdW  Elec       q    Type
REMARK                         _______ _______ _______ _____ _____    ______ ____
ROOT
ATOM      1  C   UNL     1       4.229   5.927  18.626  0.00  0.00    +0.000 C 
ATOM      2  O   UNL     1       3.596   6.903  18.223  0.00  0.00    +0.000 OA
ATOM      3  N   UNL     1       5.499   5.639  18.178  0.00  0.00    +0.000 N 
ATOM      4  H   UNL     1       5.879   4.719  18.356  0.00  0.00    +0.000 HD
ENDROOT
BRANCH   1   5
ATOM      5  C   UNL     1       3.661   4.920  19.623  0.00  0.00    +0.000 C 
BRANCH   5  12
ATOM      6  C   UNL     1       4.811   1.943  20.376  0.00  0.00    +0.000 C 
ATOM      7  C   UNL     1       3.781   2.305  19.370  0.00  0.00    +0.000 A 
ATOM      8  N   UNL     1       3.169   1.332  18.685  0.00  0.00    +0.000 NA
ATOM      9  N   UNL     1       2.267   1.972  17.938  0.00  0.00    +0.000 N 
ATOM     10  C   UNL     1       2.269   3.329  18.112  0.00  0.00    +0.000 A 
ATOM     11  C   UNL     1       1.284   4.188  17.413  0.00  0.00    +0.000 C 
ATOM     12  C   UNL     1       3.277   3.598  19.029  0.00  0.00    +0.000 A 
ATOM     13  H   UNL     1       1.656   1.416  17.348  0.00  0.00    +0.000 HD
ENDBRANCH   5  12
ENDBRANCH   1   5
BRANCH   3  14
ATOM     14  C   UNL     1       6.179   6.423  17.150  0.00  0.00    +0.000 C 
BRANCH  14  15
ATOM     15  C   UNL     1       6.205   5.582  15.900  0.00  0.00    +0.000 A 
ATOM     16  N   UNL     1       5.238   4.817  15.423  0.00  0.00    +0.000 NA
ATOM     17  C   UNL     1       5.752   4.221  14.302  0.00  0.00    +0.000 A 
ATOM     18  C   UNL     1       7.036   4.649  14.067  0.00  0.00    +0.000 A 
ATOM     19  N   UNL     1       7.308   5.531  15.078  0.00  0.00    +0.000 N 
ATOM     20  H   UNL     1       8.157   6.066  15.205  0.00  0.00    +0.000 HD
ENDBRANCH  14  15
BRANCH  14  21
ATOM     21  C   UNL     1       7.606   6.805  17.629  0.00  0.00    +0.000 C 
ATOM     22  C   UNL     1       7.823   8.321  17.718  0.00  0.00    +0.000 C 
ATOM     23  C   UNL     1       7.906   6.181  18.999  0.00  0.00    +0.000 C 
ENDBRANCH  14  21
ENDBRANCH   3  14
TORSDOF 5
ENDMDL
MODEL 2
REMARK VINA RESULT:      -7.2      0.223      1.826
REMARK  Name = 
REMARK  9 active torsions:
REMARK  status: ('A' for Active; 'I' for Inactive)
REMARK    1  A    between atoms: C_1  and  C_2
REMARK    2  A    between atoms: C_5  and  C_6
REMARK    3  A    between atoms: C_7  and  C_8
REMARK    4  A    between atoms: C_8  and  C_9
REMARK    5  A    between atoms: N_11  and  C_12
REMARK    6  A    between atoms: C_12  and  C_13
REMARK    7  A    between atoms: C_12  and  C_18
REMARK    8  A    between atoms: C_18  and  C_19
REMARK    9  A    between atoms: C_18  and  C_20
REMARK                            x       y       z     vdW  Elec       q    Type
REMARK                         _______ _______ _______ _____ _____    ______ ____
ROOT
ATOM      1  C   UNL     1       4.183   5.950  18.677  0.00  0.00    +0.000 C 
ATOM      2  O   UNL     1       3.562   6.906  18.212  0.00  0.00    +0.000 OA
ATOM      3  N   UNL     1       5.464   5.641  18.277  0.00  0.00    +0.000 N 
ATOM      4  H   UNL     1       5.838   4.730  18.509  0.00  0.00    +0.000 HD
ENDROOT
BRANCH   1   5
ATOM      5  C   UNL     1       3.587   4.991  19.704  0.00  0.00    +0.000 C 
BRANCH   5  12
ATOM      6  C   UNL     1       1.235   4.499  17.473  0.00  0.00    +0.000 C 
ATOM      7  C   UNL     1       2.077   3.489  18.162  0.00  0.00    +0.000 A 
ATOM      8  N   UNL     1       1.943   2.198  17.837  0.00  0.00    +0.000 NA
ATOM      9  N   UNL     1       2.875   1.577  18.562  0.00  0.00    +0.000 N 
ATOM     10  C   UNL     1       3.613   2.418  19.349  0.00  0.00    +0.000 A 
ATOM     11  C   UNL     1       4.738   1.903  20.166  0.00  0.00    +0.000 C 
ATOM     12  C   UNL     1       3.099   3.690  19.139  0.00  0.00    +0.000 A 
ATOM     13  H   UNL     1       2.976   0.573  18.450  0.00  0.00    +0.000 HD
ENDBRANCH   5  12
ENDBRANCH   1   5
BRANCH   3  14
ATOM     14  C   UNL     1       6.173   6.376  17.232  0.00  0.00    +0.000 C 
BRANCH  14  15
ATOM     15  C   UNL     1       6.169   5.505  16.002  0.00  0.00    +0.000 A 
ATOM     16  N   UNL     1       5.285   4.579  15.673  0.00  0.00    +0.000 NA
ATOM     17  C   UNL     1       5.736   4.033  14.501  0.00  0.00    +0.000 A 
ATOM     18  C   UNL     1       6.889   4.652  14.085  0.00  0.00    +0.000 A 
ATOM     19  N   UNL     1       7.146   5.602  15.037  0.00  0.00    +0.000 N 
ATOM     20  H   UNL     1       7.906   6.271  15.039  0.00  0.00    +0.000 HD
ENDBRANCH  14  15
BRANCH  14  21
ATOM     21  C   UNL     1       7.612   6.717  17.705  0.00  0.00    +0.000 C 
ATOM     22  C   UNL     1       7.877   8.226  17.777  0.00  0.00    +0.000 C 
ATOM     23  C   UNL     1       7.895   6.097  19.080  0.00  0.00    +0.000 C 
ENDBRANCH  14  21
ENDBRANCH   3  14
TORSDOF 5
ENDMDL
MODEL 3
REMARK VINA RESULT:      -7.1      1.330      1.665
REMARK  Name = 
REMARK  9 active torsions:
REMARK  status: ('A' for Active; 'I' for Inactive)
REMARK    1  A    between atoms: C_1  and  C_2
REMARK    2  A    between atoms: C_5  and  C_6
REMARK    3  A    between atoms: C_7  and  C_8
REMARK    4  A    between atoms: C_8  and  C_9
REMARK    5  A    between atoms: N_11  and  C_12
REMARK    6  A    between atoms: C_12  and  C_13
REMARK    7  A    between atoms: C_12  and  C_18
REMARK    8  A    between atoms: C_18  and  C_19
REMARK    9  A    between atoms: C_18  and  C_20
REMARK                            x       y       z     vdW  Elec       q    Type
REMARK                         _______ _______ _______ _____ _____    ______ ____
ROOT
ATOM      1  C   UNL     1       4.757   4.733  18.924  0.00  0.00    +0.000 C 
ATOM      2  O   UNL     1       4.131   5.784  19.059  0.00  0.00    +0.000 OA
ATOM      3  N   UNL     1       5.852   4.631  18.095  0.00  0.00    +0.000 N 
ATOM      4  H   UNL     1       6.184   3.709  17.842  0.00  0.00    +0.000 HD
ENDROOT
BRANCH   1   5
ATOM      5  C   UNL     1       4.364   3.434  19.624  0.00  0.00    +0.000 C 
BRANCH   5  12
ATOM      6  C   UNL     1       2.076   3.038  21.939  0.00  0.00    +0.000 C 
ATOM      7  C   UNL     1       1.936   2.877  20.470  0.00  0.00    +0.000 A 
ATOM      8  N   UNL     1       0.736   2.583  19.957  0.00  0.00    +0.000 NA
ATOM      9  N   UNL     1       0.932   2.585  18.637  0.00  0.00    +0.000 N 
ATOM     10  C   UNL     1       2.219   2.870  18.270  0.00  0.00    +0.000 A 
ATOM     11  C   UNL     1       2.595   2.983  16.841  0.00  0.00    +0.000 C 
ATOM     12  C   UNL     1       2.927   3.041  19.453  0.00  0.00    +0.000 A 
ATOM     13  H   UNL     1       0.132   2.411  18.036  0.00  0.00    +0.000 HD
ENDBRANCH   5  12
ENDBRANCH   1   5
BRANCH   3  14
ATOM     14  C   UNL     1       6.327   5.732  17.262  0.00  0.00    +0.000 C 
BRANCH  14  15
ATOM     15  C   UNL     1       6.488   5.191  15.865  0.00  0.00    +0.000 A 
ATOM     16  N   UNL     1       7.453   5.459  15.002  0.00  0.00    +0.000 NA
ATOM     17  C   UNL     1       7.136   4.771  13.861  0.00  0.00    +0.000 A 
ATOM     18  C   UNL     1       5.983   4.044  14.034  0.00  0.00    +0.000 A 
ATOM     19  N   UNL     1       5.589   4.302  15.319  0.00  0.00    +0.000 N 
ATOM     20  H   UNL     1       4.791   3.908  15.801  0.00  0.00    +0.000 HD
ENDBRANCH  14  15
BRANCH  14  21
ATOM     21  C   UNL     1       7.659   6.292  17.830  0.00  0.00    +0.000 C 
ATOM     22  C   UNL     1       7.737   7.824  17.777  0.00  0.00    +0.000 C 
ATOM     23  C   UNL     1       7.867   5.837  19.281  0.00  0.00    +0.000 C 
ENDBRANCH  14  21
ENDBRANCH   3  14
TORSDOF 5
ENDMDL
MODEL 4
REMARK VINA RESULT:      -7.1      1.156      1.621
REMARK  Name = 
REMARK  9 active torsions:
REMARK  status: ('A' for Active; 'I' for Inactive)
REMARK    1  A    between atoms: C_1  and  C_2
REMARK    2  A    between atoms: C_5  and  C_6
REMARK    3  A    between atoms: C_7  and  C_8
REMARK    4  A    between atoms: C_8  and  C_9
REMARK    5  A    between atoms: N_11  and  C_12
REMARK    6  A    between atoms: C_12  and  C_13
REMARK    7  A    between atoms: C_12  and  C_18
REMARK    8  A    between atoms: C_18  and  C_19
REMARK    9  A    between atoms: C_18  and  C_20
REMARK                            x       y       z     vdW  Elec       q    Type
REMARK                         _______ _______ _______ _____ _____    ______ ____
ROOT
ATOM      1  C   UNL     1       4.469   5.394  18.582  0.00  0.00    +0.000 C 
ATOM      2  O   UNL     1       3.606   6.092  18.048  0.00  0.00    +0.000 OA
ATOM      3  N   UNL     1       5.802   5.491  18.251  0.00  0.00    +0.000 N 
ATOM      4  H   UNL     1       6.428   4.752  18.540  0.00  0.00    +0.000 HD
ENDROOT
BRANCH   1   5
ATOM      5  C   UNL     1       4.147   4.329  19.627  0.00  0.00    +0.000 C 
BRANCH   5  12
ATOM      6  C   UNL     1       3.427   1.410  18.319  0.00  0.00    +0.000 C 
ATOM      7  C   UNL     1       2.500   2.410  18.907  0.00  0.00    +0.000 A 
ATOM      8  N   UNL     1       1.196   2.120  18.990  0.00  0.00    +0.000 NA
ATOM      9  N   UNL     1       0.665   3.169  19.622  0.00  0.00    +0.000 N 
ATOM     10  C   UNL     1       1.577   4.133  19.955  0.00  0.00    +0.000 A 
ATOM     11  C   UNL     1       1.170   5.333  20.724  0.00  0.00    +0.000 C 
ATOM     12  C   UNL     1       2.801   3.686  19.474  0.00  0.00    +0.000 A 
ATOM     13  H   UNL     1      -0.330   3.151  19.824  0.00  0.00    +0.000 HD
ENDBRANCH   5  12
ENDBRANCH   1   5
BRANCH   3  14
ATOM     14  C   UNL     1       6.301   6.378  17.203  0.00  0.00    +0.000 C 
BRANCH  14  15
ATOM     15  C   UNL     1       6.366   5.569  15.934  0.00  0.00    +0.000 A 
ATOM     16  N   UNL     1       7.404   5.411  15.130  0.00  0.00    +0.000 NA
ATOM     17  C   UNL     1       6.958   4.636  14.093  0.00  0.00    +0.000 A 
ATOM     18  C   UNL     1       5.643   4.283  14.277  0.00  0.00    +0.000 A 
ATOM     19  N   UNL     1       5.281   4.865  15.462  0.00  0.00    +0.000 N 
ATOM     20  H   UNL     1       4.385   4.790  15.927  0.00  0.00    +0.000 HD
ENDBRANCH  14  15
BRANCH  14  21
ATOM     21  C   UNL     1       7.687   6.949  17.606  0.00  0.00    +0.000 C 
ATOM     22  C   UNL     1       7.717   8.482  17.641  0.00  0.00    +0.000 C 
ATOM     23  C   UNL     1       8.120   6.413  18.977  0.00  0.00    +0.000 C 
ENDBRANCH  14  21
ENDBRANCH   3  14
TORSDOF 5
ENDMDL
MODEL 5
REMARK VINA RESULT:      -7.1      2.207      3.874
REMARK  Name = 
REMARK  9 active torsions:
REMARK  status: ('A' for Active; 'I' for Inactive)
REMARK    1  A    between atoms: C_1  and  C_2
REMARK    2  A    between atoms: C_5  and  C_6
REMARK    3  A    between atoms: C_7  and  C_8
REMARK    4  A    between atoms: C_8  and  C_9
REMARK    5  A    between atoms: N_11  and  C_12
REMARK    6  A    between atoms: C_12  and  C_13
REMARK    7  A    between atoms: C_12  and  C_18
REMARK    8  A    between atoms: C_18  and  C_19
REMARK    9  A    between atoms: C_18  and  C_20
REMARK                            x       y       z     vdW  Elec       q    Type
REMARK                         _______ _______ _______ _____ _____    ______ ____
ROOT
ATOM      1  C   UNL     1       3.774   3.751  17.479  0.00  0.00    +0.000 C 
ATOM      2  O   UNL     1       4.415   2.988  18.203  0.00  0.00    +0.000 OA
ATOM      3  N   UNL     1       4.336   4.367  16.384  0.00  0.00    +0.000 N 
ATOM      4  H   UNL     1       3.849   5.149  15.965  0.00  0.00    +0.000 HD
ENDROOT
BRANCH   1   5
ATOM      5  C   UNL     1       2.317   4.121  17.743  0.00  0.00    +0.000 C 
BRANCH   5  12
ATOM      6  C   UNL     1       1.184   3.488  20.754  0.00  0.00    +0.000 C 
ATOM      7  C   UNL     1       1.621   4.790  20.190  0.00  0.00    +0.000 A 
ATOM      8  N   UNL     1       1.625   5.872  20.976  0.00  0.00    +0.000 NA
ATOM      9  N   UNL     1       2.132   6.837  20.206  0.00  0.00    +0.000 N 
ATOM     10  C   UNL     1       2.460   6.421  18.944  0.00  0.00    +0.000 A 
ATOM     11  C   UNL     1       3.101   7.347  17.981  0.00  0.00    +0.000 C 
ATOM     12  C   UNL     1       2.110   5.079  18.879  0.00  0.00    +0.000 A 
ATOM     13  H   UNL     1       2.257   7.758  20.615  0.00  0.00    +0.000 HD
ENDBRANCH   5  12
ENDBRANCH   1   5
BRANCH   3  14
ATOM     14  C   UNL     1       5.743   4.222  16.020  0.00  0.00    +0.000 C 
BRANCH  14  15
ATOM     15  C   UNL     1       6.543   4.995  17.036  0.00  0.00    +0.000 A 
ATOM     16  N   UNL     1       6.644   6.308  17.152  0.00  0.00    +0.000 NA
ATOM     17  C   UNL     1       7.518   6.525  18.185  0.00  0.00    +0.000 A 
ATOM     18  C   UNL     1       7.931   5.335  18.733  0.00  0.00    +0.000 A 
ATOM     19  N   UNL     1       7.289   4.368  18.008  0.00  0.00    +0.000 N 
ATOM     20  H   UNL     1       7.335   3.367  18.155  0.00  0.00    +0.000 HD
ENDBRANCH  14  15
BRANCH  14  21
ATOM     21  C   UNL     1       5.975   4.739  14.574  0.00  0.00    +0.000 C 
ATOM     22  C   UNL     1       7.460   4.906  14.228  0.00  0.00    +0.000 C 
ATOM     23  C   UNL     1       5.330   3.797  13.548  0.00  0.00    +0.000 C 
ENDBRANCH  14  21
ENDBRANCH   3  14
TORSDOF 5
ENDMDL
MODEL 6
REMARK VINA RESULT:      -7.1      1.594      2.079
REMARK  Name = 
REMARK  9 active torsions:
REMARK  status: ('A' for Active; 'I' for Inactive)
REMARK    1  A    between atoms: C_1  and  C_2
REMARK    2  A    between atoms: C_5  and  C_6
REMARK    3  A    between atoms: C_7  and  C_8
REMARK    4  A    between atoms: C_8  and  C_9
REMARK    5  A    between atoms: N_11  and  C_12
REMARK    6  A    between atoms: C_12  and  C_13
REMARK    7  A    between atoms: C_12  and  C_18
REMARK    8  A    between atoms: C_18  and  C_19
REMARK    9  A    between atoms: C_18  and  C_20
REMARK                            x       y       z     vdW  Elec       q    Type
REMARK                         _______ _______ _______ _____ _____    ______ ____
ROOT
ATOM      1  C   UNL     1       3.506   5.759  17.614  0.00  0.00    +0.000 C 
ATOM      2  O   UNL     1       3.425   6.987  17.663  0.00  0.00    +0.000 OA
ATOM      3  N   UNL     1       4.667   5.113  17.251  0.00  0.00    +0.000 N 
ATOM      4  H   UNL     1       4.619   4.133  17.004  0.00  0.00    +0.000 HD
ENDROOT
BRANCH   1   5
ATOM      5  C   UNL     1       2.326   4.835  17.906  0.00  0.00    +0.000 C 
BRANCH   5  12
ATOM      6  C   UNL     1       3.322   1.855  18.843  0.00  0.00    +0.000 C 
ATOM      7  C   UNL     1       2.762   2.945  19.682  0.00  0.00    +0.000 A 
ATOM      8  N   UNL     1       2.674   2.770  21.005  0.00  0.00    +0.000 NA
ATOM      9  N   UNL     1       2.213   3.936  21.463  0.00  0.00    +0.000 N 
ATOM     10  C   UNL     1       1.998   4.866  20.483  0.00  0.00    +0.000 A 
ATOM     11  C   UNL     1       1.554   6.239  20.823  0.00  0.00    +0.000 C 
ATOM     12  C   UNL     1       2.319   4.244  19.284  0.00  0.00    +0.000 A 
ATOM     13  H   UNL     1       2.095   4.041  22.465  0.00  0.00    +0.000 HD
ENDBRANCH   5  12
ENDBRANCH   1   5
BRANCH   3  14
ATOM     14  C   UNL     1       5.877   5.819  16.838  0.00  0.00    +0.000 C 
BRANCH  14  15
ATOM     15  C   UNL     1       6.308   5.220  15.524  0.00  0.00    +0.000 A 
ATOM     16  N   UNL     1       7.387   5.515  14.819  0.00  0.00    +0.000 NA
ATOM     17  C   UNL     1       7.315   4.749  13.686  0.00  0.00    +0.000 A 
ATOM     18  C   UNL     1       6.199   3.948  13.710  0.00  0.00    +0.000 A 
ATOM     19  N   UNL     1       5.576   4.241  14.893  0.00  0.00    +0.000 N 
ATOM     20  H   UNL     1       4.733   3.814  15.258  0.00  0.00    +0.000 HD
ENDBRANCH  14  15
BRANCH  14  21
ATOM     21  C   UNL     1       6.971   5.684  17.931  0.00  0.00    +0.000 C 
ATOM     22  C   UNL     1       7.775   6.974  18.137  0.00  0.00    +0.000 C 
ATOM     23  C   UNL     1       6.353   5.266  19.272  0.00  0.00    +0.000 C 
ENDBRANCH  14  21
ENDBRANCH   3  14
TORSDOF 5
ENDMDL
MODEL 7
REMARK VINA RESULT:      -7.1      1.405      2.137
REMARK  Name = 
REMARK  9 active torsions:
REMARK  status: ('A' for Active; 'I' for Inactive)
REMARK    1  A    between atoms: C_1  and  C_2
REMARK    2  A    between atoms: C_5  and  C_6
REMARK    3  A    between atoms: C_7  and  C_8
REMARK    4  A    between atoms: C_8  and  C_9
REMARK    5  A    between atoms: N_11  and  C_12
REMARK    6  A    between atoms: C_12  and  C_13
REMARK    7  A    between atoms: C_12  and  C_18
REMARK    8  A    between atoms: C_18  and  C_19
REMARK    9  A    between atoms: C_18  and  C_20
REMARK                            x       y       z     vdW  Elec       q    Type
REMARK                         _______ _______ _______ _____ _____    ______ ____
ROOT
ATOM      1  C   UNL     1       4.507   4.826  19.183  0.00  0.00    +0.000 C 
ATOM      2  O   UNL     1       3.921   5.908  19.243  0.00  0.00    +0.000 OA
ATOM      3  N   UNL     1       5.650   4.651  18.436  0.00  0.00    +0.000 N 
ATOM      4  H   UNL     1       5.957   3.709  18.233  0.00  0.00    +0.000 HD
ENDROOT
BRANCH   1   5
ATOM      5  C   UNL     1       4.007   3.569  19.890  0.00  0.00    +0.000 C 
BRANCH   5  12
ATOM      6  C   UNL     1       2.574   3.101  16.978  0.00  0.00    +0.000 C 
ATOM      7  C   UNL     1       1.966   3.007  18.330  0.00  0.00    +0.000 A 
ATOM      8  N   UNL     1       0.685   2.638  18.444  0.00  0.00    +0.000 NA
ATOM      9  N   UNL     1       0.475   2.578  19.761  0.00  0.00    +0.000 N 
ATOM     10  C   UNL     1       1.576   2.894  20.510  0.00  0.00    +0.000 A 
ATOM     11  C   UNL     1       1.539   2.809  21.989  0.00  0.00    +0.000 C 
ATOM     12  C   UNL     1       2.578   3.215  19.604  0.00  0.00    +0.000 A 
ATOM     13  H   UNL     1      -0.440   2.283  20.085  0.00  0.00    +0.000 HD
ENDBRANCH   5  12
ENDBRANCH   1   5
BRANCH   3  14
ATOM     14  C   UNL     1       6.231   5.704  17.607  0.00  0.00    +0.000 C 
BRANCH  14  15
ATOM     15  C   UNL     1       6.320   5.162  16.204  0.00  0.00    +0.000 A 
ATOM     16  N   UNL     1       7.410   4.977  15.479  0.00  0.00    +0.000 NA
ATOM     17  C   UNL     1       6.977   4.516  14.264  0.00  0.00    +0.000 A 
ATOM     18  C   UNL     1       5.610   4.383  14.252  0.00  0.00    +0.000 A 
ATOM     19  N   UNL     1       5.203   4.777  15.498  0.00  0.00    +0.000 N 
ATOM     20  H   UNL     1       4.256   4.779  15.856  0.00  0.00    +0.000 HD
ENDBRANCH  14  15
BRANCH  14  21
ATOM     21  C   UNL     1       7.620   6.115  18.167  0.00  0.00    +0.000 C 
ATOM     22  C   UNL     1       7.922   7.608  17.985  0.00  0.00    +0.000 C 
ATOM     23  C   UNL     1       7.733   5.764  19.656  0.00  0.00    +0.000 C 
ENDBRANCH  14  21
ENDBRANCH   3  14
TORSDOF 5
ENDMDL
MODEL 8
REMARK VINA RESULT:      -7.1      2.292      4.162
REMARK  Name = 
REMARK  9 active torsions:
REMARK  status: ('A' for Active; 'I' for Inactive)
REMARK    1  A    between atoms: C_1  and  C_2
REMARK    2  A    between atoms: C_5  and  C_6
REMARK    3  A    between atoms: C_7  and  C_8
REMARK    4  A    between atoms: C_8  and  C_9
REMARK    5  A    between atoms: N_11  and  C_12
REMARK    6  A    between atoms: C_12  and  C_13
REMARK    7  A    between atoms: C_12  and  C_18
REMARK    8  A    between atoms: C_18  and  C_19
REMARK    9  A    between atoms: C_18  and  C_20
REMARK                            x       y       z     vdW  Elec       q    Type
REMARK                         _______ _______ _______ _____ _____    ______ ____
ROOT
ATOM      1  C   UNL     1       3.556   3.780  17.406  0.00  0.00    +0.000 C 
ATOM      2  O   UNL     1       3.867   2.599  17.569  0.00  0.00    +0.000 OA
ATOM      3  N   UNL     1       4.452   4.717  16.941  0.00  0.00    +0.000 N 
ATOM      4  H   UNL     1       4.224   5.698  17.044  0.00  0.00    +0.000 HD
ENDROOT
BRANCH   1   5
ATOM      5  C   UNL     1       2.172   4.329  17.740  0.00  0.00    +0.000 C 
BRANCH   5  12
ATOM      6  C   UNL     1       2.615   7.577  17.826  0.00  0.00    +0.000 C 
ATOM      7  C   UNL     1       2.319   6.658  18.954  0.00  0.00    +0.000 A 
ATOM      8  N   UNL     1       2.148   7.165  20.180  0.00  0.00    +0.000 NA
ATOM      9  N   UNL     1       1.827   6.110  20.931  0.00  0.00    +0.000 N 
ATOM     10  C   UNL     1       1.781   4.932  20.238  0.00  0.00    +0.000 A 
ATOM     11  C   UNL     1       1.372   3.672  20.903  0.00  0.00    +0.000 C 
ATOM     12  C   UNL     1       2.130   5.242  18.930  0.00  0.00    +0.000 A 
ATOM     13  H   UNL     1       1.620   6.269  21.912  0.00  0.00    +0.000 HD
ENDBRANCH   5  12
ENDBRANCH   1   5
BRANCH   3  14
ATOM     14  C   UNL     1       5.852   4.413  16.660  0.00  0.00    +0.000 C 
BRANCH  14  15
ATOM     15  C   UNL     1       6.670   5.054  17.751  0.00  0.00    +0.000 A 
ATOM     16  N   UNL     1       6.712   4.719  19.029  0.00  0.00    +0.000 NA
ATOM     17  C   UNL     1       7.555   5.621  19.623  0.00  0.00    +0.000 A 
ATOM     18  C   UNL     1       8.066   6.496  18.696  0.00  0.00    +0.000 A 
ATOM     19  N   UNL     1       7.512   6.115  17.504  0.00  0.00    +0.000 N 
ATOM     20  H   UNL     1       7.688   6.521  16.594  0.00  0.00    +0.000 HD
ENDBRANCH  14  15
BRANCH  14  21
ATOM     21  C   UNL     1       6.238   4.940  15.251  0.00  0.00    +0.000 C 
ATOM     22  C   UNL     1       6.201   3.850  14.172  0.00  0.00    +0.000 C 
ATOM     23  C   UNL     1       5.313   6.088  14.826  0.00  0.00    +0.000 C 
ENDBRANCH  14  21
ENDBRANCH   3  14
TORSDOF 5
ENDMDL
MODEL 9
REMARK VINA RESULT:      -7.0      2.382      3.935
REMARK  Name = 
REMARK  9 active torsions:
REMARK  status: ('A' for Active; 'I' for Inactive)
REMARK    1  A    between atoms: C_1  and  C_2
REMARK    2  A    between atoms: C_5  and  C_6
REMARK    3  A    between atoms: C_7  and  C_8
REMARK    4  A    between atoms: C_8  and  C_9
REMARK    5  A    between atoms: N_11  and  C_12
REMARK    6  A    between atoms: C_12  and  C_13
REMARK    7  A    between atoms: C_12  and  C_18
REMARK    8  A    between atoms: C_18  and  C_19
REMARK    9  A    between atoms: C_18  and  C_20
REMARK                            x       y       z     vdW  Elec       q    Type
REMARK                         _______ _______ _______ _____ _____    ______ ____
ROOT
ATOM      1  C   UNL     1       3.502   3.446  17.324  0.00  0.00    +0.000 C 
ATOM      2  O   UNL     1       3.874   2.312  17.631  0.00  0.00    +0.000 OA
ATOM      3  N   UNL     1       4.337   4.349  16.704  0.00  0.00    +0.000 N 
ATOM      4  H   UNL     1       4.067   5.324  16.685  0.00  0.00    +0.000 HD
ENDROOT
BRANCH   1   5
ATOM      5  C   UNL     1       2.106   3.976  17.635  0.00  0.00    +0.000 C 
BRANCH   5  12
ATOM      6  C   UNL     1       1.260   3.009  20.652  0.00  0.00    +0.000 C 
ATOM      7  C   UNL     1       1.649   4.367  20.196  0.00  0.00    +0.000 A 
ATOM      8  N   UNL     1       1.733   5.357  21.092  0.00  0.00    +0.000 NA
ATOM      9  N   UNL     1       2.170   6.403  20.388  0.00  0.00    +0.000 N 
ATOM     10  C   UNL     1       2.374   6.131  19.063  0.00  0.00    +0.000 A 
ATOM     11  C   UNL     1       2.926   7.160  18.151  0.00  0.00    +0.000 C 
ATOM     12  C   UNL     1       2.012   4.802  18.884  0.00  0.00    +0.000 A 
ATOM     13  H   UNL     1       2.338   7.274  20.883  0.00  0.00    +0.000 HD
ENDBRANCH   5  12
ENDBRANCH   1   5
BRANCH   3  14
ATOM     14  C   UNL     1       5.740   4.069  16.412  0.00  0.00    +0.000 C 
BRANCH  14  15
ATOM     15  C   UNL     1       6.547   4.610  17.564  0.00  0.00    +0.000 A 
ATOM     16  N   UNL     1       7.853   4.516  17.748  0.00  0.00    +0.000 NA
ATOM     17  C   UNL     1       8.104   5.114  18.954  0.00  0.00    +0.000 A 
ATOM     18  C   UNL     1       6.947   5.613  19.502  0.00  0.00    +0.000 A 
ATOM     19  N   UNL     1       5.964   5.304  18.600  0.00  0.00    +0.000 N 
ATOM     20  H   UNL     1       4.983   5.547  18.662  0.00  0.00    +0.000 HD
ENDBRANCH  14  15
BRANCH  14  21
ATOM     21  C   UNL     1       6.141   4.717  15.059  0.00  0.00    +0.000 C 
ATOM     22  C   UNL     1       5.826   3.827  13.851  0.00  0.00    +0.000 C 
ATOM     23  C   UNL     1       5.441   6.070  14.874  0.00  0.00    +0.000 C 
ENDBRANCH  14  21
ENDBRANCH   3  14
TORSDOF 5
ENDMDL
