MODEL 1
REMARK VINA RESULT:      -8.2      0.000      0.000
REMARK  Name = 
REMARK  2 active torsions:
REMARK  status: ('A' for Active; 'I' for Inactive)
REMARK    1  A    between atoms: C_1  and  C_2
REMARK    2  A    between atoms: C_7  and  C_8
REMARK                            x       y       z     vdW  Elec       q    Type
REMARK                         _______ _______ _______ _____ _____    ______ ____
ROOT
ATOM      1  C   UNL     1       4.104   4.429  18.649  0.00  0.00    +0.000 C 
ATOM      2  C   UNL     1       3.765   3.781  17.271  0.00  0.00    +0.000 C 
ATOM      3  C   UNL     1       2.398   3.082  17.304  0.00  0.00    +0.000 C 
ATOM      4  C   UNL     1       2.427   1.970  18.361  0.00  0.00    +0.000 C 
ATOM      5  C   UNL     1       2.731   2.570  19.741  0.00  0.00    +0.000 C 
ATOM      6  C   UNL     1       1.634   3.585  20.101  0.00  0.00    +0.000 C 
ATOM      7  C   UNL     1       1.601   4.708  19.054  0.00  0.00    +0.000 C 
ATOM      8  C   UNL     1       1.318   4.111  17.668  0.00  0.00    +0.000 C 
ATOM      9  C   UNL     1       2.964   5.416  19.024  0.00  0.00    +0.000 C 
ATOM     10  C   UNL     1       4.096   3.283  19.701  0.00  0.00    +0.000 C 
ENDROOT
BRANCH   1  17
ATOM     11  C   UNL     1       5.249   6.665  16.473  0.00  0.00    +0.000 C 
ATOM     12  C   UNL     1       5.906   6.078  17.676  0.00  0.00    +0.000 A 
ATOM     13  S   UNL     1       7.502   6.570  18.076  0.00  0.00    +0.000 S 
ATOM     14  C   UNL     1       7.494   5.512  19.418  0.00  0.00    +0.000 A 
ATOM     15  N   UNL     1       8.567   5.393  20.216  0.00  0.00    +0.000 N 
ATOM     16  N   UNL     1       6.391   4.844  19.592  0.00  0.00    +0.000 NA
ATOM     17  C   UNL     1       5.453   5.144  18.601  0.00  0.00    +0.000 A 
ATOM     18  H   UNL     1       9.361   6.009  20.128  0.00  0.00    +0.000 HD
ATOM     19  H   UNL     1       8.487   4.841  21.058  0.00  0.00    +0.000 HD
ENDBRANCH   1  17
TORSDOF 1
ENDMDL
MODEL 2
REMARK VINA RESULT:      -8.2      0.038      1.817
REMARK  Name = 
REMARK  2 active torsions:
REMARK  status: ('A' for Active; 'I' for Inactive)
REMARK    1  A    between atoms: C_1  and  C_2
REMARK    2  A    between atoms: C_7  and  C_8
REMARK                            x       y       z     vdW  Elec       q    Type
REMARK                         _______ _______ _______ _____ _____    ______ ____
ROOT
ATOM      1  C   UNL     1       4.103   4.428  18.635  0.00  0.00    +0.000 C 
ATOM      2  C   UNL     1       4.114   3.276  19.686  0.00  0.00    +0.000 C 
ATOM      3  C   UNL     1       2.769   2.534  19.714  0.00  0.00    +0.000 C 
ATOM      4  C   UNL     1       1.658   3.521  20.097  0.00  0.00    +0.000 C 
ATOM      5  C   UNL     1       1.595   4.659  19.068  0.00  0.00    +0.000 C 
ATOM      6  C   UNL     1       1.296   4.069  17.681  0.00  0.00    +0.000 C 
ATOM      7  C   UNL     1       2.407   3.085  17.284  0.00  0.00    +0.000 C 
ATOM      8  C   UNL     1       2.488   1.955  18.320  0.00  0.00    +0.000 C 
ATOM      9  C   UNL     1       3.752   3.825  17.246  0.00  0.00    +0.000 C 
ATOM     10  C   UNL     1       2.950   5.392  19.033  0.00  0.00    +0.000 C 
ENDROOT
BRANCH   1  17
ATOM     11  C   UNL     1       5.248   6.685  16.481  0.00  0.00    +0.000 C 
ATOM     12  C   UNL     1       5.905   6.087  17.678  0.00  0.00    +0.000 A 
ATOM     13  S   UNL     1       7.500   6.578  18.084  0.00  0.00    +0.000 S 
ATOM     14  C   UNL     1       7.492   5.508  19.416  0.00  0.00    +0.000 A 
ATOM     15  N   UNL     1       8.565   5.383  20.213  0.00  0.00    +0.000 N 
ATOM     16  N   UNL     1       6.390   4.837  19.583  0.00  0.00    +0.000 NA
ATOM     17  C   UNL     1       5.452   5.145  18.594  0.00  0.00    +0.000 A 
ATOM     18  H   UNL     1       9.358   6.000  20.132  0.00  0.00    +0.000 HD
ATOM     19  H   UNL     1       8.484   4.823  21.051  0.00  0.00    +0.000 HD
ENDBRANCH   1  17
TORSDOF 1
ENDMDL
MODEL 3
REMARK VINA RESULT:      -8.2      0.034      1.837
REMARK  Name = 
REMARK  2 active torsions:
REMARK  status: ('A' for Active; 'I' for Inactive)
REMARK    1  A    between atoms: C_1  and  C_2
REMARK    2  A    between atoms: C_7  and  C_8
REMARK                            x       y       z     vdW  Elec       q    Type
REMARK                         _______ _______ _______ _____ _____    ______ ____
ROOT
ATOM      1  C   UNL     1       4.117   4.430  18.626  0.00  0.00    +0.000 C 
ATOM      2  C   UNL     1       2.969   5.417  19.001  0.00  0.00    +0.000 C 
ATOM      3  C   UNL     1       1.613   4.698  19.060  0.00  0.00    +0.000 C 
ATOM      4  C   UNL     1       1.299   4.102  17.682  0.00  0.00    +0.000 C 
ATOM      5  C   UNL     1       2.394   3.101  17.285  0.00  0.00    +0.000 C 
ATOM      6  C   UNL     1       2.446   1.973  18.327  0.00  0.00    +0.000 C 
ATOM      7  C   UNL     1       2.768   2.557  19.710  0.00  0.00    +0.000 C 
ATOM      8  C   UNL     1       1.687   3.574  20.104  0.00  0.00    +0.000 C 
ATOM      9  C   UNL     1       4.128   3.269  19.658  0.00  0.00    +0.000 C 
ATOM     10  C   UNL     1       3.755   3.822  17.241  0.00  0.00    +0.000 C 
ENDROOT
BRANCH   1  17
ATOM     11  C   UNL     1       5.273   6.693  16.483  0.00  0.00    +0.000 C 
ATOM     12  C   UNL     1       5.924   6.092  17.682  0.00  0.00    +0.000 A 
ATOM     13  S   UNL     1       7.517   6.581  18.097  0.00  0.00    +0.000 S 
ATOM     14  C   UNL     1       7.503   5.506  19.426  0.00  0.00    +0.000 A 
ATOM     15  N   UNL     1       8.571   5.379  20.228  0.00  0.00    +0.000 N 
ATOM     16  N   UNL     1       6.399   4.836  19.586  0.00  0.00    +0.000 NA
ATOM     17  C   UNL     1       5.467   5.147  18.594  0.00  0.00    +0.000 A 
ATOM     18  H   UNL     1       9.365   5.995  20.152  0.00  0.00    +0.000 HD
ATOM     19  H   UNL     1       8.487   4.816  21.063  0.00  0.00    +0.000 HD
ENDBRANCH   1  17
TORSDOF 1
ENDMDL
MODEL 4
REMARK VINA RESULT:      -7.9      1.377      2.490
REMARK  Name = 
REMARK  2 active torsions:
REMARK  status: ('A' for Active; 'I' for Inactive)
REMARK    1  A    between atoms: C_1  and  C_2
REMARK    2  A    between atoms: C_7  and  C_8
REMARK                            x       y       z     vdW  Elec       q    Type
REMARK                         _______ _______ _______ _____ _____    ______ ____
ROOT
ATOM      1  C   UNL     1       3.594   4.198  19.103  0.00  0.00    +0.000 C 
ATOM      2  C   UNL     1       3.093   5.087  20.282  0.00  0.00    +0.000 C 
ATOM      3  C   UNL     1       1.881   4.453  20.982  0.00  0.00    +0.000 C 
ATOM      4  C   UNL     1       0.735   4.310  19.971  0.00  0.00    +0.000 C 
ATOM      5  C   UNL     1       1.179   3.416  18.804  0.00  0.00    +0.000 C 
ATOM      6  C   UNL     1       1.556   2.029  19.347  0.00  0.00    +0.000 C 
ATOM      7  C   UNL     1       2.708   2.160  20.354  0.00  0.00    +0.000 C 
ATOM      8  C   UNL     1       2.276   3.068  21.514  0.00  0.00    +0.000 C 
ATOM      9  C   UNL     1       3.925   2.784  19.656  0.00  0.00    +0.000 C 
ATOM     10  C   UNL     1       2.403   4.047  18.113  0.00  0.00    +0.000 C 
ENDROOT
BRANCH   1  17
ATOM     11  C   UNL     1       3.887   7.087  17.487  0.00  0.00    +0.000 C 
ATOM     12  C   UNL     1       4.908   6.036  17.757  0.00  0.00    +0.000 A 
ATOM     13  S   UNL     1       6.510   6.263  17.181  0.00  0.00    +0.000 S 
ATOM     14  C   UNL     1       6.961   4.749  17.831  0.00  0.00    +0.000 A 
ATOM     15  N   UNL     1       8.209   4.275  17.688  0.00  0.00    +0.000 N 
ATOM     16  N   UNL     1       6.016   4.108  18.454  0.00  0.00    +0.000 NA
ATOM     17  C   UNL     1       4.815   4.821  18.428  0.00  0.00    +0.000 A 
ATOM     18  H   UNL     1       8.949   4.843  17.306  0.00  0.00    +0.000 HD
ATOM     19  H   UNL     1       8.466   3.428  18.176  0.00  0.00    +0.000 HD
ENDBRANCH   1  17
TORSDOF 1
ENDMDL
MODEL 5
REMARK VINA RESULT:      -7.9      1.379      2.076
REMARK  Name = 
REMARK  2 active torsions:
REMARK  status: ('A' for Active; 'I' for Inactive)
REMARK    1  A    between atoms: C_1  and  C_2
REMARK    2  A    between atoms: C_7  and  C_8
REMARK                            x       y       z     vdW  Elec       q    Type
REMARK                         _______ _______ _______ _____ _____    ______ ____
ROOT
ATOM      1  C   UNL     1       3.589   4.204  19.131  0.00  0.00    +0.000 C 
ATOM      2  C   UNL     1       3.938   2.806  19.728  0.00  0.00    +0.000 C 
ATOM      3  C   UNL     1       2.713   2.162  20.393  0.00  0.00    +0.000 C 
ATOM      4  C   UNL     1       2.229   3.063  21.537  0.00  0.00    +0.000 C 
ATOM      5  C   UNL     1       1.848   4.445  20.987  0.00  0.00    +0.000 C 
ATOM      6  C   UNL     1       0.720   4.282  19.955  0.00  0.00    +0.000 C 
ATOM      7  C   UNL     1       1.196   3.389  18.801  0.00  0.00    +0.000 C 
ATOM      8  C   UNL     1       1.597   2.012  19.348  0.00  0.00    +0.000 C 
ATOM      9  C   UNL     1       2.416   4.034  18.127  0.00  0.00    +0.000 C 
ATOM     10  C   UNL     1       3.076   5.082  20.308  0.00  0.00    +0.000 C 
ENDROOT
BRANCH   1  17
ATOM     11  C   UNL     1       3.874   7.097  17.519  0.00  0.00    +0.000 C 
ATOM     12  C   UNL     1       4.896   6.044  17.780  0.00  0.00    +0.000 A 
ATOM     13  S   UNL     1       6.494   6.272  17.194  0.00  0.00    +0.000 S 
ATOM     14  C   UNL     1       6.949   4.755  17.837  0.00  0.00    +0.000 A 
ATOM     15  N   UNL     1       8.195   4.281  17.685  0.00  0.00    +0.000 N 
ATOM     16  N   UNL     1       6.007   4.114  18.466  0.00  0.00    +0.000 NA
ATOM     17  C   UNL     1       4.806   4.828  18.449  0.00  0.00    +0.000 A 
ATOM     18  H   UNL     1       8.933   4.850  17.299  0.00  0.00    +0.000 HD
ATOM     19  H   UNL     1       8.454   3.433  18.170  0.00  0.00    +0.000 HD
ENDBRANCH   1  17
TORSDOF 1
ENDMDL
MODEL 6
REMARK VINA RESULT:      -7.9      1.382      1.599
REMARK  Name = 
REMARK  2 active torsions:
REMARK  status: ('A' for Active; 'I' for Inactive)
REMARK    1  A    between atoms: C_1  and  C_2
REMARK    2  A    between atoms: C_7  and  C_8
REMARK                            x       y       z     vdW  Elec       q    Type
REMARK                         _______ _______ _______ _____ _____    ______ ____
ROOT
ATOM      1  C   UNL     1       3.582   4.188  19.101  0.00  0.00    +0.000 C 
ATOM      2  C   UNL     1       2.386   4.097  18.104  0.00  0.00    +0.000 C 
ATOM      3  C   UNL     1       1.146   3.489  18.776  0.00  0.00    +0.000 C 
ATOM      4  C   UNL     1       1.479   2.070  19.255  0.00  0.00    +0.000 C 
ATOM      5  C   UNL     1       2.637   2.118  20.263  0.00  0.00    +0.000 C 
ATOM      6  C   UNL     1       2.221   2.978  21.467  0.00  0.00    +0.000 C 
ATOM      7  C   UNL     1       1.893   4.403  20.999  0.00  0.00    +0.000 C 
ATOM      8  C   UNL     1       0.749   4.360  19.977  0.00  0.00    +0.000 C 
ATOM      9  C   UNL     1       3.134   5.018  20.335  0.00  0.00    +0.000 C 
ATOM     10  C   UNL     1       3.875   2.741  19.590  0.00  0.00    +0.000 C 
ENDROOT
BRANCH   1  17
ATOM     11  C   UNL     1       3.877   7.090  17.507  0.00  0.00    +0.000 C 
ATOM     12  C   UNL     1       4.898   6.037  17.772  0.00  0.00    +0.000 A 
ATOM     13  S   UNL     1       6.501   6.270  17.201  0.00  0.00    +0.000 S 
ATOM     14  C   UNL     1       6.953   4.751  17.840  0.00  0.00    +0.000 A 
ATOM     15  N   UNL     1       8.201   4.280  17.697  0.00  0.00    +0.000 N 
ATOM     16  N   UNL     1       6.006   4.105  18.457  0.00  0.00    +0.000 NA
ATOM     17  C   UNL     1       4.805   4.818  18.433  0.00  0.00    +0.000 A 
ATOM     18  H   UNL     1       8.941   4.851  17.321  0.00  0.00    +0.000 HD
ATOM     19  H   UNL     1       8.457   3.430  18.180  0.00  0.00    +0.000 HD
ENDBRANCH   1  17
TORSDOF 1
ENDMDL
MODEL 7
REMARK VINA RESULT:      -7.8      1.244      2.412
REMARK  Name = 
REMARK  2 active torsions:
REMARK  status: ('A' for Active; 'I' for Inactive)
REMARK    1  A    between atoms: C_1  and  C_2
REMARK    2  A    between atoms: C_7  and  C_8
REMARK                            x       y       z     vdW  Elec       q    Type
REMARK                         _______ _______ _______ _____ _____    ______ ____
ROOT
ATOM      1  C   UNL     1       3.723   3.960  19.072  0.00  0.00    +0.000 C 
ATOM      2  C   UNL     1       3.371   4.506  20.489  0.00  0.00    +0.000 C 
ATOM      3  C   UNL     1       1.988   4.018  20.947  0.00  0.00    +0.000 C 
ATOM      4  C   UNL     1       0.925   4.523  19.963  0.00  0.00    +0.000 C 
ATOM      5  C   UNL     1       1.220   3.984  18.555  0.00  0.00    +0.000 C 
ATOM      6  C   UNL     1       1.194   2.448  18.589  0.00  0.00    +0.000 C 
ATOM      7  C   UNL     1       2.260   1.930  19.565  0.00  0.00    +0.000 C 
ATOM      8  C   UNL     1       1.982   2.482  20.971  0.00  0.00    +0.000 C 
ATOM      9  C   UNL     1       3.645   2.409  19.106  0.00  0.00    +0.000 C 
ATOM     10  C   UNL     1       2.614   4.463  18.105  0.00  0.00    +0.000 C 
ENDROOT
BRANCH   1  17
ATOM     11  C   UNL     1       5.080   4.044  16.039  0.00  0.00    +0.000 C 
ATOM     12  C   UNL     1       5.652   4.452  17.353  0.00  0.00    +0.000 A 
ATOM     13  S   UNL     1       7.253   5.070  17.407  0.00  0.00    +0.000 S 
ATOM     14  C   UNL     1       7.132   5.243  19.103  0.00  0.00    +0.000 A 
ATOM     15  N   UNL     1       8.161   5.702  19.831  0.00  0.00    +0.000 N 
ATOM     16  N   UNL     1       5.987   4.894  19.616  0.00  0.00    +0.000 NA
ATOM     17  C   UNL     1       5.110   4.429  18.633  0.00  0.00    +0.000 A 
ATOM     18  H   UNL     1       8.990   6.076  19.395  0.00  0.00    +0.000 HD
ATOM     19  H   UNL     1       8.016   5.891  20.813  0.00  0.00    +0.000 HD
ENDBRANCH   1  17
TORSDOF 1
ENDMDL
MODEL 8
REMARK VINA RESULT:      -7.7      1.250      1.677
REMARK  Name = 
REMARK  2 active torsions:
REMARK  status: ('A' for Active; 'I' for Inactive)
REMARK    1  A    between atoms: C_1  and  C_2
REMARK    2  A    between atoms: C_7  and  C_8
REMARK                            x       y       z     vdW  Elec       q    Type
REMARK                         _______ _______ _______ _____ _____    ______ ____
ROOT
ATOM      1  C   UNL     1       3.719   3.983  19.115  0.00  0.00    +0.000 C 
ATOM      2  C   UNL     1       3.624   2.426  19.136  0.00  0.00    +0.000 C 
ATOM      3  C   UNL     1       2.225   1.958  19.562  0.00  0.00    +0.000 C 
ATOM      4  C   UNL     1       1.931   2.474  20.977  0.00  0.00    +0.000 C 
ATOM      5  C   UNL     1       1.986   4.009  20.994  0.00  0.00    +0.000 C 
ATOM      6  C   UNL     1       0.932   4.561  20.021  0.00  0.00    +0.000 C 
ATOM      7  C   UNL     1       1.222   4.058  18.600  0.00  0.00    +0.000 C 
ATOM      8  C   UNL     1       1.187   2.523  18.581  0.00  0.00    +0.000 C 
ATOM      9  C   UNL     1       2.617   4.532  18.167  0.00  0.00    +0.000 C 
ATOM     10  C   UNL     1       3.387   4.475  20.553  0.00  0.00    +0.000 C 
ENDROOT
BRANCH   1  17
ATOM     11  C   UNL     1       5.058   4.041  16.074  0.00  0.00    +0.000 C 
ATOM     12  C   UNL     1       5.640   4.454  17.383  0.00  0.00    +0.000 A 
ATOM     13  S   UNL     1       7.245   5.065  17.424  0.00  0.00    +0.000 S 
ATOM     14  C   UNL     1       7.134   5.249  19.120  0.00  0.00    +0.000 A 
ATOM     15  N   UNL     1       8.169   5.707  19.839  0.00  0.00    +0.000 N 
ATOM     16  N   UNL     1       5.991   4.908  19.641  0.00  0.00    +0.000 NA
ATOM     17  C   UNL     1       5.106   4.442  18.666  0.00  0.00    +0.000 A 
ATOM     18  H   UNL     1       8.998   6.075  19.396  0.00  0.00    +0.000 HD
ATOM     19  H   UNL     1       8.030   5.904  20.820  0.00  0.00    +0.000 HD
ENDBRANCH   1  17
TORSDOF 1
ENDMDL
MODEL 9
REMARK VINA RESULT:      -7.7      1.243      1.540
REMARK  Name = 
REMARK  2 active torsions:
REMARK  status: ('A' for Active; 'I' for Inactive)
REMARK    1  A    between atoms: C_1  and  C_2
REMARK    2  A    between atoms: C_7  and  C_8
REMARK                            x       y       z     vdW  Elec       q    Type
REMARK                         _______ _______ _______ _____ _____    ______ ____
ROOT
ATOM      1  C   UNL     1       3.719   3.955  19.078  0.00  0.00    +0.000 C 
ATOM      2  C   UNL     1       2.616   4.472  18.104  0.00  0.00    +0.000 C 
ATOM      3  C   UNL     1       1.218   4.024  18.557  0.00  0.00    +0.000 C 
ATOM      4  C   UNL     1       1.162   2.491  18.572  0.00  0.00    +0.000 C 
ATOM      5  C   UNL     1       2.217   1.940  19.543  0.00  0.00    +0.000 C 
ATOM      6  C   UNL     1       1.929   2.475  20.955  0.00  0.00    +0.000 C 
ATOM      7  C   UNL     1       1.991   4.009  20.953  0.00  0.00    +0.000 C 
ATOM      8  C   UNL     1       0.951   4.565  19.969  0.00  0.00    +0.000 C 
ATOM      9  C   UNL     1       3.390   4.462  20.510  0.00  0.00    +0.000 C 
ATOM     10  C   UNL     1       3.616   2.404  19.095  0.00  0.00    +0.000 C 
ENDROOT
BRANCH   1  17
ATOM     11  C   UNL     1       5.064   4.048  16.041  0.00  0.00    +0.000 C 
ATOM     12  C   UNL     1       5.641   4.453  17.354  0.00  0.00    +0.000 A 
ATOM     13  S   UNL     1       7.242   5.072  17.404  0.00  0.00    +0.000 S 
ATOM     14  C   UNL     1       7.126   5.241  19.101  0.00  0.00    +0.000 A 
ATOM     15  N   UNL     1       8.158   5.699  19.826  0.00  0.00    +0.000 N 
ATOM     16  N   UNL     1       5.984   4.889  19.617  0.00  0.00    +0.000 NA
ATOM     17  C   UNL     1       5.104   4.426  18.636  0.00  0.00    +0.000 A 
ATOM     18  H   UNL     1       8.985   6.075  19.389  0.00  0.00    +0.000 HD
ATOM     19  H   UNL     1       8.016   5.886  20.809  0.00  0.00    +0.000 HD
ENDBRANCH   1  17
TORSDOF 1
ENDMDL
