MODEL 1
REMARK VINA RESULT:      -8.0      0.000      0.000
REMARK  Name = 
REMARK  4 active torsions:
REMARK  status: ('A' for Active; 'I' for Inactive)
REMARK    1  A    between atoms: C_4  and  C_5
REMARK    2  A    between atoms: N_8  and  C_9
REMARK    3  A    between atoms: C_12  and  O_13
REMARK    4  A    between atoms: O_13  and  C_14
REMARK                            x       y       z     vdW  Elec       q    Type
REMARK                         _______ _______ _______ _____ _____    ______ ____
ROOT
ATOM      1  C   UNL     1       3.097   7.105  17.847  0.00  0.00    +0.000 A 
ATOM      2  C   UNL     1       2.757   5.751  17.986  0.00  0.00    +0.000 A 
ATOM      3  C   UNL     1       3.601   4.773  17.447  0.00  0.00    +0.000 A 
ATOM      4  C   UNL     1       4.779   5.135  16.787  0.00  0.00    +0.000 A 
ATOM      5  C   UNL     1       5.156   6.477  16.727  0.00  0.00    +0.000 A 
ATOM      6  C   UNL     1       4.305   7.461  17.227  0.00  0.00    +0.000 A 
ENDROOT
BRANCH   1  10
ATOM      7  C   UNL     1       1.078   9.280  19.599  0.00  0.00    +0.000 A 
ATOM      8  N   UNL     1       1.183   9.975  18.418  0.00  0.00    +0.000 NA
ATOM      9  N   UNL     1       1.925   9.235  17.601  0.00  0.00    +0.000 NA
ATOM     10  N   UNL     1       2.240   8.129  18.309  0.00  0.00    +0.000 N 
ATOM     11  N   UNL     1       1.710   8.095  19.552  0.00  0.00    +0.000 NA
BRANCH   7  15
ATOM     12  C   UNL     1      -0.843  10.758  23.043  0.00  0.00    +0.000 A 
ATOM     13  C   UNL     1      -0.415   9.437  23.033  0.00  0.00    +0.000 A 
ATOM     14  C   UNL     1       0.209   8.936  21.895  0.00  0.00    +0.000 A 
ATOM     15  C   UNL     1       0.391   9.776  20.793  0.00  0.00    +0.000 A 
ATOM     16  N   UNL     1      -0.023  11.068  20.790  0.00  0.00    +0.000 NA
ATOM     17  C   UNL     1      -0.627  11.525  21.908  0.00  0.00    +0.000 A 
ENDBRANCH   7  15
ENDBRANCH   1  10
BRANCH   4  18
ATOM     18  O   UNL     1       5.534   4.105  16.266  0.00  0.00    +0.000 OA
BRANCH  18  19
ATOM     19  C   UNL     1       6.111   4.254  15.029  0.00  0.00    +0.000 A 
ATOM     20  C   UNL     1       5.676   3.626  13.862  0.00  0.00    +0.000 A 
ATOM     21  C   UNL     1       6.334   3.877  12.661  0.00  0.00    +0.000 A 
ATOM     22  C   UNL     1       7.440   4.712  12.678  0.00  0.00    +0.000 A 
ATOM     23  N   UNL     1       7.919   5.298  13.797  0.00  0.00    +0.000 NA
ATOM     24  C   UNL     1       7.245   5.052  14.947  0.00  0.00    +0.000 A 
ENDBRANCH  18  19
ENDBRANCH   4  18
TORSDOF 4
ENDMDL
MODEL 2
REMARK VINA RESULT:      -8.0      1.267      1.795
REMARK  Name = 
REMARK  4 active torsions:
REMARK  status: ('A' for Active; 'I' for Inactive)
REMARK    1  A    between atoms: C_4  and  C_5
REMARK    2  A    between atoms: N_8  and  C_9
REMARK    3  A    between atoms: C_12  and  O_13
REMARK    4  A    between atoms: O_13  and  C_14
REMARK                            x       y       z     vdW  Elec       q    Type
REMARK                         _______ _______ _______ _____ _____    ______ ____
ROOT
ATOM      1  C   UNL     1       2.423   7.804  18.636  0.00  0.00    +0.000 A 
ATOM      2  C   UNL     1       3.238   7.840  17.495  0.00  0.00    +0.000 A 
ATOM      3  C   UNL     1       4.230   6.866  17.329  0.00  0.00    +0.000 A 
ATOM      4  C   UNL     1       4.402   5.857  18.282  0.00  0.00    +0.000 A 
ATOM      5  C   UNL     1       3.533   5.776  19.370  0.00  0.00    +0.000 A 
ATOM      6  C   UNL     1       2.567   6.761  19.564  0.00  0.00    +0.000 A 
ENDROOT
BRANCH   1  10
ATOM      7  C   UNL     1       0.182  10.090  19.913  0.00  0.00    +0.000 A 
ATOM      8  N   UNL     1       0.203  10.505  18.603  0.00  0.00    +0.000 NA
ATOM      9  N   UNL     1       1.019   9.683  17.951  0.00  0.00    +0.000 NA
ATOM     10  N   UNL     1       1.459   8.808  18.881  0.00  0.00    +0.000 N 
ATOM     11  N   UNL     1       0.941   9.000  20.115  0.00  0.00    +0.000 NA
BRANCH   7  15
ATOM     12  C   UNL     1      -1.878  12.098  22.988  0.00  0.00    +0.000 A 
ATOM     13  C   UNL     1      -1.246  10.897  23.283  0.00  0.00    +0.000 A 
ATOM     14  C   UNL     1      -0.574  10.221  22.271  0.00  0.00    +0.000 A 
ATOM     15  C   UNL     1      -0.550  10.768  20.984  0.00  0.00    +0.000 A 
ATOM     16  N   UNL     1      -1.165  11.939  20.684  0.00  0.00    +0.000 NA
ATOM     17  C   UNL     1      -1.811  12.572  21.687  0.00  0.00    +0.000 A 
ENDBRANCH   7  15
ENDBRANCH   1  10
BRANCH   4  18
ATOM     18  O   UNL     1       5.421   4.958  18.049  0.00  0.00    +0.000 OA
BRANCH  18  19
ATOM     19  C   UNL     1       5.907   4.808  16.774  0.00  0.00    +0.000 A 
ATOM     20  C   UNL     1       5.394   3.928  15.820  0.00  0.00    +0.000 A 
ATOM     21  C   UNL     1       5.962   3.885  14.550  0.00  0.00    +0.000 A 
ATOM     22  C   UNL     1       7.059   4.691  14.291  0.00  0.00    +0.000 A 
ATOM     23  N   UNL     1       7.612   5.519  15.204  0.00  0.00    +0.000 NA
ATOM     24  C   UNL     1       7.025   5.554  16.425  0.00  0.00    +0.000 A 
ENDBRANCH  18  19
ENDBRANCH   4  18
TORSDOF 4
ENDMDL
MODEL 3
REMARK VINA RESULT:      -7.9      2.337      3.483
REMARK  Name = 
REMARK  4 active torsions:
REMARK  status: ('A' for Active; 'I' for Inactive)
REMARK    1  A    between atoms: C_4  and  C_5
REMARK    2  A    between atoms: N_8  and  C_9
REMARK    3  A    between atoms: C_12  and  O_13
REMARK    4  A    between atoms: O_13  and  C_14
REMARK                            x       y       z     vdW  Elec       q    Type
REMARK                         _______ _______ _______ _____ _____    ______ ____
ROOT
ATOM      1  C   UNL     1       1.723   7.745  20.176  0.00  0.00    +0.000 A 
ATOM      2  C   UNL     1       2.201   8.035  18.889  0.00  0.00    +0.000 A 
ATOM      3  C   UNL     1       2.758   7.008  18.117  0.00  0.00    +0.000 A 
ATOM      4  C   UNL     1       2.828   5.703  18.613  0.00  0.00    +0.000 A 
ATOM      5  C   UNL     1       2.273   5.404  19.858  0.00  0.00    +0.000 A 
ATOM      6  C   UNL     1       1.751   6.424  20.650  0.00  0.00    +0.000 A 
ENDROOT
BRANCH   1  10
ATOM      7  C   UNL     1      -0.013  10.275  21.746  0.00  0.00    +0.000 A 
ATOM      8  N   UNL     1       0.872   9.955  22.748  0.00  0.00    +0.000 NA
ATOM      9  N   UNL     1       1.654   8.990  22.278  0.00  0.00    +0.000 NA
ATOM     10  N   UNL     1       1.221   8.762  21.019  0.00  0.00    +0.000 N 
ATOM     11  N   UNL     1       0.202   9.560  20.629  0.00  0.00    +0.000 NA
BRANCH   7  15
ATOM     12  C   UNL     1      -3.073  13.145  22.104  0.00  0.00    +0.000 A 
ATOM     13  C   UNL     1      -2.697  12.427  23.231  0.00  0.00    +0.000 A 
ATOM     14  C   UNL     1      -1.697  11.468  23.120  0.00  0.00    +0.000 A 
ATOM     15  C   UNL     1      -1.093  11.253  21.877  0.00  0.00    +0.000 A 
ATOM     16  N   UNL     1      -1.452  11.947  20.769  0.00  0.00    +0.000 NA
ATOM     17  C   UNL     1      -2.428  12.872  20.907  0.00  0.00    +0.000 A 
ENDBRANCH   7  15
ENDBRANCH   1  10
BRANCH   4  18
ATOM     18  O   UNL     1       3.417   4.764  17.793  0.00  0.00    +0.000 OA
BRANCH  18  19
ATOM     19  C   UNL     1       4.785   4.730  17.683  0.00  0.00    +0.000 A 
ATOM     20  C   UNL     1       5.488   4.622  16.483  0.00  0.00    +0.000 A 
ATOM     21  C   UNL     1       6.881   4.622  16.501  0.00  0.00    +0.000 A 
ATOM     22  C   UNL     1       7.523   4.679  17.727  0.00  0.00    +0.000 A 
ATOM     23  N   UNL     1       6.875   4.735  18.911  0.00  0.00    +0.000 NA
ATOM     24  C   UNL     1       5.520   4.754  18.861  0.00  0.00    +0.000 A 
ENDBRANCH  18  19
ENDBRANCH   4  18
TORSDOF 4
ENDMDL
MODEL 4
REMARK VINA RESULT:      -7.9      3.538      4.669
REMARK  Name = 
REMARK  4 active torsions:
REMARK  status: ('A' for Active; 'I' for Inactive)
REMARK    1  A    between atoms: C_4  and  C_5
REMARK    2  A    between atoms: N_8  and  C_9
REMARK    3  A    between atoms: C_12  and  O_13
REMARK    4  A    between atoms: O_13  and  C_14
REMARK                            x       y       z     vdW  Elec       q    Type
REMARK                         _______ _______ _______ _____ _____    ______ ____
ROOT
ATOM      1  C   UNL     1       1.202   9.332  19.819  0.00  0.00    +0.000 A 
ATOM      2  C   UNL     1       1.462   9.416  18.443  0.00  0.00    +0.000 A 
ATOM      3  C   UNL     1       2.131   8.364  17.806  0.00  0.00    +0.000 A 
ATOM      4  C   UNL     1       2.529   7.234  18.527  0.00  0.00    +0.000 A 
ATOM      5  C   UNL     1       2.192   7.118  19.876  0.00  0.00    +0.000 A 
ATOM      6  C   UNL     1       1.560   8.175  20.528  0.00  0.00    +0.000 A 
ENDROOT
BRANCH   1  10
ATOM      7  C   UNL     1      -0.876  11.584  21.397  0.00  0.00    +0.000 A 
ATOM      8  N   UNL     1       0.340  12.078  21.804  0.00  0.00    +0.000 NA
ATOM      9  N   UNL     1       1.273  11.319  21.241  0.00  0.00    +0.000 NA
ATOM     10  N   UNL     1       0.596  10.400  20.518  0.00  0.00    +0.000 N 
ATOM     11  N   UNL     1      -0.748  10.542  20.558  0.00  0.00    +0.000 NA
BRANCH   7  15
ATOM     12  C   UNL     1      -4.581  13.135  22.661  0.00  0.00    +0.000 A 
ATOM     13  C   UNL     1      -3.731  12.583  23.610  0.00  0.00    +0.000 A 
ATOM     14  C   UNL     1      -2.511  12.057  23.200  0.00  0.00    +0.000 A 
ATOM     15  C   UNL     1      -2.171  12.099  21.844  0.00  0.00    +0.000 A 
ATOM     16  N   UNL     1      -2.993  12.634  20.908  0.00  0.00    +0.000 NA
ATOM     17  C   UNL     1      -4.172  13.137  21.336  0.00  0.00    +0.000 A 
ENDBRANCH   7  15
ENDBRANCH   1  10
BRANCH   4  18
ATOM     18  O   UNL     1       3.206   6.261  17.822  0.00  0.00    +0.000 OA
BRANCH  18  19
ATOM     19  C   UNL     1       2.981   4.939  18.115  0.00  0.00    +0.000 A 
ATOM     20  C   UNL     1       1.787   4.257  17.871  0.00  0.00    +0.000 A 
ATOM     21  C   UNL     1       1.691   2.906  18.193  0.00  0.00    +0.000 A 
ATOM     22  C   UNL     1       2.777   2.294  18.796  0.00  0.00    +0.000 A 
ATOM     23  N   UNL     1       3.930   2.934  19.092  0.00  0.00    +0.000 NA
ATOM     24  C   UNL     1       4.002   4.243  18.748  0.00  0.00    +0.000 A 
ENDBRANCH  18  19
ENDBRANCH   4  18
TORSDOF 4
ENDMDL
MODEL 5
REMARK VINA RESULT:      -7.9      2.882      4.128
REMARK  Name = 
REMARK  4 active torsions:
REMARK  status: ('A' for Active; 'I' for Inactive)
REMARK    1  A    between atoms: C_4  and  C_5
REMARK    2  A    between atoms: N_8  and  C_9
REMARK    3  A    between atoms: C_12  and  O_13
REMARK    4  A    between atoms: O_13  and  C_14
REMARK                            x       y       z     vdW  Elec       q    Type
REMARK                         _______ _______ _______ _____ _____    ______ ____
ROOT
ATOM      1  C   UNL     1       1.327   8.633  20.290  0.00  0.00    +0.000 A 
ATOM      2  C   UNL     1       1.654   9.019  18.981  0.00  0.00    +0.000 A 
ATOM      3  C   UNL     1       2.366   8.134  18.163  0.00  0.00    +0.000 A 
ATOM      4  C   UNL     1       2.740   6.872  18.636  0.00  0.00    +0.000 A 
ATOM      5  C   UNL     1       2.338   6.461  19.907  0.00  0.00    +0.000 A 
ATOM      6  C   UNL     1       1.662   7.348  20.743  0.00  0.00    +0.000 A 
ENDROOT
BRANCH   1  10
ATOM      7  C   UNL     1      -0.706  10.898  21.908  0.00  0.00    +0.000 A 
ATOM      8  N   UNL     1       0.047  10.471  22.975  0.00  0.00    +0.000 NA
ATOM      9  N   UNL     1       0.925   9.593  22.501  0.00  0.00    +0.000 NA
ATOM     10  N   UNL     1       0.675   9.521  21.176  0.00  0.00    +0.000 N 
ATOM     11  N   UNL     1      -0.313  10.339  20.750  0.00  0.00    +0.000 NA
BRANCH   7  15
ATOM     12  C   UNL     1      -3.901  13.627  22.181  0.00  0.00    +0.000 A 
ATOM     13  C   UNL     1      -3.539  12.908  23.312  0.00  0.00    +0.000 A 
ATOM     14  C   UNL     1      -2.494  11.996  23.229  0.00  0.00    +0.000 A 
ATOM     15  C   UNL     1      -1.833  11.827  22.008  0.00  0.00    +0.000 A 
ATOM     16  N   UNL     1      -2.177  12.522  20.896  0.00  0.00    +0.000 NA
ATOM     17  C   UNL     1      -3.197  13.401  21.008  0.00  0.00    +0.000 A 
ENDBRANCH   7  15
ENDBRANCH   1  10
BRANCH   4  18
ATOM     18  O   UNL     1       3.461   6.079  17.769  0.00  0.00    +0.000 OA
BRANCH  18  19
ATOM     19  C   UNL     1       4.828   6.024  17.888  0.00  0.00    +0.000 A 
ATOM     20  C   UNL     1       5.727   6.797  17.152  0.00  0.00    +0.000 A 
ATOM     21  C   UNL     1       7.094   6.665  17.382  0.00  0.00    +0.000 A 
ATOM     22  C   UNL     1       7.518   5.725  18.307  0.00  0.00    +0.000 A 
ATOM     23  N   UNL     1       6.680   4.925  19.001  0.00  0.00    +0.000 NA
ATOM     24  C   UNL     1       5.355   5.091  18.772  0.00  0.00    +0.000 A 
ENDBRANCH  18  19
ENDBRANCH   4  18
TORSDOF 4
ENDMDL
MODEL 6
REMARK VINA RESULT:      -7.9      1.425      2.204
REMARK  Name = 
REMARK  4 active torsions:
REMARK  status: ('A' for Active; 'I' for Inactive)
REMARK    1  A    between atoms: C_4  and  C_5
REMARK    2  A    between atoms: N_8  and  C_9
REMARK    3  A    between atoms: C_12  and  O_13
REMARK    4  A    between atoms: O_13  and  C_14
REMARK                            x       y       z     vdW  Elec       q    Type
REMARK                         _______ _______ _______ _____ _____    ______ ____
ROOT
ATOM      1  C   UNL     1       2.302   7.912  18.773  0.00  0.00    +0.000 A 
ATOM      2  C   UNL     1       3.135   7.950  17.644  0.00  0.00    +0.000 A 
ATOM      3  C   UNL     1       4.088   6.942  17.461  0.00  0.00    +0.000 A 
ATOM      4  C   UNL     1       4.204   5.897  18.383  0.00  0.00    +0.000 A 
ATOM      5  C   UNL     1       3.316   5.817  19.455  0.00  0.00    +0.000 A 
ATOM      6  C   UNL     1       2.390   6.836  19.668  0.00  0.00    +0.000 A 
ENDROOT
BRANCH   1  10
ATOM      7  C   UNL     1       0.310  10.406  20.073  0.00  0.00    +0.000 A 
ATOM      8  N   UNL     1       0.024  10.564  18.738  0.00  0.00    +0.000 NA
ATOM      9  N   UNL     1       0.708   9.631  18.084  0.00  0.00    +0.000 NA
ATOM     10  N   UNL     1       1.377   8.947  19.037  0.00  0.00    +0.000 N 
ATOM     11  N   UNL     1       1.138   9.372  20.298  0.00  0.00    +0.000 NA
BRANCH   7  15
ATOM     12  C   UNL     1      -1.209  12.896  23.110  0.00  0.00    +0.000 A 
ATOM     13  C   UNL     1      -0.414  13.460  22.120  0.00  0.00    +0.000 A 
ATOM     14  C   UNL     1       0.102  12.643  21.121  0.00  0.00    +0.000 A 
ATOM     15  C   UNL     1      -0.194  11.277  21.136  0.00  0.00    +0.000 A 
ATOM     16  N   UNL     1      -0.968  10.714  22.096  0.00  0.00    +0.000 NA
ATOM     17  C   UNL     1      -1.455  11.533  23.055  0.00  0.00    +0.000 A 
ENDBRANCH   7  15
ENDBRANCH   1  10
BRANCH   4  18
ATOM     18  O   UNL     1       5.188   4.964  18.134  0.00  0.00    +0.000 OA
BRANCH  18  19
ATOM     19  C   UNL     1       5.708   4.855  16.868  0.00  0.00    +0.000 A 
ATOM     20  C   UNL     1       5.117   4.150  15.818  0.00  0.00    +0.000 A 
ATOM     21  C   UNL     1       5.733   4.134  14.570  0.00  0.00    +0.000 A 
ATOM     22  C   UNL     1       6.947   4.784  14.426  0.00  0.00    +0.000 A 
ATOM     23  N   UNL     1       7.573   5.434  15.432  0.00  0.00    +0.000 NA
ATOM     24  C   UNL     1       6.939   5.450  16.630  0.00  0.00    +0.000 A 
ENDBRANCH  18  19
ENDBRANCH   4  18
TORSDOF 4
ENDMDL
MODEL 7
REMARK VINA RESULT:      -7.8      2.932      4.273
REMARK  Name = 
REMARK  4 active torsions:
REMARK  status: ('A' for Active; 'I' for Inactive)
REMARK    1  A    between atoms: C_4  and  C_5
REMARK    2  A    between atoms: N_8  and  C_9
REMARK    3  A    between atoms: C_12  and  O_13
REMARK    4  A    between atoms: O_13  and  C_14
REMARK                            x       y       z     vdW  Elec       q    Type
REMARK                         _______ _______ _______ _____ _____    ______ ____
ROOT
ATOM      1  C   UNL     1       1.285   9.307  19.841  0.00  0.00    +0.000 A 
ATOM      2  C   UNL     1       1.635   9.372  18.484  0.00  0.00    +0.000 A 
ATOM      3  C   UNL     1       2.294   8.289  17.892  0.00  0.00    +0.000 A 
ATOM      4  C   UNL     1       2.592   7.144  18.639  0.00  0.00    +0.000 A 
ATOM      5  C   UNL     1       2.166   7.050  19.963  0.00  0.00    +0.000 A 
ATOM      6  C   UNL     1       1.542   8.137  20.572  0.00  0.00    +0.000 A 
ENDROOT
BRANCH   1  10
ATOM      7  C   UNL     1      -0.768  11.599  21.394  0.00  0.00    +0.000 A 
ATOM      8  N   UNL     1       0.452  12.173  21.662  0.00  0.00    +0.000 NA
ATOM      9  N   UNL     1       1.373  11.406  21.088  0.00  0.00    +0.000 NA
ATOM     10  N   UNL     1       0.685  10.405  20.498  0.00  0.00    +0.000 N 
ATOM     11  N   UNL     1      -0.656  10.497  20.633  0.00  0.00    +0.000 NA
BRANCH   7  15
ATOM     12  C   UNL     1      -4.467  12.967  22.870  0.00  0.00    +0.000 A 
ATOM     13  C   UNL     1      -4.184  13.134  21.521  0.00  0.00    +0.000 A 
ATOM     14  C   UNL     1      -2.960  12.697  21.027  0.00  0.00    +0.000 A 
ATOM     15  C   UNL     1      -2.047  12.099  21.900  0.00  0.00    +0.000 A 
ATOM     16  N   UNL     1      -2.310  11.930  23.220  0.00  0.00    +0.000 NA
ATOM     17  C   UNL     1      -3.507  12.366  23.671  0.00  0.00    +0.000 A 
ENDBRANCH   7  15
ENDBRANCH   1  10
BRANCH   4  18
ATOM     18  O   UNL     1       3.267   6.138  17.980  0.00  0.00    +0.000 OA
BRANCH  18  19
ATOM     19  C   UNL     1       4.635   6.073  18.072  0.00  0.00    +0.000 A 
ATOM     20  C   UNL     1       5.527   6.721  17.216  0.00  0.00    +0.000 A 
ATOM     21  C   UNL     1       6.897   6.595  17.429  0.00  0.00    +0.000 A 
ATOM     22  C   UNL     1       7.331   5.783  18.464  0.00  0.00    +0.000 A 
ATOM     23  N   UNL     1       6.498   5.102  19.281  0.00  0.00    +0.000 NA
ATOM     24  C   UNL     1       5.170   5.260  19.063  0.00  0.00    +0.000 A 
ENDBRANCH  18  19
ENDBRANCH   4  18
TORSDOF 4
ENDMDL
MODEL 8
REMARK VINA RESULT:      -7.8      4.023      5.955
REMARK  Name = 
REMARK  4 active torsions:
REMARK  status: ('A' for Active; 'I' for Inactive)
REMARK    1  A    between atoms: C_4  and  C_5
REMARK    2  A    between atoms: N_8  and  C_9
REMARK    3  A    between atoms: C_12  and  O_13
REMARK    4  A    between atoms: O_13  and  C_14
REMARK                            x       y       z     vdW  Elec       q    Type
REMARK                         _______ _______ _______ _____ _____    ______ ____
ROOT
ATOM      1  C   UNL     1       1.092   9.864  19.007  0.00  0.00    +0.000 A 
ATOM      2  C   UNL     1       1.732   9.235  17.928  0.00  0.00    +0.000 A 
ATOM      3  C   UNL     1       2.341   7.990  18.122  0.00  0.00    +0.000 A 
ATOM      4  C   UNL     1       2.305   7.368  19.374  0.00  0.00    +0.000 A 
ATOM      5  C   UNL     1       1.594   7.957  20.420  0.00  0.00    +0.000 A 
ATOM      6  C   UNL     1       1.017   9.213  20.248  0.00  0.00    +0.000 A 
ENDROOT
BRANCH   1  10
ATOM      7  C   UNL     1       0.387  13.227  18.743  0.00  0.00    +0.000 A 
ATOM      8  N   UNL     1      -0.843  12.713  18.407  0.00  0.00    +0.000 NA
ATOM      9  N   UNL     1      -0.745  11.391  18.494  0.00  0.00    +0.000 NA
ATOM     10  N   UNL     1       0.529  11.153  18.876  0.00  0.00    +0.000 N 
ATOM     11  N   UNL     1       1.267  12.267  19.076  0.00  0.00    +0.000 NA
BRANCH   7  15
ATOM     12  C   UNL     1       1.324  17.330  18.593  0.00  0.00    +0.000 A 
ATOM     13  C   UNL     1       2.362  16.408  18.595  0.00  0.00    +0.000 A 
ATOM     14  C   UNL     1       2.063  15.052  18.657  0.00  0.00    +0.000 A 
ATOM     15  C   UNL     1       0.725  14.651  18.714  0.00  0.00    +0.000 A 
ATOM     16  N   UNL     1      -0.298  15.541  18.714  0.00  0.00    +0.000 NA
ATOM     17  C   UNL     1       0.024  16.852  18.654  0.00  0.00    +0.000 A 
ENDBRANCH   7  15
ENDBRANCH   1  10
BRANCH   4  18
ATOM     18  O   UNL     1       2.955   6.156  19.478  0.00  0.00    +0.000 OA
BRANCH  18  19
ATOM     19  C   UNL     1       2.234   4.994  19.355  0.00  0.00    +0.000 A 
ATOM     20  C   UNL     1       1.625   4.315  20.412  0.00  0.00    +0.000 A 
ATOM     21  C   UNL     1       0.900   3.155  20.154  0.00  0.00    +0.000 A 
ATOM     22  C   UNL     1       0.851   2.685  18.852  0.00  0.00    +0.000 A 
ATOM     23  N   UNL     1       1.469   3.288  17.813  0.00  0.00    +0.000 NA
ATOM     24  C   UNL     1       2.149   4.426  18.091  0.00  0.00    +0.000 A 
ENDBRANCH  18  19
ENDBRANCH   4  18
TORSDOF 4
ENDMDL
MODEL 9
REMARK VINA RESULT:      -7.8      3.711      4.808
REMARK  Name = 
REMARK  4 active torsions:
REMARK  status: ('A' for Active; 'I' for Inactive)
REMARK    1  A    between atoms: C_4  and  C_5
REMARK    2  A    between atoms: N_8  and  C_9
REMARK    3  A    between atoms: C_12  and  O_13
REMARK    4  A    between atoms: O_13  and  C_14
REMARK                            x       y       z     vdW  Elec       q    Type
REMARK                         _______ _______ _______ _____ _____    ______ ____
ROOT
ATOM      1  C   UNL     1       1.214   9.346  19.856  0.00  0.00    +0.000 A 
ATOM      2  C   UNL     1       1.511   9.405  18.485  0.00  0.00    +0.000 A 
ATOM      3  C   UNL     1       2.171   8.329  17.880  0.00  0.00    +0.000 A 
ATOM      4  C   UNL     1       2.522   7.199  18.625  0.00  0.00    +0.000 A 
ATOM      5  C   UNL     1       2.148   7.110  19.966  0.00  0.00    +0.000 A 
ATOM      6  C   UNL     1       1.525   8.190  20.588  0.00  0.00    +0.000 A 
ENDROOT
BRANCH   1  10
ATOM      7  C   UNL     1      -0.836  11.625  21.432  0.00  0.00    +0.000 A 
ATOM      8  N   UNL     1       0.385  12.192  21.710  0.00  0.00    +0.000 NA
ATOM      9  N   UNL     1       1.306  11.429  21.130  0.00  0.00    +0.000 NA
ATOM     10  N   UNL     1       0.616  10.438  20.525  0.00  0.00    +0.000 N 
ATOM     11  N   UNL     1      -0.725  10.532  20.657  0.00  0.00    +0.000 NA
BRANCH   7  15
ATOM     12  C   UNL     1      -4.494  13.126  22.880  0.00  0.00    +0.000 A 
ATOM     13  C   UNL     1      -3.649  12.464  23.761  0.00  0.00    +0.000 A 
ATOM     14  C   UNL     1      -2.445  11.953  23.289  0.00  0.00    +0.000 A 
ATOM     15  C   UNL     1      -2.114  12.122  21.941  0.00  0.00    +0.000 A 
ATOM     16  N   UNL     1      -2.931  12.766  21.070  0.00  0.00    +0.000 NA
ATOM     17  C   UNL     1      -4.095  13.250  21.557  0.00  0.00    +0.000 A 
ENDBRANCH   7  15
ENDBRANCH   1  10
BRANCH   4  18
ATOM     18  O   UNL     1       3.193   6.202  17.950  0.00  0.00    +0.000 OA
BRANCH  18  19
ATOM     19  C   UNL     1       2.883   4.890  18.208  0.00  0.00    +0.000 A 
ATOM     20  C   UNL     1       3.720   3.982  18.859  0.00  0.00    +0.000 A 
ATOM     21  C   UNL     1       3.280   2.680  19.082  0.00  0.00    +0.000 A 
ATOM     22  C   UNL     1       2.033   2.315  18.601  0.00  0.00    +0.000 A 
ATOM     23  N   UNL     1       1.217   3.152  17.924  0.00  0.00    +0.000 NA
ATOM     24  C   UNL     1       1.663   4.418  17.740  0.00  0.00    +0.000 A 
ENDBRANCH  18  19
ENDBRANCH   4  18
TORSDOF 4
ENDMDL
