MODEL 1
REMARK VINA RESULT:      -8.7      0.000      0.000
REMARK  Name = 
REMARK  4 active torsions:
REMARK  status: ('A' for Active; 'I' for Inactive)
REMARK    1  A    between atoms: C_1  and  C_2
REMARK    2  A    between atoms: C_9  and  C_10
REMARK    3  A    between atoms: N_12  and  C_13
REMARK    4  A    between atoms: C_13  and  C_14
REMARK                            x       y       z     vdW  Elec       q    Type
REMARK                         _______ _______ _______ _____ _____    ______ ____
ROOT
ATOM      1  C   UNL     1      10.822  16.121  18.117  0.00  0.00    +0.000 C 
ATOM      2  C   UNL     1      10.600  14.685  18.496  0.00  0.00    +0.000 A 
ATOM      3  C   UNL     1      11.383  14.121  19.500  0.00  0.00    +0.000 A 
ATOM      4  C   UNL     1      11.170  12.806  19.876  0.00  0.00    +0.000 A 
ATOM      5  C   UNL     1      10.193  12.040  19.232  0.00  0.00    +0.000 A 
ATOM      6  C   UNL     1      10.039  10.725  19.641  0.00  0.00    +0.000 A 
ATOM      7  C   UNL     1       9.144   9.938  18.930  0.00  0.00    +0.000 A 
ATOM      8  C   UNL     1       8.790   8.585  18.987  0.00  0.00    +0.000 A 
ATOM      9  C   UNL     1       7.951   8.342  17.922  0.00  0.00    +0.000 A 
ATOM     10  O   UNL     1       7.679   9.518  17.257  0.00  0.00    +0.000 OA
ATOM     11  C   UNL     1       8.427  10.506  17.879  0.00  0.00    +0.000 A 
ATOM     12  N   UNL     1       8.486  11.802  17.497  0.00  0.00    +0.000 NA
ATOM     13  C   UNL     1       9.393  12.550  18.182  0.00  0.00    +0.000 A 
ATOM     14  C   UNL     1       9.609  13.897  17.862  0.00  0.00    +0.000 A 
ENDROOT
BRANCH   9  15
ATOM     15  C   UNL     1       7.495   7.023  17.528  0.00  0.00    +0.000 C 
ATOM     16  O   UNL     1       7.546   6.678  16.347  0.00  0.00    +0.000 OA
ATOM     17  N   UNL     1       6.983   6.171  18.477  0.00  0.00    +0.000 N 
ATOM     18  H   UNL     1       7.048   6.407  19.461  0.00  0.00    +0.000 HD
BRANCH  17  19
ATOM     19  C   UNL     1       6.534   4.859  18.054  0.00  0.00    +0.000 C 
BRANCH  19  20
ATOM     20  C   UNL     1       5.077   4.640  18.348  0.00  0.00    +0.000 A 
ATOM     21  C   UNL     1       4.084   5.361  17.647  0.00  0.00    +0.000 A 
ATOM     22  C   UNL     1       2.728   5.098  17.859  0.00  0.00    +0.000 A 
ATOM     23  C   UNL     1       2.404   4.099  18.750  0.00  0.00    +0.000 A 
ATOM     24  C   UNL     1       3.364   3.419  19.462  0.00  0.00    +0.000 A 
ATOM     25  C   UNL     1       4.705   3.676  19.299  0.00  0.00    +0.000 A 
ATOM     26  O   UNL     1       2.830   2.461  20.267  0.00  0.00    +0.000 OA
ATOM     27  C   UNL     1       1.483   2.441  19.756  0.00  0.00    +0.000 C 
ATOM     28  O   UNL     1       1.152   3.628  19.006  0.00  0.00    +0.000 OA
ENDBRANCH  19  20
ENDBRANCH  17  19
ENDBRANCH   9  15
TORSDOF 3
ENDMDL
MODEL 2
REMARK VINA RESULT:      -8.3      6.395      8.843
REMARK  Name = 
REMARK  4 active torsions:
REMARK  status: ('A' for Active; 'I' for Inactive)
REMARK    1  A    between atoms: C_1  and  C_2
REMARK    2  A    between atoms: C_9  and  C_10
REMARK    3  A    between atoms: N_12  and  C_13
REMARK    4  A    between atoms: C_13  and  C_14
REMARK                            x       y       z     vdW  Elec       q    Type
REMARK                         _______ _______ _______ _____ _____    ______ ____
ROOT
ATOM      1  C   UNL     1      -3.002  14.279  24.064  0.00  0.00    +0.000 C 
ATOM      2  C   UNL     1      -2.299  13.425  23.048  0.00  0.00    +0.000 A 
ATOM      3  C   UNL     1      -2.482  13.695  21.694  0.00  0.00    +0.000 A 
ATOM      4  C   UNL     1      -1.819  12.932  20.749  0.00  0.00    +0.000 A 
ATOM      5  C   UNL     1      -0.992  11.878  21.150  0.00  0.00    +0.000 A 
ATOM      6  C   UNL     1      -0.369  11.140  20.157  0.00  0.00    +0.000 A 
ATOM      7  C   UNL     1       0.364  10.031  20.554  0.00  0.00    +0.000 A 
ATOM      8  C   UNL     1       1.044   9.023  19.859  0.00  0.00    +0.000 A 
ATOM      9  C   UNL     1       1.458   8.099  20.793  0.00  0.00    +0.000 A 
ATOM     10  O   UNL     1       1.157   8.542  22.062  0.00  0.00    +0.000 OA
ATOM     11  C   UNL     1       0.470   9.736  21.911  0.00  0.00    +0.000 A 
ATOM     12  N   UNL     1      -0.053  10.473  22.918  0.00  0.00    +0.000 NA
ATOM     13  C   UNL     1      -0.798  11.536  22.510  0.00  0.00    +0.000 A 
ATOM     14  C   UNL     1      -1.451  12.360  23.435  0.00  0.00    +0.000 A 
ENDROOT
BRANCH   9  15
ATOM     15  C   UNL     1       2.053   6.818  20.463  0.00  0.00    +0.000 C 
ATOM     16  O   UNL     1       1.631   5.787  20.987  0.00  0.00    +0.000 OA
ATOM     17  N   UNL     1       3.107   6.766  19.581  0.00  0.00    +0.000 N 
ATOM     18  H   UNL     1       3.377   7.594  19.063  0.00  0.00    +0.000 HD
BRANCH  17  19
ATOM     19  C   UNL     1       3.681   5.472  19.271  0.00  0.00    +0.000 C 
BRANCH  19  20
ATOM     20  C   UNL     1       4.744   5.567  18.214  0.00  0.00    +0.000 A 
ATOM     21  C   UNL     1       6.068   5.927  18.552  0.00  0.00    +0.000 A 
ATOM     22  C   UNL     1       7.077   5.933  17.584  0.00  0.00    +0.000 A 
ATOM     23  C   UNL     1       6.734   5.553  16.304  0.00  0.00    +0.000 A 
ATOM     24  C   UNL     1       5.441   5.237  15.961  0.00  0.00    +0.000 A 
ATOM     25  C   UNL     1       4.421   5.251  16.883  0.00  0.00    +0.000 A 
ATOM     26  O   UNL     1       5.328   4.868  14.657  0.00  0.00    +0.000 OA
ATOM     27  C   UNL     1       6.722   4.718  14.326  0.00  0.00    +0.000 C 
ATOM     28  O   UNL     1       7.592   5.393  15.259  0.00  0.00    +0.000 OA
ENDBRANCH  19  20
ENDBRANCH  17  19
ENDBRANCH   9  15
TORSDOF 3
ENDMDL
MODEL 3
REMARK VINA RESULT:      -8.1      5.992      8.279
REMARK  Name = 
REMARK  4 active torsions:
REMARK  status: ('A' for Active; 'I' for Inactive)
REMARK    1  A    between atoms: C_1  and  C_2
REMARK    2  A    between atoms: C_9  and  C_10
REMARK    3  A    between atoms: N_12  and  C_13
REMARK    4  A    between atoms: C_13  and  C_14
REMARK                            x       y       z     vdW  Elec       q    Type
REMARK                         _______ _______ _______ _____ _____    ______ ____
ROOT
ATOM      1  C   UNL     1      -2.698  12.690  21.520  0.00  0.00    +0.000 C 
ATOM      2  C   UNL     1      -1.794  11.906  20.613  0.00  0.00    +0.000 A 
ATOM      3  C   UNL     1      -1.862  12.122  19.239  0.00  0.00    +0.000 A 
ATOM      4  C   UNL     1      -1.016  11.425  18.395  0.00  0.00    +0.000 A 
ATOM      5  C   UNL     1      -0.118  10.488  18.915  0.00  0.00    +0.000 A 
ATOM      6  C   UNL     1       0.691   9.809  18.019  0.00  0.00    +0.000 A 
ATOM      7  C   UNL     1       1.504   8.807  18.527  0.00  0.00    +0.000 A 
ATOM      8  C   UNL     1       2.369   7.874  17.942  0.00  0.00    +0.000 A 
ATOM      9  C   UNL     1       2.788   7.028  18.945  0.00  0.00    +0.000 A 
ATOM     10  O   UNL     1       2.302   7.459  20.160  0.00  0.00    +0.000 OA
ATOM     11  C   UNL     1       1.498   8.557  19.898  0.00  0.00    +0.000 A 
ATOM     12  N   UNL     1       0.787   9.247  20.819  0.00  0.00    +0.000 NA
ATOM     13  C   UNL     1      -0.031  10.202  20.299  0.00  0.00    +0.000 A 
ATOM     14  C   UNL     1      -0.872  10.961  21.123  0.00  0.00    +0.000 A 
ENDROOT
BRANCH   9  15
ATOM     15  C   UNL     1       3.562   5.822  18.723  0.00  0.00    +0.000 C 
ATOM     16  O   UNL     1       3.011   4.721  18.744  0.00  0.00    +0.000 OA
ATOM     17  N   UNL     1       4.918   5.915  18.516  0.00  0.00    +0.000 N 
ATOM     18  H   UNL     1       5.351   6.821  18.382  0.00  0.00    +0.000 HD
BRANCH  17  19
ATOM     19  C   UNL     1       5.666   4.692  18.297  0.00  0.00    +0.000 C 
BRANCH  19  20
ATOM     20  C   UNL     1       5.942   4.454  16.840  0.00  0.00    +0.000 A 
ATOM     21  C   UNL     1       5.066   3.669  16.058  0.00  0.00    +0.000 A 
ATOM     22  C   UNL     1       5.275   3.517  14.684  0.00  0.00    +0.000 A 
ATOM     23  C   UNL     1       6.347   4.179  14.126  0.00  0.00    +0.000 A 
ATOM     24  C   UNL     1       7.225   4.914  14.888  0.00  0.00    +0.000 A 
ATOM     25  C   UNL     1       7.063   5.058  16.246  0.00  0.00    +0.000 A 
ATOM     26  O   UNL     1       8.195   5.502  14.136  0.00  0.00    +0.000 OA
ATOM     27  C   UNL     1       7.648   5.281  12.821  0.00  0.00    +0.000 C 
ATOM     28  O   UNL     1       6.649   4.240  12.800  0.00  0.00    +0.000 OA
ENDBRANCH  19  20
ENDBRANCH  17  19
ENDBRANCH   9  15
TORSDOF 3
ENDMDL
MODEL 4
REMARK VINA RESULT:      -8.1      7.381      9.009
REMARK  Name = 
REMARK  4 active torsions:
REMARK  status: ('A' for Active; 'I' for Inactive)
REMARK    1  A    between atoms: C_1  and  C_2
REMARK    2  A    between atoms: C_9  and  C_10
REMARK    3  A    between atoms: N_12  and  C_13
REMARK    4  A    between atoms: C_13  and  C_14
REMARK                            x       y       z     vdW  Elec       q    Type
REMARK                         _______ _______ _______ _____ _____    ______ ____
ROOT
ATOM      1  C   UNL     1      -2.884  14.893  25.354  0.00  0.00    +0.000 C 
ATOM      2  C   UNL     1      -2.695  14.127  24.076  0.00  0.00    +0.000 A 
ATOM      3  C   UNL     1      -3.814  13.777  23.325  0.00  0.00    +0.000 A 
ATOM      4  C   UNL     1      -3.651  13.094  22.132  0.00  0.00    +0.000 A 
ATOM      5  C   UNL     1      -2.372  12.733  21.698  0.00  0.00    +0.000 A 
ATOM      6  C   UNL     1      -2.274  12.036  20.505  0.00  0.00    +0.000 A 
ATOM      7  C   UNL     1      -1.016  11.587  20.131  0.00  0.00    +0.000 A 
ATOM      8  C   UNL     1      -0.545  10.802  19.071  0.00  0.00    +0.000 A 
ATOM      9  C   UNL     1       0.790  10.562  19.310  0.00  0.00    +0.000 A 
ATOM     10  O   UNL     1       1.203  11.257  20.426  0.00  0.00    +0.000 OA
ATOM     11  C   UNL     1       0.079  11.885  20.939  0.00  0.00    +0.000 A 
ATOM     12  N   UNL     1       0.044  12.630  22.068  0.00  0.00    +0.000 NA
ATOM     13  C   UNL     1      -1.203  13.031  22.438  0.00  0.00    +0.000 A 
ATOM     14  C   UNL     1      -1.407  13.762  23.615  0.00  0.00    +0.000 A 
ENDROOT
BRANCH   9  15
ATOM     15  C   UNL     1       1.605   9.647  18.534  0.00  0.00    +0.000 C 
ATOM     16  O   UNL     1       2.096  10.011  17.465  0.00  0.00    +0.000 OA
ATOM     17  N   UNL     1       1.803   8.364  18.986  0.00  0.00    +0.000 N 
ATOM     18  H   UNL     1       1.498   8.100  19.916  0.00  0.00    +0.000 HD
BRANCH  17  19
ATOM     19  C   UNL     1       2.621   7.472  18.188  0.00  0.00    +0.000 C 
BRANCH  19  20
ATOM     20  C   UNL     1       2.494   6.043  18.634  0.00  0.00    +0.000 A 
ATOM     21  C   UNL     1       2.658   4.983  17.713  0.00  0.00    +0.000 A 
ATOM     22  C   UNL     1       2.625   3.653  18.143  0.00  0.00    +0.000 A 
ATOM     23  C   UNL     1       2.452   3.421  19.490  0.00  0.00    +0.000 A 
ATOM     24  C   UNL     1       2.255   4.447  20.385  0.00  0.00    +0.000 A 
ATOM     25  C   UNL     1       2.252   5.764  19.990  0.00  0.00    +0.000 A 
ATOM     26  O   UNL     1       2.130   4.001  21.663  0.00  0.00    +0.000 OA
ATOM     27  C   UNL     1       2.556   2.636  21.485  0.00  0.00    +0.000 C 
ATOM     28  O   UNL     1       2.500   2.210  20.107  0.00  0.00    +0.000 OA
ENDBRANCH  19  20
ENDBRANCH  17  19
ENDBRANCH   9  15
TORSDOF 3
ENDMDL
MODEL 5
REMARK VINA RESULT:      -8.1      6.224      9.405
REMARK  Name = 
REMARK  4 active torsions:
REMARK  status: ('A' for Active; 'I' for Inactive)
REMARK    1  A    between atoms: C_1  and  C_2
REMARK    2  A    between atoms: C_9  and  C_10
REMARK    3  A    between atoms: N_12  and  C_13
REMARK    4  A    between atoms: C_13  and  C_14
REMARK                            x       y       z     vdW  Elec       q    Type
REMARK                         _______ _______ _______ _____ _____    ______ ____
ROOT
ATOM      1  C   UNL     1       6.859   4.303  13.771  0.00  0.00    +0.000 C 
ATOM      2  C   UNL     1       6.004   4.559  14.979  0.00  0.00    +0.000 A 
ATOM      3  C   UNL     1       5.639   3.487  15.790  0.00  0.00    +0.000 A 
ATOM      4  C   UNL     1       4.873   3.714  16.920  0.00  0.00    +0.000 A 
ATOM      5  C   UNL     1       4.444   5.009  17.230  0.00  0.00    +0.000 A 
ATOM      6  C   UNL     1       3.665   5.170  18.364  0.00  0.00    +0.000 A 
ATOM      7  C   UNL     1       3.153   6.436  18.610  0.00  0.00    +0.000 A 
ATOM      8  C   UNL     1       2.284   6.956  19.577  0.00  0.00    +0.000 A 
ATOM      9  C   UNL     1       2.018   8.259  19.221  0.00  0.00    +0.000 A 
ATOM     10  O   UNL     1       2.773   8.613  18.124  0.00  0.00    +0.000 OA
ATOM     11  C   UNL     1       3.470   7.477  17.741  0.00  0.00    +0.000 A 
ATOM     12  N   UNL     1       4.289   7.385  16.669  0.00  0.00    +0.000 NA
ATOM     13  C   UNL     1       4.754   6.129  16.423  0.00  0.00    +0.000 A 
ATOM     14  C   UNL     1       5.568   5.863  15.314  0.00  0.00    +0.000 A 
ENDROOT
BRANCH   9  15
ATOM     15  C   UNL     1       1.028   9.096  19.872  0.00  0.00    +0.000 C 
ATOM     16  O   UNL     1       0.567   8.771  20.967  0.00  0.00    +0.000 OA
ATOM     17  N   UNL     1       0.590  10.239  19.247  0.00  0.00    +0.000 N 
ATOM     18  H   UNL     1       1.050  10.567  18.406  0.00  0.00    +0.000 HD
BRANCH  17  19
ATOM     19  C   UNL     1      -0.401  11.055  19.921  0.00  0.00    +0.000 C 
BRANCH  19  20
ATOM     20  C   UNL     1      -1.697  11.109  19.162  0.00  0.00    +0.000 A 
ATOM     21  C   UNL     1      -1.949  10.211  18.101  0.00  0.00    +0.000 A 
ATOM     22  C   UNL     1      -3.187  10.204  17.451  0.00  0.00    +0.000 A 
ATOM     23  C   UNL     1      -4.148  11.082  17.900  0.00  0.00    +0.000 A 
ATOM     24  C   UNL     1      -3.896  11.984  18.907  0.00  0.00    +0.000 A 
ATOM     25  C   UNL     1      -2.679  12.037  19.546  0.00  0.00    +0.000 A 
ATOM     26  O   UNL     1      -4.986  12.739  19.210  0.00  0.00    +0.000 OA
ATOM     27  C   UNL     1      -5.994  12.009  18.484  0.00  0.00    +0.000 C 
ATOM     28  O   UNL     1      -5.438  11.148  17.469  0.00  0.00    +0.000 OA
ENDBRANCH  19  20
ENDBRANCH  17  19
ENDBRANCH   9  15
TORSDOF 3
ENDMDL
MODEL 6
REMARK VINA RESULT:      -8.0      7.628     10.574
REMARK  Name = 
REMARK  4 active torsions:
REMARK  status: ('A' for Active; 'I' for Inactive)
REMARK    1  A    between atoms: C_1  and  C_2
REMARK    2  A    between atoms: C_9  and  C_10
REMARK    3  A    between atoms: N_12  and  C_13
REMARK    4  A    between atoms: C_13  and  C_14
REMARK                            x       y       z     vdW  Elec       q    Type
REMARK                         _______ _______ _______ _____ _____    ______ ____
ROOT
ATOM      1  C   UNL     1       4.521   2.600  19.683  0.00  0.00    +0.000 C 
ATOM      2  C   UNL     1       4.078   3.944  19.181  0.00  0.00    +0.000 A 
ATOM      3  C   UNL     1       4.583   4.413  17.971  0.00  0.00    +0.000 A 
ATOM      4  C   UNL     1       4.163   5.639  17.484  0.00  0.00    +0.000 A 
ATOM      5  C   UNL     1       3.259   6.414  18.217  0.00  0.00    +0.000 A 
ATOM      6  C   UNL     1       2.890   7.639  17.686  0.00  0.00    +0.000 A 
ATOM      7  C   UNL     1       2.077   8.451  18.465  0.00  0.00    +0.000 A 
ATOM      8  C   UNL     1       1.579   9.751  18.311  0.00  0.00    +0.000 A 
ATOM      9  C   UNL     1       0.948  10.082  19.490  0.00  0.00    +0.000 A 
ATOM     10  O   UNL     1       0.937   8.998  20.341  0.00  0.00    +0.000 OA
ATOM     11  C   UNL     1       1.646   7.991  19.706  0.00  0.00    +0.000 A 
ATOM     12  N   UNL     1       1.915   6.772  20.229  0.00  0.00    +0.000 NA
ATOM     13  C   UNL     1       2.742   6.003  19.469  0.00  0.00    +0.000 A 
ATOM     14  C   UNL     1       3.157   4.738  19.904  0.00  0.00    +0.000 A 
ENDROOT
BRANCH   9  15
ATOM     15  C   UNL     1       0.443  11.406  19.800  0.00  0.00    +0.000 C 
ATOM     16  O   UNL     1       1.153  12.213  20.402  0.00  0.00    +0.000 OA
ATOM     17  N   UNL     1      -0.839  11.745  19.441  0.00  0.00    +0.000 N 
ATOM     18  H   UNL     1      -1.381  11.128  18.847  0.00  0.00    +0.000 HD
BRANCH  17  19
ATOM     19  C   UNL     1      -1.317  13.075  19.765  0.00  0.00    +0.000 C 
BRANCH  19  20
ATOM     20  C   UNL     1      -2.488  13.040  20.705  0.00  0.00    +0.000 A 
ATOM     21  C   UNL     1      -3.799  12.840  20.217  0.00  0.00    +0.000 A 
ATOM     22  C   UNL     1      -4.878  12.722  21.098  0.00  0.00    +0.000 A 
ATOM     23  C   UNL     1      -4.609  12.782  22.448  0.00  0.00    +0.000 A 
ATOM     24  C   UNL     1      -3.341  13.013  22.927  0.00  0.00    +0.000 A 
ATOM     25  C   UNL     1      -2.263  13.164  22.086  0.00  0.00    +0.000 A 
ATOM     26  O   UNL     1      -3.294  13.011  24.287  0.00  0.00    +0.000 OA
ATOM     27  C   UNL     1      -4.601  12.474  24.572  0.00  0.00    +0.000 C 
ATOM     28  O   UNL     1      -5.505  12.582  23.453  0.00  0.00    +0.000 OA
ENDBRANCH  19  20
ENDBRANCH  17  19
ENDBRANCH   9  15
TORSDOF 3
ENDMDL
MODEL 7
REMARK VINA RESULT:      -8.0      7.154      9.916
REMARK  Name = 
REMARK  4 active torsions:
REMARK  status: ('A' for Active; 'I' for Inactive)
REMARK    1  A    between atoms: C_1  and  C_2
REMARK    2  A    between atoms: C_9  and  C_10
REMARK    3  A    between atoms: N_12  and  C_13
REMARK    4  A    between atoms: C_13  and  C_14
REMARK                            x       y       z     vdW  Elec       q    Type
REMARK                         _______ _______ _______ _____ _____    ______ ____
ROOT
ATOM      1  C   UNL     1       6.489   4.131  15.707  0.00  0.00    +0.000 C 
ATOM      2  C   UNL     1       5.502   4.799  16.620  0.00  0.00    +0.000 A 
ATOM      3  C   UNL     1       5.041   4.110  17.739  0.00  0.00    +0.000 A 
ATOM      4  C   UNL     1       4.150   4.726  18.602  0.00  0.00    +0.000 A 
ATOM      5  C   UNL     1       3.694   6.021  18.336  0.00  0.00    +0.000 A 
ATOM      6  C   UNL     1       2.791   6.576  19.227  0.00  0.00    +0.000 A 
ATOM      7  C   UNL     1       2.260   7.817  18.905  0.00  0.00    +0.000 A 
ATOM      8  C   UNL     1       1.287   8.635  19.494  0.00  0.00    +0.000 A 
ATOM      9  C   UNL     1       1.071   9.688  18.633  0.00  0.00    +0.000 A 
ATOM     10  O   UNL     1       1.950   9.620  17.574  0.00  0.00    +0.000 OA
ATOM     11  C   UNL     1       2.680   8.453  17.739  0.00  0.00    +0.000 A 
ATOM     12  N   UNL     1       3.618   7.987  16.883  0.00  0.00    +0.000 NA
ATOM     13  C   UNL     1       4.101   6.754  17.196  0.00  0.00    +0.000 A 
ATOM     14  C   UNL     1       5.036   6.113  16.373  0.00  0.00    +0.000 A 
ENDROOT
BRANCH   9  15
ATOM     15  C   UNL     1       0.017  10.670  18.796  0.00  0.00    +0.000 C 
ATOM     16  O   UNL     1      -1.077  10.499  18.256  0.00  0.00    +0.000 OA
ATOM     17  N   UNL     1       0.255  11.804  19.535  0.00  0.00    +0.000 N 
ATOM     18  H   UNL     1       1.109  11.891  20.073  0.00  0.00    +0.000 HD
BRANCH  17  19
ATOM     19  C   UNL     1      -0.818  12.769  19.680  0.00  0.00    +0.000 C 
BRANCH  19  20
ATOM     20  C   UNL     1      -1.652  12.503  20.901  0.00  0.00    +0.000 A 
ATOM     21  C   UNL     1      -1.062  12.002  22.083  0.00  0.00    +0.000 A 
ATOM     22  C   UNL     1      -1.821  11.836  23.245  0.00  0.00    +0.000 A 
ATOM     23  C   UNL     1      -3.149  12.200  23.197  0.00  0.00    +0.000 A 
ATOM     24  C   UNL     1      -3.738  12.653  22.039  0.00  0.00    +0.000 A 
ATOM     25  C   UNL     1      -3.025  12.800  20.872  0.00  0.00    +0.000 A 
ATOM     26  O   UNL     1      -5.046  12.979  22.218  0.00  0.00    +0.000 OA
ATOM     27  C   UNL     1      -5.109  12.947  23.657  0.00  0.00    +0.000 C 
ATOM     28  O   UNL     1      -4.015  12.213  24.247  0.00  0.00    +0.000 OA
ENDBRANCH  19  20
ENDBRANCH  17  19
ENDBRANCH   9  15
TORSDOF 3
ENDMDL
MODEL 8
REMARK VINA RESULT:      -7.9      1.732      2.397
REMARK  Name = 
REMARK  4 active torsions:
REMARK  status: ('A' for Active; 'I' for Inactive)
REMARK    1  A    between atoms: C_1  and  C_2
REMARK    2  A    between atoms: C_9  and  C_10
REMARK    3  A    between atoms: N_12  and  C_13
REMARK    4  A    between atoms: C_13  and  C_14
REMARK                            x       y       z     vdW  Elec       q    Type
REMARK                         _______ _______ _______ _____ _____    ______ ____
ROOT
ATOM      1  C   UNL     1      10.751  15.497  21.785  0.00  0.00    +0.000 C 
ATOM      2  C   UNL     1      10.182  14.553  20.765  0.00  0.00    +0.000 A 
ATOM      3  C   UNL     1       9.548  15.075  19.640  0.00  0.00    +0.000 A 
ATOM      4  C   UNL     1       9.042  14.215  18.680  0.00  0.00    +0.000 A 
ATOM      5  C   UNL     1       9.142  12.831  18.853  0.00  0.00    +0.000 A 
ATOM      6  C   UNL     1       8.601  12.023  17.867  0.00  0.00    +0.000 A 
ATOM      7  C   UNL     1       8.607  10.654  18.091  0.00  0.00    +0.000 A 
ATOM      8  C   UNL     1       8.092   9.557  17.389  0.00  0.00    +0.000 A 
ATOM      9  C   UNL     1       8.274   8.448  18.185  0.00  0.00    +0.000 A 
ATOM     10  O   UNL     1       8.981   8.789  19.317  0.00  0.00    +0.000 OA
ATOM     11  C   UNL     1       9.178  10.160  19.262  0.00  0.00    +0.000 A 
ATOM     12  N   UNL     1       9.789  10.903  20.213  0.00  0.00    +0.000 NA
ATOM     13  C   UNL     1       9.743  12.246  19.993  0.00  0.00    +0.000 A 
ATOM     14  C   UNL     1      10.281  13.149  20.918  0.00  0.00    +0.000 A 
ENDROOT
BRANCH   9  15
ATOM     15  C   UNL     1       7.727   7.137  17.893  0.00  0.00    +0.000 C 
ATOM     16  O   UNL     1       8.005   6.176  18.612  0.00  0.00    +0.000 OA
ATOM     17  N   UNL     1       6.917   6.969  16.795  0.00  0.00    +0.000 N 
ATOM     18  H   UNL     1       6.594   7.776  16.273  0.00  0.00    +0.000 HD
BRANCH  17  19
ATOM     19  C   UNL     1       6.384   5.647  16.528  0.00  0.00    +0.000 C 
BRANCH  19  20
ATOM     20  C   UNL     1       5.136   5.372  17.318  0.00  0.00    +0.000 A 
ATOM     21  C   UNL     1       4.700   4.047  17.538  0.00  0.00    +0.000 A 
ATOM     22  C   UNL     1       3.588   3.786  18.345  0.00  0.00    +0.000 A 
ATOM     23  C   UNL     1       2.957   4.863  18.928  0.00  0.00    +0.000 A 
ATOM     24  C   UNL     1       3.354   6.157  18.687  0.00  0.00    +0.000 A 
ATOM     25  C   UNL     1       4.426   6.448  17.876  0.00  0.00    +0.000 A 
ATOM     26  O   UNL     1       2.613   7.063  19.380  0.00  0.00    +0.000 OA
ATOM     27  C   UNL     1       1.920   6.173  20.277  0.00  0.00    +0.000 C 
ATOM     28  O   UNL     1       1.933   4.803  19.823  0.00  0.00    +0.000 OA
ENDBRANCH  19  20
ENDBRANCH  17  19
ENDBRANCH   9  15
TORSDOF 3
ENDMDL
MODEL 9
REMARK VINA RESULT:      -7.9      7.147      9.370
REMARK  Name = 
REMARK  4 active torsions:
REMARK  status: ('A' for Active; 'I' for Inactive)
REMARK    1  A    between atoms: C_1  and  C_2
REMARK    2  A    between atoms: C_9  and  C_10
REMARK    3  A    between atoms: N_12  and  C_13
REMARK    4  A    between atoms: C_13  and  C_14
REMARK                            x       y       z     vdW  Elec       q    Type
REMARK                         _______ _______ _______ _____ _____    ______ ____
ROOT
ATOM      1  C   UNL     1      -4.773  13.086  24.646  0.00  0.00    +0.000 C 
ATOM      2  C   UNL     1      -4.045  12.869  23.351  0.00  0.00    +0.000 A 
ATOM      3  C   UNL     1      -4.584  13.388  22.176  0.00  0.00    +0.000 A 
ATOM      4  C   UNL     1      -3.909  13.217  20.980  0.00  0.00    +0.000 A 
ATOM      5  C   UNL     1      -2.707  12.502  20.947  0.00  0.00    +0.000 A 
ATOM      6  C   UNL     1      -2.088  12.350  19.717  0.00  0.00    +0.000 A 
ATOM      7  C   UNL     1      -0.954  11.551  19.671  0.00  0.00    +0.000 A 
ATOM      8  C   UNL     1      -0.128  11.105  18.632  0.00  0.00    +0.000 A 
ATOM      9  C   UNL     1       0.761  10.207  19.180  0.00  0.00    +0.000 A 
ATOM     10  O   UNL     1       0.594  10.152  20.547  0.00  0.00    +0.000 OA
ATOM     11  C   UNL     1      -0.477  10.979  20.848  0.00  0.00    +0.000 A 
ATOM     12  N   UNL     1      -1.001  11.166  22.081  0.00  0.00    +0.000 NA
ATOM     13  C   UNL     1      -2.133  11.922  22.103  0.00  0.00    +0.000 A 
ATOM     14  C   UNL     1      -2.823  12.157  23.299  0.00  0.00    +0.000 A 
ENDROOT
BRANCH   9  15
ATOM     15  C   UNL     1       1.677   9.392  18.407  0.00  0.00    +0.000 C 
ATOM     16  O   UNL     1       2.075   9.781  17.308  0.00  0.00    +0.000 OA
ATOM     17  N   UNL     1       2.078   8.171  18.896  0.00  0.00    +0.000 N 
ATOM     18  H   UNL     1       1.846   7.903  19.845  0.00  0.00    +0.000 HD
BRANCH  17  19
ATOM     19  C   UNL     1       2.994   7.378  18.100  0.00  0.00    +0.000 C 
BRANCH  19  20
ATOM     20  C   UNL     1       3.085   5.961  18.592  0.00  0.00    +0.000 A 
ATOM     21  C   UNL     1       2.530   5.593  19.838  0.00  0.00    +0.000 A 
ATOM     22  C   UNL     1       2.539   4.260  20.258  0.00  0.00    +0.000 A 
ATOM     23  C   UNL     1       3.084   3.326  19.404  0.00  0.00    +0.000 A 
ATOM     24  C   UNL     1       3.659   3.683  18.207  0.00  0.00    +0.000 A 
ATOM     25  C   UNL     1       3.693   4.990  17.779  0.00  0.00    +0.000 A 
ATOM     26  O   UNL     1       4.112   2.607  17.510  0.00  0.00    +0.000 OA
ATOM     27  C   UNL     1       3.500   1.549  18.274  0.00  0.00    +0.000 C 
ATOM     28  O   UNL     1       3.086   1.977  19.588  0.00  0.00    +0.000 OA
ENDBRANCH  19  20
ENDBRANCH  17  19
ENDBRANCH   9  15
TORSDOF 3
ENDMDL
