MODEL 1
REMARK VINA RESULT:      -6.7      0.000      0.000
REMARK  Name = 
REMARK  12 active torsions:
REMARK  status: ('A' for Active; 'I' for Inactive)
REMARK    1  A    between atoms: C_1  and  C_2
REMARK    2  A    between atoms: C_6  and  C_7
REMARK    3  A    between atoms: C_7  and  S_8
REMARK    4  A    between atoms: N_9  and  C_10
REMARK    5  A    between atoms: C_15  and  S_16
REMARK    6  A    between atoms: S_16  and  C_17
REMARK    7  A    between atoms: C_17  and  C_18
REMARK    8  A    between atoms: C_18  and  O_20
REMARK    9  A    between atoms: O_20  and  C_21
REMARK   10  A    between atoms: C_21  and  C_22
REMARK   11  A    between atoms: C_21  and  C_23
REMARK   12  A    between atoms: C_21  and  C_24
REMARK                            x       y       z     vdW  Elec       q    Type
REMARK                         _______ _______ _______ _____ _____    ______ ____
ROOT
ATOM      1  C   UNL     1       4.097   4.654  17.338  0.00  0.00    +0.000 A 
ATOM      2  C   UNL     1       3.757   3.463  17.966  0.00  0.00    +0.000 A 
ATOM      3  C   UNL     1       2.762   3.445  18.942  0.00  0.00    +0.000 A 
ATOM      4  C   UNL     1       2.168   4.633  19.389  0.00  0.00    +0.000 A 
ATOM      5 CL   UNL     1       0.800   4.432  20.423  0.00  0.00    +0.000 Cl
ATOM      6  C   UNL     1       2.635   5.872  18.932  0.00  0.00    +0.000 A 
ATOM      7  C   UNL     1       3.586   5.852  17.882  0.00  0.00    +0.000 A 
ENDROOT
BRANCH   1   9
ATOM      8  C   UNL     1       6.201   5.100  16.220  0.00  0.00    +0.000 C 
ATOM      9  N   UNL     1       4.951   4.739  16.233  0.00  0.00    +0.000 NA
BRANCH   8  15
ATOM     10  C   UNL     1       7.278   8.153  17.274  0.00  0.00    +0.000 C 
ATOM     11  C   UNL     1       7.452   6.762  17.760  0.00  0.00    +0.000 A 
ATOM     12  O   UNL     1       8.182   6.695  18.913  0.00  0.00    +0.000 OA
ATOM     13  C   UNL     1       8.292   5.394  19.253  0.00  0.00    +0.000 A 
ATOM     14  C   UNL     1       7.672   4.611  18.314  0.00  0.00    +0.000 A 
ATOM     15  C   UNL     1       7.052   5.486  17.354  0.00  0.00    +0.000 A 
ENDBRANCH   8  15
BRANCH   8  16
ATOM     16  S   UNL     1       6.959   5.026  14.629  0.00  0.00    +0.000 S 
ATOM     17  H   UNL     1       6.142   5.832  13.954  0.00  0.00    +0.000 HD
ENDBRANCH   8  16
ENDBRANCH   1   9
BRANCH   6  18
ATOM     18  S   UNL     1       2.078   7.511  19.445  0.00  0.00    +0.000 S 
BRANCH  18  19
ATOM     19  C   UNL     1       2.097   8.575  17.941  0.00  0.00    +0.000 C 
BRANCH  19  20
ATOM     20  C   UNL     1       1.437   9.928  18.113  0.00  0.00    +0.000 C 
ATOM     21  O   UNL     1       2.000  10.933  18.524  0.00  0.00    +0.000 OA
BRANCH  20  22
ATOM     22  O   UNL     1       0.130   9.870  17.721  0.00  0.00    +0.000 OA
BRANCH  22  23
ATOM     23  C   UNL     1      -0.894  10.521  18.527  0.00  0.00    +0.000 C 
ATOM     24  C   UNL     1      -2.301  10.045  18.138  0.00  0.00    +0.000 C 
ATOM     25  C   UNL     1      -0.644  10.095  19.987  0.00  0.00    +0.000 C 
ATOM     26  C   UNL     1      -0.753  12.047  18.455  0.00  0.00    +0.000 C 
ENDBRANCH  22  23
ENDBRANCH  20  22
ENDBRANCH  19  20
ENDBRANCH  18  19
ENDBRANCH   6  18
TORSDOF 8
ENDMDL
MODEL 2
REMARK VINA RESULT:      -6.5      0.865      1.272
REMARK  Name = 
REMARK  12 active torsions:
REMARK  status: ('A' for Active; 'I' for Inactive)
REMARK    1  A    between atoms: C_1  and  C_2
REMARK    2  A    between atoms: C_6  and  C_7
REMARK    3  A    between atoms: C_7  and  S_8
REMARK    4  A    between atoms: N_9  and  C_10
REMARK    5  A    between atoms: C_15  and  S_16
REMARK    6  A    between atoms: S_16  and  C_17
REMARK    7  A    between atoms: C_17  and  C_18
REMARK    8  A    between atoms: C_18  and  O_20
REMARK    9  A    between atoms: O_20  and  C_21
REMARK   10  A    between atoms: C_21  and  C_22
REMARK   11  A    between atoms: C_21  and  C_23
REMARK   12  A    between atoms: C_21  and  C_24
REMARK                            x       y       z     vdW  Elec       q    Type
REMARK                         _______ _______ _______ _____ _____    ______ ____
ROOT
ATOM      1  C   UNL     1       4.088   4.665  17.301  0.00  0.00    +0.000 A 
ATOM      2  C   UNL     1       3.734   3.457  17.887  0.00  0.00    +0.000 A 
ATOM      3  C   UNL     1       2.740   3.417  18.863  0.00  0.00    +0.000 A 
ATOM      4  C   UNL     1       2.161   4.595  19.352  0.00  0.00    +0.000 A 
ATOM      5 CL   UNL     1       0.792   4.375  20.380  0.00  0.00    +0.000 Cl
ATOM      6  C   UNL     1       2.643   5.844  18.938  0.00  0.00    +0.000 A 
ATOM      7  C   UNL     1       3.592   5.849  17.887  0.00  0.00    +0.000 A 
ENDROOT
BRANCH   1   9
ATOM      8  C   UNL     1       6.192   5.142  16.193  0.00  0.00    +0.000 C 
ATOM      9  N   UNL     1       4.942   4.778  16.198  0.00  0.00    +0.000 NA
BRANCH   8  15
ATOM     10  C   UNL     1       7.328   8.164  17.272  0.00  0.00    +0.000 C 
ATOM     11  C   UNL     1       7.466   6.768  17.753  0.00  0.00    +0.000 A 
ATOM     12  O   UNL     1       8.185   6.678  18.911  0.00  0.00    +0.000 OA
ATOM     13  C   UNL     1       8.263   5.374  19.245  0.00  0.00    +0.000 A 
ATOM     14  C   UNL     1       7.634   4.609  18.297  0.00  0.00    +0.000 A 
ATOM     15  C   UNL     1       7.042   5.503  17.337  0.00  0.00    +0.000 A 
ENDBRANCH   8  15
BRANCH   8  16
ATOM     16  S   UNL     1       6.949   5.107  14.601  0.00  0.00    +0.000 S 
ATOM     17  H   UNL     1       6.781   6.379  14.245  0.00  0.00    +0.000 HD
ENDBRANCH   8  16
ENDBRANCH   1   9
BRANCH   6  18
ATOM     18  S   UNL     1       2.107   7.471  19.509  0.00  0.00    +0.000 S 
BRANCH  18  19
ATOM     19  C   UNL     1       2.225   8.608  18.064  0.00  0.00    +0.000 C 
BRANCH  19  20
ATOM     20  C   UNL     1       1.195   9.719  18.046  0.00  0.00    +0.000 C 
ATOM     21  O   UNL     1       0.009   9.568  17.790  0.00  0.00    +0.000 OA
BRANCH  20  22
ATOM     22  O   UNL     1       1.776  10.908  18.381  0.00  0.00    +0.000 OA
BRANCH  22  23
ATOM     23  C   UNL     1       1.115  11.790  19.334  0.00  0.00    +0.000 C 
ATOM     24  C   UNL     1      -0.228  12.299  18.791  0.00  0.00    +0.000 C 
ATOM     25  C   UNL     1       0.821  10.943  20.589  0.00  0.00    +0.000 C 
ATOM     26  C   UNL     1       2.047  12.935  19.752  0.00  0.00    +0.000 C 
ENDBRANCH  22  23
ENDBRANCH  20  22
ENDBRANCH  19  20
ENDBRANCH  18  19
ENDBRANCH   6  18
TORSDOF 8
ENDMDL
MODEL 3
REMARK VINA RESULT:      -6.5      2.731      3.677
REMARK  Name = 
REMARK  12 active torsions:
REMARK  status: ('A' for Active; 'I' for Inactive)
REMARK    1  A    between atoms: C_1  and  C_2
REMARK    2  A    between atoms: C_6  and  C_7
REMARK    3  A    between atoms: C_7  and  S_8
REMARK    4  A    between atoms: N_9  and  C_10
REMARK    5  A    between atoms: C_15  and  S_16
REMARK    6  A    between atoms: S_16  and  C_17
REMARK    7  A    between atoms: C_17  and  C_18
REMARK    8  A    between atoms: C_18  and  O_20
REMARK    9  A    between atoms: O_20  and  C_21
REMARK   10  A    between atoms: C_21  and  C_22
REMARK   11  A    between atoms: C_21  and  C_23
REMARK   12  A    between atoms: C_21  and  C_24
REMARK                            x       y       z     vdW  Elec       q    Type
REMARK                         _______ _______ _______ _____ _____    ______ ____
ROOT
ATOM      1  C   UNL     1       2.555   5.846  19.246  0.00  0.00    +0.000 A 
ATOM      2  C   UNL     1       2.523   6.368  17.960  0.00  0.00    +0.000 A 
ATOM      3  C   UNL     1       2.253   7.721  17.760  0.00  0.00    +0.000 A 
ATOM      4  C   UNL     1       1.898   8.551  18.831  0.00  0.00    +0.000 A 
ATOM      5 CL   UNL     1       1.822  10.237  18.465  0.00  0.00    +0.000 Cl
ATOM      6  C   UNL     1       1.712   8.014  20.111  0.00  0.00    +0.000 A 
ATOM      7  C   UNL     1       2.075   6.657  20.296  0.00  0.00    +0.000 A 
ENDROOT
BRANCH   1   9
ATOM      8  C   UNL     1       4.152   4.022  19.313  0.00  0.00    +0.000 C 
ATOM      9  N   UNL     1       2.987   4.551  19.553  0.00  0.00    +0.000 NA
BRANCH   8  15
ATOM     10  C   UNL     1       5.196   4.071  16.073  0.00  0.00    +0.000 C 
ATOM     11  C   UNL     1       5.702   4.655  17.340  0.00  0.00    +0.000 A 
ATOM     12  O   UNL     1       6.824   5.414  17.159  0.00  0.00    +0.000 OA
ATOM     13  C   UNL     1       7.205   5.876  18.367  0.00  0.00    +0.000 A 
ATOM     14  C   UNL     1       6.364   5.398  19.338  0.00  0.00    +0.000 A 
ATOM     15  C   UNL     1       5.325   4.645  18.685  0.00  0.00    +0.000 A 
ENDBRANCH   8  15
BRANCH   8  16
ATOM     16  S   UNL     1       4.332   2.370  19.905  0.00  0.00    +0.000 S 
ATOM     17  H   UNL     1       4.999   2.608  21.032  0.00  0.00    +0.000 HD
ENDBRANCH   8  16
ENDBRANCH   1   9
BRANCH   6  18
ATOM     18  S   UNL     1       1.170   8.883  21.598  0.00  0.00    +0.000 S 
BRANCH  18  19
ATOM     19  C   UNL     1      -0.334   9.842  21.136  0.00  0.00    +0.000 C 
BRANCH  19  20
ATOM     20  C   UNL     1      -0.225  11.337  21.359  0.00  0.00    +0.000 C 
ATOM     21  O   UNL     1       0.826  11.950  21.481  0.00  0.00    +0.000 OA
BRANCH  20  22
ATOM     22  O   UNL     1      -1.467  11.903  21.380  0.00  0.00    +0.000 OA
BRANCH  22  23
ATOM     23  C   UNL     1      -1.884  12.768  20.284  0.00  0.00    +0.000 C 
ATOM     24  C   UNL     1      -1.339  12.270  18.937  0.00  0.00    +0.000 C 
ATOM     25  C   UNL     1      -3.423  12.691  20.222  0.00  0.00    +0.000 C 
ATOM     26  C   UNL     1      -1.501  14.226  20.566  0.00  0.00    +0.000 C 
ENDBRANCH  22  23
ENDBRANCH  20  22
ENDBRANCH  19  20
ENDBRANCH  18  19
ENDBRANCH   6  18
TORSDOF 8
ENDMDL
MODEL 4
REMARK VINA RESULT:      -6.4      2.989      3.944
REMARK  Name = 
REMARK  12 active torsions:
REMARK  status: ('A' for Active; 'I' for Inactive)
REMARK    1  A    between atoms: C_1  and  C_2
REMARK    2  A    between atoms: C_6  and  C_7
REMARK    3  A    between atoms: C_7  and  S_8
REMARK    4  A    between atoms: N_9  and  C_10
REMARK    5  A    between atoms: C_15  and  S_16
REMARK    6  A    between atoms: S_16  and  C_17
REMARK    7  A    between atoms: C_17  and  C_18
REMARK    8  A    between atoms: C_18  and  O_20
REMARK    9  A    between atoms: O_20  and  C_21
REMARK   10  A    between atoms: C_21  and  C_22
REMARK   11  A    between atoms: C_21  and  C_23
REMARK   12  A    between atoms: C_21  and  C_24
REMARK                            x       y       z     vdW  Elec       q    Type
REMARK                         _______ _______ _______ _____ _____    ______ ____
ROOT
ATOM      1  C   UNL     1       2.598   5.860  19.194  0.00  0.00    +0.000 A 
ATOM      2  C   UNL     1       2.633   6.383  17.908  0.00  0.00    +0.000 A 
ATOM      3  C   UNL     1       2.371   7.735  17.695  0.00  0.00    +0.000 A 
ATOM      4  C   UNL     1       1.959   8.565  18.746  0.00  0.00    +0.000 A 
ATOM      5 CL   UNL     1       1.899  10.250  18.377  0.00  0.00    +0.000 Cl
ATOM      6  C   UNL     1       1.708   8.027  20.014  0.00  0.00    +0.000 A 
ATOM      7  C   UNL     1       2.063   6.671  20.218  0.00  0.00    +0.000 A 
ENDROOT
BRANCH   1   9
ATOM      8  C   UNL     1       4.181   4.027  19.310  0.00  0.00    +0.000 C 
ATOM      9  N   UNL     1       3.016   4.566  19.523  0.00  0.00    +0.000 NA
BRANCH   8  15
ATOM     10  C   UNL     1       5.326   3.971  16.105  0.00  0.00    +0.000 C 
ATOM     11  C   UNL     1       5.789   4.602  17.365  0.00  0.00    +0.000 A 
ATOM     12  O   UNL     1       6.912   5.361  17.193  0.00  0.00    +0.000 OA
ATOM     13  C   UNL     1       7.252   5.868  18.395  0.00  0.00    +0.000 A 
ATOM     14  C   UNL     1       6.384   5.418  19.356  0.00  0.00    +0.000 A 
ATOM     15  C   UNL     1       5.370   4.636  18.698  0.00  0.00    +0.000 A 
ENDBRANCH   8  15
BRANCH   8  16
ATOM     16  S   UNL     1       4.340   2.381  19.923  0.00  0.00    +0.000 S 
ATOM     17  H   UNL     1       3.132   2.225  20.461  0.00  0.00    +0.000 HD
ENDBRANCH   8  16
ENDBRANCH   1   9
BRANCH   6  18
ATOM     18  S   UNL     1       1.088   8.894  21.471  0.00  0.00    +0.000 S 
BRANCH  18  19
ATOM     19  C   UNL     1      -0.376   9.872  20.926  0.00  0.00    +0.000 C 
BRANCH  19  20
ATOM     20  C   UNL     1      -0.284  11.359  21.205  0.00  0.00    +0.000 C 
ATOM     21  O   UNL     1       0.719  11.935  21.601  0.00  0.00    +0.000 OA
BRANCH  20  22
ATOM     22  O   UNL     1      -1.475  11.966  20.926  0.00  0.00    +0.000 OA
BRANCH  22  23
ATOM     23  C   UNL     1      -2.209  12.638  21.991  0.00  0.00    +0.000 C 
ATOM     24  C   UNL     1      -1.686  14.063  22.220  0.00  0.00    +0.000 C 
ATOM     25  C   UNL     1      -3.672  12.747  21.517  0.00  0.00    +0.000 C 
ATOM     26  C   UNL     1      -2.195  11.797  23.274  0.00  0.00    +0.000 C 
ENDBRANCH  22  23
ENDBRANCH  20  22
ENDBRANCH  19  20
ENDBRANCH  18  19
ENDBRANCH   6  18
TORSDOF 8
ENDMDL
MODEL 5
REMARK VINA RESULT:      -6.4      3.111      5.404
REMARK  Name = 
REMARK  12 active torsions:
REMARK  status: ('A' for Active; 'I' for Inactive)
REMARK    1  A    between atoms: C_1  and  C_2
REMARK    2  A    between atoms: C_6  and  C_7
REMARK    3  A    between atoms: C_7  and  S_8
REMARK    4  A    between atoms: N_9  and  C_10
REMARK    5  A    between atoms: C_15  and  S_16
REMARK    6  A    between atoms: S_16  and  C_17
REMARK    7  A    between atoms: C_17  and  C_18
REMARK    8  A    between atoms: C_18  and  O_20
REMARK    9  A    between atoms: O_20  and  C_21
REMARK   10  A    between atoms: C_21  and  C_22
REMARK   11  A    between atoms: C_21  and  C_23
REMARK   12  A    between atoms: C_21  and  C_24
REMARK                            x       y       z     vdW  Elec       q    Type
REMARK                         _______ _______ _______ _____ _____    ______ ____
ROOT
ATOM      1  C   UNL     1       3.875   6.467  17.419  0.00  0.00    +0.000 A 
ATOM      2  C   UNL     1       3.435   7.686  16.922  0.00  0.00    +0.000 A 
ATOM      3  C   UNL     1       2.658   8.527  17.717  0.00  0.00    +0.000 A 
ATOM      4  C   UNL     1       2.214   8.116  18.981  0.00  0.00    +0.000 A 
ATOM      5 CL   UNL     1       1.465   9.345  19.936  0.00  0.00    +0.000 Cl
ATOM      6  C   UNL     1       2.460   6.812  19.428  0.00  0.00    +0.000 A 
ATOM      7  C   UNL     1       3.321   6.014  18.635  0.00  0.00    +0.000 A 
ENDROOT
BRANCH   1   9
ATOM      8  C   UNL     1       6.094   5.749  16.753  0.00  0.00    +0.000 C 
ATOM      9  N   UNL     1       4.797   5.642  16.763  0.00  0.00    +0.000 NA
BRANCH   8  15
ATOM     10  C   UNL     1       8.067   5.475  19.514  0.00  0.00    +0.000 C 
ATOM     11  C   UNL     1       7.747   6.571  18.567  0.00  0.00    +0.000 A 
ATOM     12  O   UNL     1       8.424   7.724  18.848  0.00  0.00    +0.000 OA
ATOM     13  C   UNL     1       8.047   8.651  17.944  0.00  0.00    +0.000 A 
ATOM     14  C   UNL     1       7.104   8.126  17.099  0.00  0.00    +0.000 A 
ATOM     15  C   UNL     1       6.934   6.738  17.443  0.00  0.00    +0.000 A 
ENDBRANCH   8  15
BRANCH   8  16
ATOM     16  S   UNL     1       6.917   4.477  15.851  0.00  0.00    +0.000 S 
ATOM     17  H   UNL     1       6.054   3.479  16.032  0.00  0.00    +0.000 HD
ENDBRANCH   8  16
ENDBRANCH   1   9
BRANCH   6  18
ATOM     18  S   UNL     1       1.902   6.057  20.970  0.00  0.00    +0.000 S 
BRANCH  18  19
ATOM     19  C   UNL     1       1.214   4.404  20.536  0.00  0.00    +0.000 C 
BRANCH  19  20
ATOM     20  C   UNL     1       2.125   3.235  20.851  0.00  0.00    +0.000 C 
ATOM     21  O   UNL     1       2.069   2.560  21.870  0.00  0.00    +0.000 OA
BRANCH  20  22
ATOM     22  O   UNL     1       3.002   3.029  19.825  0.00  0.00    +0.000 OA
BRANCH  22  23
ATOM     23  C   UNL     1       2.602   2.206  18.690  0.00  0.00    +0.000 C 
ATOM     24  C   UNL     1       2.577   3.020  17.388  0.00  0.00    +0.000 C 
ATOM     25  C   UNL     1       3.679   1.114  18.537  0.00  0.00    +0.000 C 
ATOM     26  C   UNL     1       1.265   1.508  18.969  0.00  0.00    +0.000 C 
ENDBRANCH  22  23
ENDBRANCH  20  22
ENDBRANCH  19  20
ENDBRANCH  18  19
ENDBRANCH   6  18
TORSDOF 8
ENDMDL
MODEL 6
REMARK VINA RESULT:      -6.4      3.039      4.052
REMARK  Name = 
REMARK  12 active torsions:
REMARK  status: ('A' for Active; 'I' for Inactive)
REMARK    1  A    between atoms: C_1  and  C_2
REMARK    2  A    between atoms: C_6  and  C_7
REMARK    3  A    between atoms: C_7  and  S_8
REMARK    4  A    between atoms: N_9  and  C_10
REMARK    5  A    between atoms: C_15  and  S_16
REMARK    6  A    between atoms: S_16  and  C_17
REMARK    7  A    between atoms: C_17  and  C_18
REMARK    8  A    between atoms: C_18  and  O_20
REMARK    9  A    between atoms: O_20  and  C_21
REMARK   10  A    between atoms: C_21  and  C_22
REMARK   11  A    between atoms: C_21  and  C_23
REMARK   12  A    between atoms: C_21  and  C_24
REMARK                            x       y       z     vdW  Elec       q    Type
REMARK                         _______ _______ _______ _____ _____    ______ ____
ROOT
ATOM      1  C   UNL     1       2.497   5.823  19.290  0.00  0.00    +0.000 A 
ATOM      2  C   UNL     1       2.385   6.369  18.018  0.00  0.00    +0.000 A 
ATOM      3  C   UNL     1       2.106   7.725  17.860  0.00  0.00    +0.000 A 
ATOM      4  C   UNL     1       1.822   8.537  18.967  0.00  0.00    +0.000 A 
ATOM      5 CL   UNL     1       1.727  10.229  18.637  0.00  0.00    +0.000 Cl
ATOM      6  C   UNL     1       1.716   7.976  20.246  0.00  0.00    +0.000 A 
ATOM      7  C   UNL     1       2.087   6.616  20.383  0.00  0.00    +0.000 A 
ENDROOT
BRANCH   1   9
ATOM      8  C   UNL     1       4.110   4.013  19.272  0.00  0.00    +0.000 C 
ATOM      9  N   UNL     1       2.944   4.522  19.545  0.00  0.00    +0.000 NA
BRANCH   8  15
ATOM     10  C   UNL     1       5.125   4.164  16.026  0.00  0.00    +0.000 C 
ATOM     11  C   UNL     1       5.634   4.720  17.303  0.00  0.00    +0.000 A 
ATOM     12  O   UNL     1       6.744   5.498  17.133  0.00  0.00    +0.000 OA
ATOM     13  C   UNL     1       7.130   5.933  18.350  0.00  0.00    +0.000 A 
ATOM     14  C   UNL     1       6.304   5.418  19.315  0.00  0.00    +0.000 A 
ATOM     15  C   UNL     1       5.269   4.669  18.651  0.00  0.00    +0.000 A 
ENDBRANCH   8  15
BRANCH   8  16
ATOM     16  S   UNL     1       4.313   2.343  19.802  0.00  0.00    +0.000 S 
ATOM     17  H   UNL     1       3.269   2.240  20.623  0.00  0.00    +0.000 HD
ENDBRANCH   8  16
ENDBRANCH   1   9
BRANCH   6  18
ATOM     18  S   UNL     1       1.272   8.818  21.780  0.00  0.00    +0.000 S 
BRANCH  18  19
ATOM     19  C   UNL     1      -0.340   9.659  21.479  0.00  0.00    +0.000 C 
BRANCH  19  20
ATOM     20  C   UNL     1      -0.628  10.826  22.401  0.00  0.00    +0.000 C 
ATOM     21  O   UNL     1      -1.474  10.827  23.284  0.00  0.00    +0.000 OA
BRANCH  20  22
ATOM     22  O   UNL     1       0.211  11.867  22.122  0.00  0.00    +0.000 OA
BRANCH  22  23
ATOM     23  C   UNL     1      -0.315  13.064  21.478  0.00  0.00    +0.000 C 
ATOM     24  C   UNL     1      -0.455  14.223  22.476  0.00  0.00    +0.000 C 
ATOM     25  C   UNL     1       0.721  13.484  20.417  0.00  0.00    +0.000 C 
ATOM     26  C   UNL     1      -1.630  12.757  20.751  0.00  0.00    +0.000 C 
ENDBRANCH  22  23
ENDBRANCH  20  22
ENDBRANCH  19  20
ENDBRANCH  18  19
ENDBRANCH   6  18
TORSDOF 8
ENDMDL
MODEL 7
REMARK VINA RESULT:      -6.4      1.015      1.602
REMARK  Name = 
REMARK  12 active torsions:
REMARK  status: ('A' for Active; 'I' for Inactive)
REMARK    1  A    between atoms: C_1  and  C_2
REMARK    2  A    between atoms: C_6  and  C_7
REMARK    3  A    between atoms: C_7  and  S_8
REMARK    4  A    between atoms: N_9  and  C_10
REMARK    5  A    between atoms: C_15  and  S_16
REMARK    6  A    between atoms: S_16  and  C_17
REMARK    7  A    between atoms: C_17  and  C_18
REMARK    8  A    between atoms: C_18  and  O_20
REMARK    9  A    between atoms: O_20  and  C_21
REMARK   10  A    between atoms: C_21  and  C_22
REMARK   11  A    between atoms: C_21  and  C_23
REMARK   12  A    between atoms: C_21  and  C_24
REMARK                            x       y       z     vdW  Elec       q    Type
REMARK                         _______ _______ _______ _____ _____    ______ ____
ROOT
ATOM      1  C   UNL     1       4.190   4.002  17.560  0.00  0.00    +0.000 A 
ATOM      2  C   UNL     1       4.088   2.868  18.355  0.00  0.00    +0.000 A 
ATOM      3  C   UNL     1       3.261   2.871  19.477  0.00  0.00    +0.000 A 
ATOM      4  C   UNL     1       2.609   4.041  19.888  0.00  0.00    +0.000 A 
ATOM      5 CL   UNL     1       1.445   3.835  21.147  0.00  0.00    +0.000 Cl
ATOM      6  C   UNL     1       2.856   5.255  19.235  0.00  0.00    +0.000 A 
ATOM      7  C   UNL     1       3.633   5.201  18.052  0.00  0.00    +0.000 A 
ENDROOT
BRANCH   1   9
ATOM      8  C   UNL     1       5.834   4.812  15.972  0.00  0.00    +0.000 C 
ATOM      9  N   UNL     1       4.852   4.035  16.328  0.00  0.00    +0.000 NA
BRANCH   8  15
ATOM     10  C   UNL     1       8.110   4.533  18.488  0.00  0.00    +0.000 C 
ATOM     11  C   UNL     1       7.470   5.672  17.784  0.00  0.00    +0.000 A 
ATOM     12  O   UNL     1       7.922   6.884  18.223  0.00  0.00    +0.000 OA
ATOM     13  C   UNL     1       7.266   7.840  17.534  0.00  0.00    +0.000 A 
ATOM     14  C   UNL     1       6.365   7.264  16.676  0.00  0.00    +0.000 A 
ATOM     15  C   UNL     1       6.522   5.836  16.770  0.00  0.00    +0.000 A 
ENDBRANCH   8  15
BRANCH   8  16
ATOM     16  S   UNL     1       6.441   4.512  14.343  0.00  0.00    +0.000 S 
ATOM     17  H   UNL     1       6.967   5.705  14.077  0.00  0.00    +0.000 HD
ENDBRANCH   8  16
ENDBRANCH   1   9
BRANCH   6  18
ATOM     18  S   UNL     1       2.198   6.882  19.658  0.00  0.00    +0.000 S 
BRANCH  18  19
ATOM     19  C   UNL     1       2.110   7.846  18.090  0.00  0.00    +0.000 C 
BRANCH  19  20
ATOM     20  C   UNL     1       1.953   9.342  18.274  0.00  0.00    +0.000 C 
ATOM     21  O   UNL     1       2.198  10.181  17.418  0.00  0.00    +0.000 OA
BRANCH  20  22
ATOM     22  O   UNL     1       1.474   9.617  19.523  0.00  0.00    +0.000 OA
BRANCH  22  23
ATOM     23  C   UNL     1       0.216  10.338  19.670  0.00  0.00    +0.000 C 
ATOM     24  C   UNL     1      -0.709  10.106  18.467  0.00  0.00    +0.000 C 
ATOM     25  C   UNL     1      -0.483   9.755  20.915  0.00  0.00    +0.000 C 
ATOM     26  C   UNL     1       0.471  11.827  19.933  0.00  0.00    +0.000 C 
ENDBRANCH  22  23
ENDBRANCH  20  22
ENDBRANCH  19  20
ENDBRANCH  18  19
ENDBRANCH   6  18
TORSDOF 8
ENDMDL
MODEL 8
REMARK VINA RESULT:      -6.3      2.980      5.327
REMARK  Name = 
REMARK  12 active torsions:
REMARK  status: ('A' for Active; 'I' for Inactive)
REMARK    1  A    between atoms: C_1  and  C_2
REMARK    2  A    between atoms: C_6  and  C_7
REMARK    3  A    between atoms: C_7  and  S_8
REMARK    4  A    between atoms: N_9  and  C_10
REMARK    5  A    between atoms: C_15  and  S_16
REMARK    6  A    between atoms: S_16  and  C_17
REMARK    7  A    between atoms: C_17  and  C_18
REMARK    8  A    between atoms: C_18  and  O_20
REMARK    9  A    between atoms: O_20  and  C_21
REMARK   10  A    between atoms: C_21  and  C_22
REMARK   11  A    between atoms: C_21  and  C_23
REMARK   12  A    between atoms: C_21  and  C_24
REMARK                            x       y       z     vdW  Elec       q    Type
REMARK                         _______ _______ _______ _____ _____    ______ ____
ROOT
ATOM      1  C   UNL     1       3.677   6.634  17.378  0.00  0.00    +0.000 A 
ATOM      2  C   UNL     1       3.145   7.917  17.372  0.00  0.00    +0.000 A 
ATOM      3  C   UNL     1       2.470   8.400  18.492  0.00  0.00    +0.000 A 
ATOM      4  C   UNL     1       2.215   7.573  19.593  0.00  0.00    +0.000 A 
ATOM      5 CL   UNL     1       1.582   8.372  20.987  0.00  0.00    +0.000 Cl
ATOM      6  C   UNL     1       2.550   6.214  19.549  0.00  0.00    +0.000 A 
ATOM      7  C   UNL     1       3.307   5.775  18.435  0.00  0.00    +0.000 A 
ENDROOT
BRANCH   1   9
ATOM      8  C   UNL     1       5.784   5.859  16.463  0.00  0.00    +0.000 C 
ATOM      9  N   UNL     1       4.514   6.131  16.376  0.00  0.00    +0.000 NA
BRANCH   8  15
ATOM     10  C   UNL     1       7.835   8.385  17.466  0.00  0.00    +0.000 C 
ATOM     11  C   UNL     1       7.478   7.053  18.014  0.00  0.00    +0.000 A 
ATOM     12  O   UNL     1       8.084   6.796  19.211  0.00  0.00    +0.000 OA
ATOM     13  C   UNL     1       7.707   5.563  19.605  0.00  0.00    +0.000 A 
ATOM     14  C   UNL     1       6.889   4.999  18.660  0.00  0.00    +0.000 A 
ATOM     15  C   UNL     1       6.666   5.981  17.632  0.00  0.00    +0.000 A 
ENDBRANCH   8  15
BRANCH   8  16
ATOM     16  S   UNL     1       6.482   5.184  14.990  0.00  0.00    +0.000 S 
ATOM     17  H   UNL     1       5.551   4.279  14.696  0.00  0.00    +0.000 HD
ENDBRANCH   8  16
ENDBRANCH   1   9
BRANCH   6  18
ATOM     18  S   UNL     1       2.229   4.963  20.811  0.00  0.00    +0.000 S 
BRANCH  18  19
ATOM     19  C   UNL     1       0.936   3.839  20.132  0.00  0.00    +0.000 C 
BRANCH  19  20
ATOM     20  C   UNL     1       1.355   3.060  18.902  0.00  0.00    +0.000 C 
ATOM     21  O   UNL     1       1.026   3.333  17.756  0.00  0.00    +0.000 OA
BRANCH  20  22
ATOM     22  O   UNL     1       2.174   2.026  19.254  0.00  0.00    +0.000 OA
BRANCH  22  23
ATOM     23  C   UNL     1       3.583   2.063  18.884  0.00  0.00    +0.000 C 
ATOM     24  C   UNL     1       4.449   2.619  20.024  0.00  0.00    +0.000 C 
ATOM     25  C   UNL     1       4.014   0.603  18.639  0.00  0.00    +0.000 C 
ATOM     26  C   UNL     1       3.780   2.834  17.572  0.00  0.00    +0.000 C 
ENDBRANCH  22  23
ENDBRANCH  20  22
ENDBRANCH  19  20
ENDBRANCH  18  19
ENDBRANCH   6  18
TORSDOF 8
ENDMDL
MODEL 9
REMARK VINA RESULT:      -6.3      2.403      7.505
REMARK  Name = 
REMARK  12 active torsions:
REMARK  status: ('A' for Active; 'I' for Inactive)
REMARK    1  A    between atoms: C_1  and  C_2
REMARK    2  A    between atoms: C_6  and  C_7
REMARK    3  A    between atoms: C_7  and  S_8
REMARK    4  A    between atoms: N_9  and  C_10
REMARK    5  A    between atoms: C_15  and  S_16
REMARK    6  A    between atoms: S_16  and  C_17
REMARK    7  A    between atoms: C_17  and  C_18
REMARK    8  A    between atoms: C_18  and  O_20
REMARK    9  A    between atoms: O_20  and  C_21
REMARK   10  A    between atoms: C_21  and  C_22
REMARK   11  A    between atoms: C_21  and  C_23
REMARK   12  A    between atoms: C_21  and  C_24
REMARK                            x       y       z     vdW  Elec       q    Type
REMARK                         _______ _______ _______ _____ _____    ______ ____
ROOT
ATOM      1  C   UNL     1       2.083   8.141  19.261  0.00  0.00    +0.000 A 
ATOM      2  C   UNL     1       1.509   7.943  20.509  0.00  0.00    +0.000 A 
ATOM      3  C   UNL     1       1.404   6.657  21.036  0.00  0.00    +0.000 A 
ATOM      4  C   UNL     1       1.768   5.535  20.279  0.00  0.00    +0.000 A 
ATOM      5 CL   UNL     1       1.804   4.041  21.143  0.00  0.00    +0.000 Cl
ATOM      6  C   UNL     1       2.152   5.681  18.940  0.00  0.00    +0.000 A 
ATOM      7  C   UNL     1       2.328   7.003  18.463  0.00  0.00    +0.000 A 
ENDROOT
BRANCH   1   9
ATOM      8  C   UNL     1       1.559  10.351  18.413  0.00  0.00    +0.000 C 
ATOM      9  N   UNL     1       2.388   9.400  18.731  0.00  0.00    +0.000 NA
BRANCH   8  15
ATOM     10  C   UNL     1      -0.445  11.517  20.906  0.00  0.00    +0.000 C 
ATOM     11  C   UNL     1      -0.686  10.881  19.587  0.00  0.00    +0.000 A 
ATOM     12  O   UNL     1      -2.015  10.769  19.291  0.00  0.00    +0.000 OA
ATOM     13  C   UNL     1      -2.118  10.166  18.089  0.00  0.00    +0.000 A 
ATOM     14  C   UNL     1      -0.871   9.852  17.615  0.00  0.00    +0.000 A 
ATOM     15  C   UNL     1       0.095  10.370  18.548  0.00  0.00    +0.000 A 
ENDBRANCH   8  15
BRANCH   8  16
ATOM     16  S   UNL     1       2.336  11.820  17.823  0.00  0.00    +0.000 S 
ATOM     17  H   UNL     1       3.608  11.431  17.860  0.00  0.00    +0.000 HD
ENDBRANCH   8  16
ENDBRANCH   1   9
BRANCH   6  18
ATOM     18  S   UNL     1       2.568   4.371  17.769  0.00  0.00    +0.000 S 
BRANCH  18  19
ATOM     19  C   UNL     1       4.130   3.597  18.368  0.00  0.00    +0.000 C 
BRANCH  19  20
ATOM     20  C   UNL     1       5.308   4.544  18.470  0.00  0.00    +0.000 C 
ATOM     21  O   UNL     1       5.507   5.314  19.398  0.00  0.00    +0.000 OA
BRANCH  20  22
ATOM     22  O   UNL     1       6.128   4.395  17.388  0.00  0.00    +0.000 OA
BRANCH  22  23
ATOM     23  C   UNL     1       6.416   5.543  16.538  0.00  0.00    +0.000 C 
ATOM     24  C   UNL     1       7.381   6.522  17.223  0.00  0.00    +0.000 C 
ATOM     25  C   UNL     1       7.120   4.995  15.281  0.00  0.00    +0.000 C 
ATOM     26  C   UNL     1       5.117   6.224  16.086  0.00  0.00    +0.000 C 
ENDBRANCH  22  23
ENDBRANCH  20  22
ENDBRANCH  19  20
ENDBRANCH  18  19
ENDBRANCH   6  18
TORSDOF 8
ENDMDL
