MODEL 1
REMARK VINA RESULT:      -7.8      0.000      0.000
REMARK  Name = 
REMARK  7 active torsions:
REMARK  status: ('A' for Active; 'I' for Inactive)
REMARK    1  A    between atoms: C_1  and  O_2
REMARK    2  A    between atoms: O_2  and  C_3
REMARK    3  A    between atoms: C_3  and  C_4
REMARK    4  A    between atoms: C_4  and  N_5
REMARK    5  A    between atoms: C_7  and  C_8
REMARK    6  A    between atoms: C_9  and  C_10
REMARK    7  A    between atoms: C_13  and  C_14
REMARK                            x       y       z     vdW  Elec       q    Type
REMARK                         _______ _______ _______ _____ _____    ______ ____
ROOT
ATOM      1  C   UNL     1       2.542   6.220  18.980  0.00  0.00    +0.000 A 
ATOM      2  C   UNL     1       2.067   5.967  20.263  0.00  0.00    +0.000 A 
ATOM      3  C   UNL     1       2.137   4.755  21.118  0.00  0.00    +0.000 C 
ATOM      4  N   UNL     1       1.511   7.105  20.809  0.00  0.00    +0.000 NA
ATOM      5  C   UNL     1       1.629   8.026  19.881  0.00  0.00    +0.000 A 
ATOM      6  C   UNL     1       1.177   9.406  19.910  0.00  0.00    +0.000 A 
ATOM      7  N   UNL     1       1.401  10.200  18.891  0.00  0.00    +0.000 NA
ATOM      8  C   UNL     1       2.026   9.674  17.775  0.00  0.00    +0.000 A 
ATOM      9  C   UNL     1       2.454   8.405  17.677  0.00  0.00    +0.000 A 
ATOM     10  N   UNL     1       2.270   7.556  18.758  0.00  0.00    +0.000 N 
ENDROOT
BRANCH   6  11
ATOM     11  C   UNL     1       0.447   9.934  21.088  0.00  0.00    +0.000 A 
ATOM     12  C   UNL     1      -0.579  10.866  20.914  0.00  0.00    +0.000 A 
ATOM     13  C   UNL     1      -1.306  11.300  22.022  0.00  0.00    +0.000 A 
ATOM     14  C   UNL     1      -0.982  10.779  23.264  0.00  0.00    +0.000 A 
ATOM     15  N   UNL     1      -0.002   9.875  23.469  0.00  0.00    +0.000 NA
ATOM     16  C   UNL     1       0.691   9.470  22.372  0.00  0.00    +0.000 A 
ENDBRANCH   6  11
BRANCH   1  19
ATOM     17  N   UNL     1       4.667   4.242  16.785  0.00  0.00    +0.000 N 
ATOM     18  C   UNL     1       4.448   5.395  17.488  0.00  0.00    +0.000 A 
ATOM     19  C   UNL     1       3.203   5.261  18.057  0.00  0.00    +0.000 A 
ATOM     20  C   UNL     1       2.730   4.019  17.584  0.00  0.00    +0.000 A 
ATOM     21  N   UNL     1       3.613   3.406  16.790  0.00  0.00    +0.000 NA
BRANCH  17  22
ATOM     22  C   UNL     1       5.884   3.860  16.101  0.00  0.00    +0.000 C 
BRANCH  22  23
ATOM     23  C   UNL     1       7.042   4.774  16.464  0.00  0.00    +0.000 C 
BRANCH  23  25
ATOM     24  C   UNL     1       7.015   4.839  14.111  0.00  0.00    +0.000 C 
ATOM     25  O   UNL     1       7.479   5.475  15.296  0.00  0.00    +0.000 OA
ENDBRANCH  23  25
ENDBRANCH  22  23
ENDBRANCH  17  22
ENDBRANCH   1  19
TORSDOF 5
ENDMDL
MODEL 2
REMARK VINA RESULT:      -7.6      0.843      1.358
REMARK  Name = 
REMARK  7 active torsions:
REMARK  status: ('A' for Active; 'I' for Inactive)
REMARK    1  A    between atoms: C_1  and  O_2
REMARK    2  A    between atoms: O_2  and  C_3
REMARK    3  A    between atoms: C_3  and  C_4
REMARK    4  A    between atoms: C_4  and  N_5
REMARK    5  A    between atoms: C_7  and  C_8
REMARK    6  A    between atoms: C_9  and  C_10
REMARK    7  A    between atoms: C_13  and  C_14
REMARK                            x       y       z     vdW  Elec       q    Type
REMARK                         _______ _______ _______ _____ _____    ______ ____
ROOT
ATOM      1  C   UNL     1       2.688   6.091  18.985  0.00  0.00    +0.000 A 
ATOM      2  C   UNL     1       2.162   5.807  20.241  0.00  0.00    +0.000 A 
ATOM      3  C   UNL     1       2.238   4.590  21.088  0.00  0.00    +0.000 C 
ATOM      4  N   UNL     1       1.535   6.916  20.768  0.00  0.00    +0.000 NA
ATOM      5  C   UNL     1       1.662   7.851  19.855  0.00  0.00    +0.000 A 
ATOM      6  C   UNL     1       1.154   9.211  19.873  0.00  0.00    +0.000 A 
ATOM      7  N   UNL     1       1.396  10.024  18.873  0.00  0.00    +0.000 NA
ATOM      8  C   UNL     1       2.095   9.535  17.785  0.00  0.00    +0.000 A 
ATOM      9  C   UNL     1       2.576   8.284  17.698  0.00  0.00    +0.000 A 
ATOM     10  N   UNL     1       2.374   7.418  18.761  0.00  0.00    +0.000 N 
ENDROOT
BRANCH   6  11
ATOM     11  C   UNL     1       0.347   9.699  21.018  0.00  0.00    +0.000 A 
ATOM     12  C   UNL     1       0.529   9.145  22.288  0.00  0.00    +0.000 A 
ATOM     13  C   UNL     1      -0.184   9.662  23.369  0.00  0.00    +0.000 A 
ATOM     14  C   UNL     1      -1.048  10.720  23.141  0.00  0.00    +0.000 A 
ATOM     15  N   UNL     1      -1.245  11.284  21.930  0.00  0.00    +0.000 NA
ATOM     16  C   UNL     1      -0.539  10.759  20.893  0.00  0.00    +0.000 A 
ENDBRANCH   6  11
BRANCH   1  19
ATOM     17  N   UNL     1       4.781   4.355  16.565  0.00  0.00    +0.000 N 
ATOM     18  C   UNL     1       4.258   5.524  17.047  0.00  0.00    +0.000 A 
ATOM     19  C   UNL     1       3.432   5.169  18.087  0.00  0.00    +0.000 A 
ATOM     20  C   UNL     1       3.477   3.759  18.109  0.00  0.00    +0.000 A 
ATOM     21  N   UNL     1       4.282   3.260  17.167  0.00  0.00    +0.000 NA
BRANCH  17  22
ATOM     22  C   UNL     1       5.790   4.214  15.538  0.00  0.00    +0.000 C 
BRANCH  22  23
ATOM     23  C   UNL     1       7.027   5.038  15.851  0.00  0.00    +0.000 C 
BRANCH  23  25
ATOM     24  C   UNL     1       7.760   4.734  18.068  0.00  0.00    +0.000 C 
ATOM     25  O   UNL     1       7.886   4.295  16.721  0.00  0.00    +0.000 OA
ENDBRANCH  23  25
ENDBRANCH  22  23
ENDBRANCH  17  22
ENDBRANCH   1  19
TORSDOF 5
ENDMDL
MODEL 3
REMARK VINA RESULT:      -7.5      0.787      1.131
REMARK  Name = 
REMARK  7 active torsions:
REMARK  status: ('A' for Active; 'I' for Inactive)
REMARK    1  A    between atoms: C_1  and  O_2
REMARK    2  A    between atoms: O_2  and  C_3
REMARK    3  A    between atoms: C_3  and  C_4
REMARK    4  A    between atoms: C_4  and  N_5
REMARK    5  A    between atoms: C_7  and  C_8
REMARK    6  A    between atoms: C_9  and  C_10
REMARK    7  A    between atoms: C_13  and  C_14
REMARK                            x       y       z     vdW  Elec       q    Type
REMARK                         _______ _______ _______ _____ _____    ______ ____
ROOT
ATOM      1  C   UNL     1       2.605   6.328  18.998  0.00  0.00    +0.000 A 
ATOM      2  C   UNL     1       2.110   6.063  20.271  0.00  0.00    +0.000 A 
ATOM      3  C   UNL     1       2.188   4.851  21.125  0.00  0.00    +0.000 C 
ATOM      4  N   UNL     1       1.518   7.187  20.806  0.00  0.00    +0.000 NA
ATOM      5  C   UNL     1       1.635   8.113  19.883  0.00  0.00    +0.000 A 
ATOM      6  C   UNL     1       1.153   9.482  19.904  0.00  0.00    +0.000 A 
ATOM      7  N   UNL     1       1.380  10.283  18.891  0.00  0.00    +0.000 NA
ATOM      8  C   UNL     1       2.039   9.773  17.788  0.00  0.00    +0.000 A 
ATOM      9  C   UNL     1       2.496   8.513  17.697  0.00  0.00    +0.000 A 
ATOM     10  N   UNL     1       2.308   7.659  18.773  0.00  0.00    +0.000 N 
ENDROOT
BRANCH   6  11
ATOM     11  C   UNL     1       0.387   9.993  21.067  0.00  0.00    +0.000 A 
ATOM     12  C   UNL     1      -0.656  10.901  20.874  0.00  0.00    +0.000 A 
ATOM     13  C   UNL     1      -1.415  11.317  21.967  0.00  0.00    +0.000 A 
ATOM     14  C   UNL     1      -1.105  10.802  23.215  0.00  0.00    +0.000 A 
ATOM     15  N   UNL     1      -0.109   9.919  23.439  0.00  0.00    +0.000 NA
ATOM     16  C   UNL     1       0.615   9.532  22.356  0.00  0.00    +0.000 A 
ENDBRANCH   6  11
BRANCH   1  19
ATOM     17  N   UNL     1       4.776   4.457  16.755  0.00  0.00    +0.000 N 
ATOM     18  C   UNL     1       4.465   5.629  17.388  0.00  0.00    +0.000 A 
ATOM     19  C   UNL     1       3.306   5.386  18.087  0.00  0.00    +0.000 A 
ATOM     20  C   UNL     1       2.967   4.057  17.759  0.00  0.00    +0.000 A 
ATOM     21  N   UNL     1       3.850   3.495  16.928  0.00  0.00    +0.000 NA
BRANCH  17  22
ATOM     22  C   UNL     1       5.967   4.176  15.982  0.00  0.00    +0.000 C 
BRANCH  22  23
ATOM     23  C   UNL     1       7.201   4.807  16.606  0.00  0.00    +0.000 C 
BRANCH  23  25
ATOM     24  C   UNL     1       7.796   5.407  18.804  0.00  0.00    +0.000 C 
ATOM     25  O   UNL     1       7.329   4.361  17.960  0.00  0.00    +0.000 OA
ENDBRANCH  23  25
ENDBRANCH  22  23
ENDBRANCH  17  22
ENDBRANCH   1  19
TORSDOF 5
ENDMDL
MODEL 4
REMARK VINA RESULT:      -6.8      3.000      8.392
REMARK  Name = 
REMARK  7 active torsions:
REMARK  status: ('A' for Active; 'I' for Inactive)
REMARK    1  A    between atoms: C_1  and  O_2
REMARK    2  A    between atoms: O_2  and  C_3
REMARK    3  A    between atoms: C_3  and  C_4
REMARK    4  A    between atoms: C_4  and  N_5
REMARK    5  A    between atoms: C_7  and  C_8
REMARK    6  A    between atoms: C_9  and  C_10
REMARK    7  A    between atoms: C_13  and  C_14
REMARK                            x       y       z     vdW  Elec       q    Type
REMARK                         _______ _______ _______ _____ _____    ______ ____
ROOT
ATOM      1  C   UNL     1       2.204   7.305  19.600  0.00  0.00    +0.000 A 
ATOM      2  C   UNL     1       2.621   7.976  18.455  0.00  0.00    +0.000 A 
ATOM      3  C   UNL     1       2.309   9.333  17.941  0.00  0.00    +0.000 C 
ATOM      4  N   UNL     1       3.540   7.222  17.757  0.00  0.00    +0.000 NA
ATOM      5  C   UNL     1       3.674   6.114  18.448  0.00  0.00    +0.000 A 
ATOM      6  C   UNL     1       4.492   4.952  18.149  0.00  0.00    +0.000 A 
ATOM      7  N   UNL     1       4.522   3.931  18.971  0.00  0.00    +0.000 NA
ATOM      8  C   UNL     1       3.716   3.970  20.094  0.00  0.00    +0.000 A 
ATOM      9  C   UNL     1       2.924   5.005  20.419  0.00  0.00    +0.000 A 
ATOM     10  N   UNL     1       2.909   6.116  19.591  0.00  0.00    +0.000 N 
ENDROOT
BRANCH   6  11
ATOM     11  C   UNL     1       5.299   4.898  16.906  0.00  0.00    +0.000 A 
ATOM     12  C   UNL     1       4.792   4.260  15.771  0.00  0.00    +0.000 A 
ATOM     13  C   UNL     1       5.529   4.279  14.587  0.00  0.00    +0.000 A 
ATOM     14  C   UNL     1       6.744   4.945  14.581  0.00  0.00    +0.000 A 
ATOM     15  N   UNL     1       7.262   5.577  15.656  0.00  0.00    +0.000 NA
ATOM     16  C   UNL     1       6.524   5.540  16.796  0.00  0.00    +0.000 A 
ENDBRANCH   6  11
BRANCH   1  19
ATOM     17  N   UNL     1       0.277   8.798  22.302  0.00  0.00    +0.000 N 
ATOM     18  C   UNL     1       1.487   8.560  21.710  0.00  0.00    +0.000 A 
ATOM     19  C   UNL     1       1.223   7.772  20.614  0.00  0.00    +0.000 A 
ATOM     20  C   UNL     1      -0.167   7.541  20.671  0.00  0.00    +0.000 A 
ATOM     21  N   UNL     1      -0.743   8.147  21.713  0.00  0.00    +0.000 NA
BRANCH  17  22
ATOM     22  C   UNL     1       0.018   9.668  23.430  0.00  0.00    +0.000 C 
BRANCH  22  23
ATOM     23  C   UNL     1      -1.046  10.704  23.106  0.00  0.00    +0.000 C 
BRANCH  23  25
ATOM     24  C   UNL     1      -1.379  12.942  22.458  0.00  0.00    +0.000 C 
ATOM     25  O   UNL     1      -0.416  11.943  22.768  0.00  0.00    +0.000 OA
ENDBRANCH  23  25
ENDBRANCH  22  23
ENDBRANCH  17  22
ENDBRANCH   1  19
TORSDOF 5
ENDMDL
MODEL 5
REMARK VINA RESULT:      -6.6      3.291      8.620
REMARK  Name = 
REMARK  7 active torsions:
REMARK  status: ('A' for Active; 'I' for Inactive)
REMARK    1  A    between atoms: C_1  and  O_2
REMARK    2  A    between atoms: O_2  and  C_3
REMARK    3  A    between atoms: C_3  and  C_4
REMARK    4  A    between atoms: C_4  and  N_5
REMARK    5  A    between atoms: C_7  and  C_8
REMARK    6  A    between atoms: C_9  and  C_10
REMARK    7  A    between atoms: C_13  and  C_14
REMARK                            x       y       z     vdW  Elec       q    Type
REMARK                         _______ _______ _______ _____ _____    ______ ____
ROOT
ATOM      1  C   UNL     1       1.669   8.514  19.407  0.00  0.00    +0.000 A 
ATOM      2  C   UNL     1       2.345   8.996  18.291  0.00  0.00    +0.000 A 
ATOM      3  C   UNL     1       2.326  10.323  17.626  0.00  0.00    +0.000 C 
ATOM      4  N   UNL     1       3.226   8.051  17.810  0.00  0.00    +0.000 NA
ATOM      5  C   UNL     1       3.085   7.013  18.602  0.00  0.00    +0.000 A 
ATOM      6  C   UNL     1       3.746   5.722  18.531  0.00  0.00    +0.000 A 
ATOM      7  N   UNL     1       3.498   4.798  19.428  0.00  0.00    +0.000 NA
ATOM      8  C   UNL     1       2.555   5.068  20.402  0.00  0.00    +0.000 A 
ATOM      9  C   UNL     1       1.896   6.233  20.514  0.00  0.00    +0.000 A 
ATOM     10  N   UNL     1       2.174   7.242  19.605  0.00  0.00    +0.000 N 
ENDROOT
BRANCH   6  11
ATOM     11  C   UNL     1       4.705   5.425  17.439  0.00  0.00    +0.000 A 
ATOM     12  C   UNL     1       4.510   4.309  16.622  0.00  0.00    +0.000 A 
ATOM     13  C   UNL     1       5.377   4.082  15.553  0.00  0.00    +0.000 A 
ATOM     14  C   UNL     1       6.404   4.987  15.337  0.00  0.00    +0.000 A 
ATOM     15  N   UNL     1       6.619   6.078  16.102  0.00  0.00    +0.000 NA
ATOM     16  C   UNL     1       5.761   6.274  17.137  0.00  0.00    +0.000 A 
ENDBRANCH   6  11
BRANCH   1  19
ATOM     17  N   UNL     1      -0.518  10.054  21.875  0.00  0.00    +0.000 N 
ATOM     18  C   UNL     1       0.516   9.207  21.582  0.00  0.00    +0.000 A 
ATOM     19  C   UNL     1       0.637   9.218  20.212  0.00  0.00    +0.000 A 
ATOM     20  C   UNL     1      -0.410  10.054  19.771  0.00  0.00    +0.000 A 
ATOM     21  N   UNL     1      -1.130  10.547  20.783  0.00  0.00    +0.000 NA
BRANCH  17  22
ATOM     22  C   UNL     1      -0.961  10.461  23.192  0.00  0.00    +0.000 C 
BRANCH  22  23
ATOM     23  C   UNL     1      -1.572  11.852  23.172  0.00  0.00    +0.000 C 
BRANCH  23  25
ATOM     24  C   UNL     1      -3.733  12.617  22.636  0.00  0.00    +0.000 C 
ATOM     25  O   UNL     1      -2.967  11.762  23.476  0.00  0.00    +0.000 OA
ENDBRANCH  23  25
ENDBRANCH  22  23
ENDBRANCH  17  22
ENDBRANCH   1  19
TORSDOF 5
ENDMDL
MODEL 6
REMARK VINA RESULT:      -6.6      3.295      7.481
REMARK  Name = 
REMARK  7 active torsions:
REMARK  status: ('A' for Active; 'I' for Inactive)
REMARK    1  A    between atoms: C_1  and  O_2
REMARK    2  A    between atoms: O_2  and  C_3
REMARK    3  A    between atoms: C_3  and  C_4
REMARK    4  A    between atoms: C_4  and  N_5
REMARK    5  A    between atoms: C_7  and  C_8
REMARK    6  A    between atoms: C_9  and  C_10
REMARK    7  A    between atoms: C_13  and  C_14
REMARK                            x       y       z     vdW  Elec       q    Type
REMARK                         _______ _______ _______ _____ _____    ______ ____
ROOT
ATOM      1  C   UNL     1       0.944   9.865  20.411  0.00  0.00    +0.000 A 
ATOM      2  C   UNL     1       0.727   9.052  21.519  0.00  0.00    +0.000 A 
ATOM      3  C   UNL     1       0.073   9.320  22.824  0.00  0.00    +0.000 C 
ATOM      4  N   UNL     1       1.153   7.765  21.268  0.00  0.00    +0.000 NA
ATOM      5  C   UNL     1       1.629   7.791  20.044  0.00  0.00    +0.000 A 
ATOM      6  C   UNL     1       2.241   6.714  19.286  0.00  0.00    +0.000 A 
ATOM      7  N   UNL     1       2.645   6.914  18.055  0.00  0.00    +0.000 NA
ATOM      8  C   UNL     1       2.523   8.185  17.524  0.00  0.00    +0.000 A 
ATOM      9  C   UNL     1       1.982   9.227  18.177  0.00  0.00    +0.000 A 
ATOM     10  N   UNL     1       1.506   9.031  19.463  0.00  0.00    +0.000 N 
ENDROOT
BRANCH   6  11
ATOM     11  C   UNL     1       2.427   5.375  19.896  0.00  0.00    +0.000 A 
ATOM     12  C   UNL     1       1.375   4.769  20.588  0.00  0.00    +0.000 A 
ATOM     13  C   UNL     1       1.539   3.480  21.093  0.00  0.00    +0.000 A 
ATOM     14  C   UNL     1       2.750   2.841  20.881  0.00  0.00    +0.000 A 
ATOM     15  N   UNL     1       3.785   3.392  20.213  0.00  0.00    +0.000 NA
ATOM     16  C   UNL     1       3.598   4.650  19.733  0.00  0.00    +0.000 A 
ENDBRANCH   6  11
BRANCH   1  19
ATOM     17  N   UNL     1       0.774  13.497  20.244  0.00  0.00    +0.000 N 
ATOM     18  C   UNL     1       1.445  12.364  20.616  0.00  0.00    +0.000 A 
ATOM     19  C   UNL     1       0.629  11.312  20.277  0.00  0.00    +0.000 A 
ATOM     20  C   UNL     1      -0.536  11.919  19.765  0.00  0.00    +0.000 A 
ATOM     21  N   UNL     1      -0.459  13.253  19.765  0.00  0.00    +0.000 NA
BRANCH  17  22
ATOM     22  C   UNL     1       1.269  14.856  20.296  0.00  0.00    +0.000 C 
BRANCH  22  23
ATOM     23  C   UNL     1       1.493  15.424  18.904  0.00  0.00    +0.000 C 
BRANCH  23  25
ATOM     24  C   UNL     1       3.720  14.870  18.378  0.00  0.00    +0.000 C 
ATOM     25  O   UNL     1       2.350  14.548  18.166  0.00  0.00    +0.000 OA
ENDBRANCH  23  25
ENDBRANCH  22  23
ENDBRANCH  17  22
ENDBRANCH   1  19
TORSDOF 5
ENDMDL
MODEL 7
REMARK VINA RESULT:      -6.5      3.737      8.141
REMARK  Name = 
REMARK  7 active torsions:
REMARK  status: ('A' for Active; 'I' for Inactive)
REMARK    1  A    between atoms: C_1  and  O_2
REMARK    2  A    between atoms: O_2  and  C_3
REMARK    3  A    between atoms: C_3  and  C_4
REMARK    4  A    between atoms: C_4  and  N_5
REMARK    5  A    between atoms: C_7  and  C_8
REMARK    6  A    between atoms: C_9  and  C_10
REMARK    7  A    between atoms: C_13  and  C_14
REMARK                            x       y       z     vdW  Elec       q    Type
REMARK                         _______ _______ _______ _____ _____    ______ ____
ROOT
ATOM      1  C   UNL     1       0.852   9.844  20.468  0.00  0.00    +0.000 A 
ATOM      2  C   UNL     1       0.644   8.996  21.552  0.00  0.00    +0.000 A 
ATOM      3  C   UNL     1      -0.041   9.209  22.852  0.00  0.00    +0.000 C 
ATOM      4  N   UNL     1       1.115   7.730  21.276  0.00  0.00    +0.000 NA
ATOM      5  C   UNL     1       1.610   7.802  20.063  0.00  0.00    +0.000 A 
ATOM      6  C   UNL     1       2.269   6.765  19.289  0.00  0.00    +0.000 A 
ATOM      7  N   UNL     1       2.686   7.010  18.070  0.00  0.00    +0.000 NA
ATOM      8  C   UNL     1       2.532   8.289  17.568  0.00  0.00    +0.000 A 
ATOM      9  C   UNL     1       1.948   9.296  18.238  0.00  0.00    +0.000 A 
ATOM     10  N   UNL     1       1.457   9.052  19.510  0.00  0.00    +0.000 N 
ENDROOT
BRANCH   6  11
ATOM     11  C   UNL     1       2.488   5.417  19.868  0.00  0.00    +0.000 A 
ATOM     12  C   UNL     1       1.475   4.801  20.606  0.00  0.00    +0.000 A 
ATOM     13  C   UNL     1       1.667   3.504  21.083  0.00  0.00    +0.000 A 
ATOM     14  C   UNL     1       2.864   2.870  20.797  0.00  0.00    +0.000 A 
ATOM     15  N   UNL     1       3.862   3.432  20.082  0.00  0.00    +0.000 NA
ATOM     16  C   UNL     1       3.649   4.696  19.631  0.00  0.00    +0.000 A 
ENDBRANCH   6  11
BRANCH   1  19
ATOM     17  N   UNL     1       0.544  13.470  20.459  0.00  0.00    +0.000 N 
ATOM     18  C   UNL     1       1.211  12.345  20.860  0.00  0.00    +0.000 A 
ATOM     19  C   UNL     1       0.493  11.283  20.365  0.00  0.00    +0.000 A 
ATOM     20  C   UNL     1      -0.623  11.872  19.735  0.00  0.00    +0.000 A 
ATOM     21  N   UNL     1      -0.605  13.206  19.810  0.00  0.00    +0.000 NA
BRANCH  17  22
ATOM     22  C   UNL     1       0.967  14.842  20.641  0.00  0.00    +0.000 C 
BRANCH  22  23
ATOM     23  C   UNL     1       0.085  15.571  21.642  0.00  0.00    +0.000 C 
BRANCH  23  25
ATOM     24  C   UNL     1      -1.041  14.606  23.469  0.00  0.00    +0.000 C 
ATOM     25  O   UNL     1       0.225  14.964  22.929  0.00  0.00    +0.000 OA
ENDBRANCH  23  25
ENDBRANCH  22  23
ENDBRANCH  17  22
ENDBRANCH   1  19
TORSDOF 5
ENDMDL
MODEL 8
REMARK VINA RESULT:      -6.5      3.773      7.945
REMARK  Name = 
REMARK  7 active torsions:
REMARK  status: ('A' for Active; 'I' for Inactive)
REMARK    1  A    between atoms: C_1  and  O_2
REMARK    2  A    between atoms: O_2  and  C_3
REMARK    3  A    between atoms: C_3  and  C_4
REMARK    4  A    between atoms: C_4  and  N_5
REMARK    5  A    between atoms: C_7  and  C_8
REMARK    6  A    between atoms: C_9  and  C_10
REMARK    7  A    between atoms: C_13  and  C_14
REMARK                            x       y       z     vdW  Elec       q    Type
REMARK                         _______ _______ _______ _____ _____    ______ ____
ROOT
ATOM      1  C   UNL     1       0.911   9.844  20.355  0.00  0.00    +0.000 A 
ATOM      2  C   UNL     1       0.676   9.033  21.461  0.00  0.00    +0.000 A 
ATOM      3  C   UNL     1      -0.007   9.302  22.751  0.00  0.00    +0.000 C 
ATOM      4  N   UNL     1       1.114   7.747  21.223  0.00  0.00    +0.000 NA
ATOM      5  C   UNL     1       1.615   7.772  20.010  0.00  0.00    +0.000 A 
ATOM      6  C   UNL     1       2.249   6.697  19.268  0.00  0.00    +0.000 A 
ATOM      7  N   UNL     1       2.677   6.895  18.045  0.00  0.00    +0.000 NA
ATOM      8  C   UNL     1       2.559   8.163  17.507  0.00  0.00    +0.000 A 
ATOM      9  C   UNL     1       2.000   9.205  18.145  0.00  0.00    +0.000 A 
ATOM     10  N   UNL     1       1.498   9.010  19.422  0.00  0.00    +0.000 N 
ENDROOT
BRANCH   6  11
ATOM     11  C   UNL     1       2.429   5.360  19.886  0.00  0.00    +0.000 A 
ATOM     12  C   UNL     1       1.358   4.738  20.532  0.00  0.00    +0.000 A 
ATOM     13  C   UNL     1       1.521   3.452  21.045  0.00  0.00    +0.000 A 
ATOM     14  C   UNL     1       2.749   2.832  20.885  0.00  0.00    +0.000 A 
ATOM     15  N   UNL     1       3.804   3.399  20.262  0.00  0.00    +0.000 NA
ATOM     16  C   UNL     1       3.618   4.654  19.774  0.00  0.00    +0.000 A 
ENDBRANCH   6  11
BRANCH   1  19
ATOM     17  N   UNL     1       0.711  13.476  20.218  0.00  0.00    +0.000 N 
ATOM     18  C   UNL     1       1.359  12.346  20.638  0.00  0.00    +0.000 A 
ATOM     19  C   UNL     1       0.592  11.289  20.210  0.00  0.00    +0.000 A 
ATOM     20  C   UNL     1      -0.528  11.889  19.597  0.00  0.00    +0.000 A 
ATOM     21  N   UNL     1      -0.468  13.223  19.622  0.00  0.00    +0.000 NA
BRANCH  17  22
ATOM     22  C   UNL     1       1.181  14.840  20.333  0.00  0.00    +0.000 C 
BRANCH  22  23
ATOM     23  C   UNL     1       1.050  15.589  19.018  0.00  0.00    +0.000 C 
BRANCH  23  25
ATOM     24  C   UNL     1      -0.552  17.057  18.110  0.00  0.00    +0.000 C 
ATOM     25  O   UNL     1       0.289  16.783  19.225  0.00  0.00    +0.000 OA
ENDBRANCH  23  25
ENDBRANCH  22  23
ENDBRANCH  17  22
ENDBRANCH   1  19
TORSDOF 5
ENDMDL
MODEL 9
REMARK VINA RESULT:      -6.5      3.825      8.313
REMARK  Name = 
REMARK  7 active torsions:
REMARK  status: ('A' for Active; 'I' for Inactive)
REMARK    1  A    between atoms: C_1  and  O_2
REMARK    2  A    between atoms: O_2  and  C_3
REMARK    3  A    between atoms: C_3  and  C_4
REMARK    4  A    between atoms: C_4  and  N_5
REMARK    5  A    between atoms: C_7  and  C_8
REMARK    6  A    between atoms: C_9  and  C_10
REMARK    7  A    between atoms: C_13  and  C_14
REMARK                            x       y       z     vdW  Elec       q    Type
REMARK                         _______ _______ _______ _____ _____    ______ ____
ROOT
ATOM      1  C   UNL     1       0.859   9.942  20.622  0.00  0.00    +0.000 A 
ATOM      2  C   UNL     1       0.669   9.073  21.692  0.00  0.00    +0.000 A 
ATOM      3  C   UNL     1       0.021   9.266  23.013  0.00  0.00    +0.000 C 
ATOM      4  N   UNL     1       1.118   7.808  21.377  0.00  0.00    +0.000 NA
ATOM      5  C   UNL     1       1.582   7.901  20.152  0.00  0.00    +0.000 A 
ATOM      6  C   UNL     1       2.208   6.874  19.339  0.00  0.00    +0.000 A 
ATOM      7  N   UNL     1       2.597   7.140  18.115  0.00  0.00    +0.000 NA
ATOM      8  C   UNL     1       2.445   8.432  17.646  0.00  0.00    +0.000 A 
ATOM      9  C   UNL     1       1.890   9.431  18.351  0.00  0.00    +0.000 A 
ATOM     10  N   UNL     1       1.429   9.165  19.631  0.00  0.00    +0.000 N 
ENDROOT
BRANCH   6  11
ATOM     11  C   UNL     1       2.427   5.512  19.883  0.00  0.00    +0.000 A 
ATOM     12  C   UNL     1       1.420   4.883  20.619  0.00  0.00    +0.000 A 
ATOM     13  C   UNL     1       1.609   3.575  21.063  0.00  0.00    +0.000 A 
ATOM     14  C   UNL     1       2.800   2.941  20.747  0.00  0.00    +0.000 A 
ATOM     15  N   UNL     1       3.792   3.515  20.034  0.00  0.00    +0.000 NA
ATOM     16  C   UNL     1       3.581   4.790  19.616  0.00  0.00    +0.000 A 
ENDBRANCH   6  11
BRANCH   1  19
ATOM     17  N   UNL     1      -0.583  13.281  20.477  0.00  0.00    +0.000 N 
ATOM     18  C   UNL     1      -0.740  11.924  20.390  0.00  0.00    +0.000 A 
ATOM     19  C   UNL     1       0.514  11.387  20.559  0.00  0.00    +0.000 A 
ATOM     20  C   UNL     1       1.366  12.505  20.677  0.00  0.00    +0.000 A 
ATOM     21  N   UNL     1       0.701  13.661  20.605  0.00  0.00    +0.000 NA
BRANCH  17  22
ATOM     22  C   UNL     1      -1.631  14.279  20.472  0.00  0.00    +0.000 C 
BRANCH  22  23
ATOM     23  C   UNL     1      -2.861  13.803  21.226  0.00  0.00    +0.000 C 
BRANCH  23  25
ATOM     24  C   UNL     1      -3.217  12.560  23.194  0.00  0.00    +0.000 C 
ATOM     25  O   UNL     1      -2.545  13.672  22.616  0.00  0.00    +0.000 OA
ENDBRANCH  23  25
ENDBRANCH  22  23
ENDBRANCH  17  22
ENDBRANCH   1  19
TORSDOF 5
ENDMDL
