MODEL 1
REMARK VINA RESULT:      -5.9      0.000      0.000
REMARK  Name = 
REMARK  7 active torsions:
REMARK  status: ('A' for Active; 'I' for Inactive)
REMARK    1  A    between atoms: C_1  and  C_2
REMARK    2  A    between atoms: C_2  and  C_3
REMARK    3  A    between atoms: C_3  and  N_4
REMARK    4  A    between atoms: N_4  and  C_5
REMARK    5  A    between atoms: N_4  and  C_8
REMARK    6  A    between atoms: C_5  and  C_6
REMARK    7  A    between atoms: C_6  and  C_7
REMARK                            x       y       z     vdW  Elec       q    Type
REMARK                         _______ _______ _______ _____ _____    ______ ____
ROOT
ATOM      1  C   UNL     1       3.563   3.870  18.428  0.00  0.00    +0.000 C 
ATOM      2  C   UNL     1       4.849   3.547  19.226  0.00  0.00    +0.000 C 
ATOM      3  C   UNL     1       5.912   4.564  18.893  0.00  0.00    +0.000 A 
ATOM      4  C   UNL     1       6.770   5.058  19.880  0.00  0.00    +0.000 A 
ATOM      5  C   UNL     1       7.725   6.025  19.561  0.00  0.00    +0.000 A 
ATOM      6  C   UNL     1       7.854   6.472  18.245  0.00  0.00    +0.000 A 
ATOM      7  C   UNL     1       7.027   5.953  17.243  0.00  0.00    +0.000 A 
ATOM      8  C   UNL     1       6.039   5.022  17.572  0.00  0.00    +0.000 A 
ATOM      9  N   UNL     1       5.148   4.579  16.560  0.00  0.00    +0.000 N 
ATOM     10  C   UNL     1       4.002   3.748  16.936  0.00  0.00    +0.000 C 
ATOM     11  C   UNL     1       5.414   4.775  15.216  0.00  0.00    +0.000 C 
ATOM     12  O   UNL     1       4.743   4.296  14.301  0.00  0.00    +0.000 OA
ATOM     13  N   UNL     1       6.522   5.514  14.914  0.00  0.00    +0.000 N 
ATOM     14  C   UNL     1       7.082   6.460  15.839  0.00  0.00    +0.000 C 
ATOM     15  H   UNL     1       6.643   5.668  13.924  0.00  0.00    +0.000 HD
ENDROOT
BRANCH   1  16
ATOM     16  N   UNL     1       3.005   5.171  18.888  0.00  0.00    +0.000 NA
BRANCH  16  17
ATOM     17  C   UNL     1       2.270   5.114  20.162  0.00  0.00    +0.000 C 
BRANCH  17  19
ATOM     18  C   UNL     1       1.473   3.041  21.348  0.00  0.00    +0.000 C 
ATOM     19  C   UNL     1       1.148   4.071  20.271  0.00  0.00    +0.000 C 
ENDBRANCH  17  19
ENDBRANCH  16  17
BRANCH  16  20
ATOM     20  C   UNL     1       2.420   6.047  17.876  0.00  0.00    +0.000 C 
BRANCH  20  21
ATOM     21  C   UNL     1       3.127   7.411  17.781  0.00  0.00    +0.000 C 
ATOM     22  C   UNL     1       2.150   8.580  17.841  0.00  0.00    +0.000 C 
ENDBRANCH  20  21
ENDBRANCH  16  20
ENDBRANCH   1  16
TORSDOF 5
ENDMDL
MODEL 2
REMARK VINA RESULT:      -5.7      8.145     10.158
REMARK  Name = 
REMARK  7 active torsions:
REMARK  status: ('A' for Active; 'I' for Inactive)
REMARK    1  A    between atoms: C_1  and  C_2
REMARK    2  A    between atoms: C_2  and  C_3
REMARK    3  A    between atoms: C_3  and  N_4
REMARK    4  A    between atoms: N_4  and  C_5
REMARK    5  A    between atoms: N_4  and  C_8
REMARK    6  A    between atoms: C_5  and  C_6
REMARK    7  A    between atoms: C_6  and  C_7
REMARK                            x       y       z     vdW  Elec       q    Type
REMARK                         _______ _______ _______ _____ _____    ______ ____
ROOT
ATOM      1  C   UNL     1      -1.224  11.421  18.220  0.00  0.00    +0.000 C 
ATOM      2  C   UNL     1      -0.182  10.459  18.841  0.00  0.00    +0.000 C 
ATOM      3  C   UNL     1      -0.377  10.411  20.336  0.00  0.00    +0.000 A 
ATOM      4  C   UNL     1      -0.243   9.212  21.041  0.00  0.00    +0.000 A 
ATOM      5  C   UNL     1      -0.461   9.179  22.420  0.00  0.00    +0.000 A 
ATOM      6  C   UNL     1      -0.772  10.353  23.106  0.00  0.00    +0.000 A 
ATOM      7  C   UNL     1      -0.868  11.566  22.414  0.00  0.00    +0.000 A 
ATOM      8  C   UNL     1      -0.698  11.590  21.028  0.00  0.00    +0.000 A 
ATOM      9  N   UNL     1      -0.893  12.811  20.332  0.00  0.00    +0.000 N 
ATOM     10  C   UNL     1      -0.897  12.802  18.868  0.00  0.00    +0.000 C 
ATOM     11  C   UNL     1      -0.922  14.029  20.989  0.00  0.00    +0.000 C 
ATOM     12  O   UNL     1      -0.955  15.120  20.421  0.00  0.00    +0.000 OA
ATOM     13  N   UNL     1      -0.865  13.988  22.354  0.00  0.00    +0.000 N 
ATOM     14  C   UNL     1      -1.273  12.830  23.098  0.00  0.00    +0.000 C 
ATOM     15  H   UNL     1      -0.939  14.898  22.784  0.00  0.00    +0.000 HD
ENDROOT
BRANCH   1  16
ATOM     16  N   UNL     1      -2.591  10.866  18.410  0.00  0.00    +0.000 NA
BRANCH  16  17
ATOM     17  C   UNL     1      -2.949   9.772  17.492  0.00  0.00    +0.000 C 
BRANCH  17  19
ATOM     18  C   UNL     1      -3.375  10.497  15.119  0.00  0.00    +0.000 C 
ATOM     19  C   UNL     1      -2.376   9.844  16.069  0.00  0.00    +0.000 C 
ENDBRANCH  17  19
ENDBRANCH  16  17
BRANCH  16  20
ATOM     20  C   UNL     1      -3.668  11.812  18.693  0.00  0.00    +0.000 C 
BRANCH  20  21
ATOM     21  C   UNL     1      -5.055  11.278  18.298  0.00  0.00    +0.000 C 
ATOM     22  C   UNL     1      -5.824  12.252  17.411  0.00  0.00    +0.000 C 
ENDBRANCH  20  21
ENDBRANCH  16  20
ENDBRANCH   1  16
TORSDOF 5
ENDMDL
MODEL 3
REMARK VINA RESULT:      -5.7      1.803      5.437
REMARK  Name = 
REMARK  7 active torsions:
REMARK  status: ('A' for Active; 'I' for Inactive)
REMARK    1  A    between atoms: C_1  and  C_2
REMARK    2  A    between atoms: C_2  and  C_3
REMARK    3  A    between atoms: C_3  and  N_4
REMARK    4  A    between atoms: N_4  and  C_5
REMARK    5  A    between atoms: N_4  and  C_8
REMARK    6  A    between atoms: C_5  and  C_6
REMARK    7  A    between atoms: C_6  and  C_7
REMARK                            x       y       z     vdW  Elec       q    Type
REMARK                         _______ _______ _______ _____ _____    ______ ____
ROOT
ATOM      1  C   UNL     1       5.835   5.751  16.287  0.00  0.00    +0.000 C 
ATOM      2  C   UNL     1       4.666   6.737  16.042  0.00  0.00    +0.000 C 
ATOM      3  C   UNL     1       3.782   6.774  17.263  0.00  0.00    +0.000 A 
ATOM      4  C   UNL     1       3.219   7.974  17.708  0.00  0.00    +0.000 A 
ATOM      5  C   UNL     1       2.430   7.997  18.860  0.00  0.00    +0.000 A 
ATOM      6  C   UNL     1       2.167   6.812  19.549  0.00  0.00    +0.000 A 
ATOM      7  C   UNL     1       2.693   5.600  19.088  0.00  0.00    +0.000 A 
ATOM      8  C   UNL     1       3.521   5.586  17.963  0.00  0.00    +0.000 A 
ATOM      9  N   UNL     1       4.122   4.362  17.568  0.00  0.00    +0.000 N 
ATOM     10  C   UNL     1       5.131   4.377  16.506  0.00  0.00    +0.000 C 
ATOM     11  C   UNL     1       3.673   3.142  18.041  0.00  0.00    +0.000 C 
ATOM     12  O   UNL     1       4.070   2.052  17.629  0.00  0.00    +0.000 OA
ATOM     13  N   UNL     1       2.695   3.179  18.995  0.00  0.00    +0.000 N 
ATOM     14  C   UNL     1       2.498   4.324  19.839  0.00  0.00    +0.000 C 
ATOM     15  H   UNL     1       2.439   2.266  19.340  0.00  0.00    +0.000 HD
ENDROOT
BRANCH   1  16
ATOM     16  N   UNL     1       6.706   6.272  17.374  0.00  0.00    +0.000 NA
BRANCH  16  17
ATOM     17  C   UNL     1       7.391   7.538  17.067  0.00  0.00    +0.000 C 
BRANCH  17  19
ATOM     18  C   UNL     1       8.384   9.661  17.987  0.00  0.00    +0.000 C 
ATOM     19  C   UNL     1       8.244   8.156  18.184  0.00  0.00    +0.000 C 
ENDBRANCH  17  19
ENDBRANCH  16  17
BRANCH  16  20
ATOM     20  C   UNL     1       7.506   5.301  18.117  0.00  0.00    +0.000 C 
BRANCH  20  21
ATOM     21  C   UNL     1       7.196   5.296  19.624  0.00  0.00    +0.000 C 
ATOM     22  C   UNL     1       8.456   5.372  20.480  0.00  0.00    +0.000 C 
ENDBRANCH  20  21
ENDBRANCH  16  20
ENDBRANCH   1  16
TORSDOF 5
ENDMDL
MODEL 4
REMARK VINA RESULT:      -5.6      1.917      5.569
REMARK  Name = 
REMARK  7 active torsions:
REMARK  status: ('A' for Active; 'I' for Inactive)
REMARK    1  A    between atoms: C_1  and  C_2
REMARK    2  A    between atoms: C_2  and  C_3
REMARK    3  A    between atoms: C_3  and  N_4
REMARK    4  A    between atoms: N_4  and  C_5
REMARK    5  A    between atoms: N_4  and  C_8
REMARK    6  A    between atoms: C_5  and  C_6
REMARK    7  A    between atoms: C_6  and  C_7
REMARK                            x       y       z     vdW  Elec       q    Type
REMARK                         _______ _______ _______ _____ _____    ______ ____
ROOT
ATOM      1  C   UNL     1       4.487   5.501  16.921  0.00  0.00    +0.000 C 
ATOM      2  C   UNL     1       3.350   6.548  17.007  0.00  0.00    +0.000 C 
ATOM      3  C   UNL     1       2.750   6.520  18.390  0.00  0.00    +0.000 A 
ATOM      4  C   UNL     1       2.362   7.700  19.031  0.00  0.00    +0.000 A 
ATOM      5  C   UNL     1       1.840   7.659  20.325  0.00  0.00    +0.000 A 
ATOM      6  C   UNL     1       1.665   6.434  20.969  0.00  0.00    +0.000 A 
ATOM      7  C   UNL     1       2.013   5.244  20.319  0.00  0.00    +0.000 A 
ATOM      8  C   UNL     1       2.580   5.289  19.043  0.00  0.00    +0.000 A 
ATOM      9  N   UNL     1       3.013   4.080  18.440  0.00  0.00    +0.000 N 
ATOM     10  C   UNL     1       3.771   4.142  17.189  0.00  0.00    +0.000 C 
ATOM     11  C   UNL     1       2.609   2.843  18.912  0.00  0.00    +0.000 C 
ATOM     12  O   UNL     1       2.848   1.776  18.347  0.00  0.00    +0.000 OA
ATOM     13  N   UNL     1       1.861   2.840  20.055  0.00  0.00    +0.000 N 
ATOM     14  C   UNL     1       1.912   3.919  21.001  0.00  0.00    +0.000 C 
ATOM     15  H   UNL     1       1.634   1.912  20.382  0.00  0.00    +0.000 HD
ENDROOT
BRANCH   1  16
ATOM     16  N   UNL     1       5.599   5.897  17.828  0.00  0.00    +0.000 NA
BRANCH  16  17
ATOM     17  C   UNL     1       6.239   7.181  17.499  0.00  0.00    +0.000 C 
BRANCH  17  19
ATOM     18  C   UNL     1       8.081   8.858  17.867  0.00  0.00    +0.000 C 
ATOM     19  C   UNL     1       7.668   7.397  18.017  0.00  0.00    +0.000 C 
ENDBRANCH  17  19
ENDBRANCH  16  17
BRANCH  16  20
ATOM     20  C   UNL     1       6.512   4.846  18.271  0.00  0.00    +0.000 C 
BRANCH  20  21
ATOM     21  C   UNL     1       7.647   4.576  17.269  0.00  0.00    +0.000 C 
ATOM     22  C   UNL     1       7.133   4.055  15.931  0.00  0.00    +0.000 C 
ENDBRANCH  20  21
ENDBRANCH  16  20
ENDBRANCH   1  16
TORSDOF 5
ENDMDL
MODEL 5
REMARK VINA RESULT:      -5.6      7.070      9.701
REMARK  Name = 
REMARK  7 active torsions:
REMARK  status: ('A' for Active; 'I' for Inactive)
REMARK    1  A    between atoms: C_1  and  C_2
REMARK    2  A    between atoms: C_2  and  C_3
REMARK    3  A    between atoms: C_3  and  N_4
REMARK    4  A    between atoms: N_4  and  C_5
REMARK    5  A    between atoms: N_4  and  C_8
REMARK    6  A    between atoms: C_5  and  C_6
REMARK    7  A    between atoms: C_6  and  C_7
REMARK                            x       y       z     vdW  Elec       q    Type
REMARK                         _______ _______ _______ _____ _____    ______ ____
ROOT
ATOM      1  C   UNL     1      -1.775  12.556  19.154  0.00  0.00    +0.000 C 
ATOM      2  C   UNL     1      -0.283  12.347  18.797  0.00  0.00    +0.000 C 
ATOM      3  C   UNL     1       0.190  11.037  19.376  0.00  0.00    +0.000 A 
ATOM      4  C   UNL     1       1.065  10.210  18.665  0.00  0.00    +0.000 A 
ATOM      5  C   UNL     1       1.466   8.985  19.201  0.00  0.00    +0.000 A 
ATOM      6  C   UNL     1       1.026   8.599  20.468  0.00  0.00    +0.000 A 
ATOM      7  C   UNL     1       0.182   9.439  21.204  0.00  0.00    +0.000 A 
ATOM      8  C   UNL     1      -0.257  10.643  20.647  0.00  0.00    +0.000 A 
ATOM      9  N   UNL     1      -1.188  11.435  21.369  0.00  0.00    +0.000 N 
ATOM     10  C   UNL     1      -1.788  12.599  20.714  0.00  0.00    +0.000 C 
ATOM     11  C   UNL     1      -1.425  11.236  22.718  0.00  0.00    +0.000 C 
ATOM     12  O   UNL     1      -2.118  11.976  23.415  0.00  0.00    +0.000 OA
ATOM     13  N   UNL     1      -0.802  10.166  23.296  0.00  0.00    +0.000 N 
ATOM     14  C   UNL     1      -0.372   9.030  22.529  0.00  0.00    +0.000 C 
ATOM     15  H   UNL     1      -1.047  10.037  24.266  0.00  0.00    +0.000 HD
ENDROOT
BRANCH   1  16
ATOM     16  N   UNL     1      -2.599  11.518  18.477  0.00  0.00    +0.000 NA
BRANCH  16  17
ATOM     17  C   UNL     1      -2.389  11.412  17.024  0.00  0.00    +0.000 C 
BRANCH  17  19
ATOM     18  C   UNL     1      -2.984   9.975  15.044  0.00  0.00    +0.000 C 
ATOM     19  C   UNL     1      -2.347   9.997  16.430  0.00  0.00    +0.000 C 
ENDBRANCH  17  19
ENDBRANCH  16  17
BRANCH  16  20
ATOM     20  C   UNL     1      -3.985  11.370  18.913  0.00  0.00    +0.000 C 
BRANCH  20  21
ATOM     21  C   UNL     1      -4.993  12.007  17.941  0.00  0.00    +0.000 C 
ATOM     22  C   UNL     1      -6.359  11.331  17.990  0.00  0.00    +0.000 C 
ENDBRANCH  20  21
ENDBRANCH  16  20
ENDBRANCH   1  16
TORSDOF 5
ENDMDL
MODEL 6
REMARK VINA RESULT:      -5.6      1.747      3.128
REMARK  Name = 
REMARK  7 active torsions:
REMARK  status: ('A' for Active; 'I' for Inactive)
REMARK    1  A    between atoms: C_1  and  C_2
REMARK    2  A    between atoms: C_2  and  C_3
REMARK    3  A    between atoms: C_3  and  N_4
REMARK    4  A    between atoms: N_4  and  C_5
REMARK    5  A    between atoms: N_4  and  C_8
REMARK    6  A    between atoms: C_5  and  C_6
REMARK    7  A    between atoms: C_6  and  C_7
REMARK                            x       y       z     vdW  Elec       q    Type
REMARK                         _______ _______ _______ _____ _____    ______ ____
ROOT
ATOM      1  C   UNL     1       4.405   3.478  19.650  0.00  0.00    +0.000 C 
ATOM      2  C   UNL     1       4.026   4.798  20.366  0.00  0.00    +0.000 C 
ATOM      3  C   UNL     1       3.703   5.850  19.335  0.00  0.00    +0.000 A 
ATOM      4  C   UNL     1       2.656   6.754  19.532  0.00  0.00    +0.000 A 
ATOM      5  C   UNL     1       2.349   7.700  18.552  0.00  0.00    +0.000 A 
ATOM      6  C   UNL     1       3.115   7.773  17.388  0.00  0.00    +0.000 A 
ATOM      7  C   UNL     1       4.191   6.898  17.200  0.00  0.00    +0.000 A 
ATOM      8  C   UNL     1       4.467   5.920  18.159  0.00  0.00    +0.000 A 
ATOM      9  N   UNL     1       5.502   4.982  17.906  0.00  0.00    +0.000 N 
ATOM     10  C   UNL     1       5.672   3.850  18.819  0.00  0.00    +0.000 C 
ATOM     11  C   UNL     1       6.450   5.189  16.919  0.00  0.00    +0.000 C 
ATOM     12  O   UNL     1       7.438   4.475  16.750  0.00  0.00    +0.000 OA
ATOM     13  N   UNL     1       6.276   6.287  16.125  0.00  0.00    +0.000 N 
ATOM     14  C   UNL     1       4.987   6.893  15.936  0.00  0.00    +0.000 C 
ATOM     15  H   UNL     1       6.965   6.364  15.393  0.00  0.00    +0.000 HD
ENDROOT
BRANCH   1  16
ATOM     16  N   UNL     1       3.221   2.949  18.920  0.00  0.00    +0.000 NA
BRANCH  16  17
ATOM     17  C   UNL     1       2.390   2.009  19.689  0.00  0.00    +0.000 C 
BRANCH  17  19
ATOM     18  C   UNL     1       0.736   3.704  20.543  0.00  0.00    +0.000 C 
ATOM     19  C   UNL     1       1.675   2.566  20.928  0.00  0.00    +0.000 C 
ENDBRANCH  17  19
ENDBRANCH  16  17
BRANCH  16  20
ATOM     20  C   UNL     1       3.397   2.609  17.510  0.00  0.00    +0.000 C 
BRANCH  20  21
ATOM     21  C   UNL     1       2.549   3.485  16.571  0.00  0.00    +0.000 C 
ATOM     22  C   UNL     1       1.376   4.145  17.289  0.00  0.00    +0.000 C 
ENDBRANCH  20  21
ENDBRANCH  16  20
ENDBRANCH   1  16
TORSDOF 5
ENDMDL
MODEL 7
REMARK VINA RESULT:      -5.5      1.989      3.560
REMARK  Name = 
REMARK  7 active torsions:
REMARK  status: ('A' for Active; 'I' for Inactive)
REMARK    1  A    between atoms: C_1  and  C_2
REMARK    2  A    between atoms: C_2  and  C_3
REMARK    3  A    between atoms: C_3  and  N_4
REMARK    4  A    between atoms: N_4  and  C_5
REMARK    5  A    between atoms: N_4  and  C_8
REMARK    6  A    between atoms: C_5  and  C_6
REMARK    7  A    between atoms: C_6  and  C_7
REMARK                            x       y       z     vdW  Elec       q    Type
REMARK                         _______ _______ _______ _____ _____    ______ ____
ROOT
ATOM      1  C   UNL     1       4.048   3.392  19.790  0.00  0.00    +0.000 C 
ATOM      2  C   UNL     1       3.305   4.632  20.346  0.00  0.00    +0.000 C 
ATOM      3  C   UNL     1       3.398   5.758  19.347  0.00  0.00    +0.000 A 
ATOM      4  C   UNL     1       2.312   6.607  19.117  0.00  0.00    +0.000 A 
ATOM      5  C   UNL     1       2.404   7.624  18.164  0.00  0.00    +0.000 A 
ATOM      6  C   UNL     1       3.596   7.821  17.466  0.00  0.00    +0.000 A 
ATOM      7  C   UNL     1       4.702   7.001  17.719  0.00  0.00    +0.000 A 
ATOM      8  C   UNL     1       4.594   5.954  18.638  0.00  0.00    +0.000 A 
ATOM      9  N   UNL     1       5.694   5.075  18.811  0.00  0.00    +0.000 N 
ATOM     10  C   UNL     1       5.522   3.874  19.631  0.00  0.00    +0.000 C 
ATOM     11  C   UNL     1       6.963   5.396  18.360  0.00  0.00    +0.000 C 
ATOM     12  O   UNL     1       7.971   4.732  18.601  0.00  0.00    +0.000 OA
ATOM     13  N   UNL     1       7.082   6.553  17.642  0.00  0.00    +0.000 N 
ATOM     14  C   UNL     1       5.969   7.131  16.941  0.00  0.00    +0.000 C 
ATOM     15  H   UNL     1       8.016   6.715  17.297  0.00  0.00    +0.000 HD
ENDROOT
BRANCH   1  16
ATOM     16  N   UNL     1       3.342   2.889  18.580  0.00  0.00    +0.000 NA
BRANCH  16  17
ATOM     17  C   UNL     1       2.259   1.930  18.848  0.00  0.00    +0.000 C 
BRANCH  17  19
ATOM     18  C   UNL     1       0.404   3.190  19.994  0.00  0.00    +0.000 C 
ATOM     19  C   UNL     1       0.821   2.454  18.725  0.00  0.00    +0.000 C 
ENDBRANCH  17  19
ENDBRANCH  16  17
BRANCH  16  20
ATOM     20  C   UNL     1       4.155   2.591  17.403  0.00  0.00    +0.000 C 
BRANCH  20  21
ATOM     21  C   UNL     1       3.967   3.614  16.269  0.00  0.00    +0.000 C 
ATOM     22  C   UNL     1       5.258   3.876  15.501  0.00  0.00    +0.000 C 
ENDBRANCH  20  21
ENDBRANCH  16  20
ENDBRANCH   1  16
TORSDOF 5
ENDMDL
MODEL 8
REMARK VINA RESULT:      -5.4      7.157     10.724
REMARK  Name = 
REMARK  7 active torsions:
REMARK  status: ('A' for Active; 'I' for Inactive)
REMARK    1  A    between atoms: C_1  and  C_2
REMARK    2  A    between atoms: C_2  and  C_3
REMARK    3  A    between atoms: C_3  and  N_4
REMARK    4  A    between atoms: N_4  and  C_5
REMARK    5  A    between atoms: N_4  and  C_8
REMARK    6  A    between atoms: C_5  and  C_6
REMARK    7  A    between atoms: C_6  and  C_7
REMARK                            x       y       z     vdW  Elec       q    Type
REMARK                         _______ _______ _______ _____ _____    ______ ____
ROOT
ATOM      1  C   UNL     1      -0.860  12.240  19.322  0.00  0.00    +0.000 C 
ATOM      2  C   UNL     1      -1.690  13.376  19.967  0.00  0.00    +0.000 C 
ATOM      3  C   UNL     1      -3.124  12.932  20.102  0.00  0.00    +0.000 A 
ATOM      4  C   UNL     1      -3.878  13.264  21.232  0.00  0.00    +0.000 A 
ATOM      5  C   UNL     1      -5.194  12.816  21.356  0.00  0.00    +0.000 A 
ATOM      6  C   UNL     1      -5.776  12.067  20.332  0.00  0.00    +0.000 A 
ATOM      7  C   UNL     1      -5.043  11.764  19.180  0.00  0.00    +0.000 A 
ATOM      8  C   UNL     1      -3.711  12.172  19.077  0.00  0.00    +0.000 A 
ATOM      9  N   UNL     1      -2.955  11.773  17.944  0.00  0.00    +0.000 N 
ATOM     10  C   UNL     1      -1.515  12.041  17.920  0.00  0.00    +0.000 C 
ATOM     11  C   UNL     1      -3.559  11.284  16.799  0.00  0.00    +0.000 C 
ATOM     12  O   UNL     1      -2.962  11.052  15.748  0.00  0.00    +0.000 OA
ATOM     13  N   UNL     1      -4.911  11.099  16.853  0.00  0.00    +0.000 N 
ATOM     14  C   UNL     1      -5.603  10.902  18.097  0.00  0.00    +0.000 C 
ATOM     15  H   UNL     1      -5.294  10.695  16.011  0.00  0.00    +0.000 HD
ENDROOT
BRANCH   1  16
ATOM     16  N   UNL     1      -0.814  11.072  20.243  0.00  0.00    +0.000 NA
BRANCH  16  17
ATOM     17  C   UNL     1      -0.162  11.330  21.537  0.00  0.00    +0.000 C 
BRANCH  17  19
ATOM     18  C   UNL     1      -1.916  11.486  23.337  0.00  0.00    +0.000 C 
ATOM     19  C   UNL     1      -0.773  10.650  22.771  0.00  0.00    +0.000 C 
ENDBRANCH  17  19
ENDBRANCH  16  17
BRANCH  16  20
ATOM     20  C   UNL     1      -0.530   9.764  19.657  0.00  0.00    +0.000 C 
BRANCH  20  21
ATOM     21  C   UNL     1       0.975   9.505  19.468  0.00  0.00    +0.000 C 
ATOM     22  C   UNL     1       1.378   9.457  17.998  0.00  0.00    +0.000 C 
ENDBRANCH  20  21
ENDBRANCH  16  20
ENDBRANCH   1  16
TORSDOF 5
ENDMDL
MODEL 9
REMARK VINA RESULT:      -5.3      1.833      5.457
REMARK  Name = 
REMARK  7 active torsions:
REMARK  status: ('A' for Active; 'I' for Inactive)
REMARK    1  A    between atoms: C_1  and  C_2
REMARK    2  A    between atoms: C_2  and  C_3
REMARK    3  A    between atoms: C_3  and  N_4
REMARK    4  A    between atoms: N_4  and  C_5
REMARK    5  A    between atoms: N_4  and  C_8
REMARK    6  A    between atoms: C_5  and  C_6
REMARK    7  A    between atoms: C_6  and  C_7
REMARK                            x       y       z     vdW  Elec       q    Type
REMARK                         _______ _______ _______ _____ _____    ______ ____
ROOT
ATOM      1  C   UNL     1       4.769   5.539  17.340  0.00  0.00    +0.000 C 
ATOM      2  C   UNL     1       3.825   6.740  17.589  0.00  0.00    +0.000 C 
ATOM      3  C   UNL     1       2.863   6.397  18.698  0.00  0.00    +0.000 A 
ATOM      4  C   UNL     1       2.494   7.350  19.652  0.00  0.00    +0.000 A 
ATOM      5  C   UNL     1       1.629   7.006  20.692  0.00  0.00    +0.000 A 
ATOM      6  C   UNL     1       1.096   5.718  20.760  0.00  0.00    +0.000 A 
ATOM      7  C   UNL     1       1.428   4.769  19.787  0.00  0.00    +0.000 A 
ATOM      8  C   UNL     1       2.332   5.100  18.774  0.00  0.00    +0.000 A 
ATOM      9  N   UNL     1       2.729   4.096  17.853  0.00  0.00    +0.000 N 
ATOM     10  C   UNL     1       3.809   4.387  16.908  0.00  0.00    +0.000 C 
ATOM     11  C   UNL     1       2.026   2.912  17.715  0.00  0.00    +0.000 C 
ATOM     12  O   UNL     1       2.250   2.072  16.843  0.00  0.00    +0.000 OA
ATOM     13  N   UNL     1       0.995   2.708  18.588  0.00  0.00    +0.000 N 
ATOM     14  C   UNL     1       0.941   3.360  19.867  0.00  0.00    +0.000 C 
ATOM     15  H   UNL     1       0.548   1.811  18.476  0.00  0.00    +0.000 HD
ENDROOT
BRANCH   1  16
ATOM     16  N   UNL     1       5.626   5.322  18.536  0.00  0.00    +0.000 NA
BRANCH  16  17
ATOM     17  C   UNL     1       6.828   6.169  18.598  0.00  0.00    +0.000 C 
BRANCH  17  19
ATOM     18  C   UNL     1       7.775   8.238  17.521  0.00  0.00    +0.000 C 
ATOM     19  C   UNL     1       7.295   6.810  17.284  0.00  0.00    +0.000 C 
ENDBRANCH  17  19
ENDBRANCH  16  17
BRANCH  16  20
ATOM     20  C   UNL     1       5.816   3.945  18.987  0.00  0.00    +0.000 C 
BRANCH  20  21
ATOM     21  C   UNL     1       4.930   3.581  20.191  0.00  0.00    +0.000 C 
ATOM     22  C   UNL     1       4.523   2.111  20.192  0.00  0.00    +0.000 C 
ENDBRANCH  20  21
ENDBRANCH  16  20
ENDBRANCH   1  16
TORSDOF 5
ENDMDL
