MODEL 1
REMARK VINA RESULT:      -7.6      0.000      0.000
REMARK  Name = 
REMARK  10 active torsions:
REMARK  status: ('A' for Active; 'I' for Inactive)
REMARK    1  A    between atoms: C_1  and  O_2
REMARK    2  A    between atoms: O_2  and  C_3
REMARK    3  A    between atoms: C_3  and  C_5
REMARK    4  A    between atoms: C_5  and  C_6
REMARK    5  A    between atoms: C_6  and  O_8
REMARK    6  A    between atoms: O_8  and  C_9
REMARK    7  A    between atoms: C_12  and  O_13
REMARK    8  A    between atoms: C_16  and  O_17
REMARK    9  A    between atoms: C_22  and  O_23
REMARK   10  A    between atoms: O_23  and  C_24
REMARK                            x       y       z     vdW  Elec       q    Type
REMARK                         _______ _______ _______ _____ _____    ______ ____
ROOT
ATOM      1  C   UNL     1       5.984   5.127  15.841  0.00  0.00    +0.000 C 
ATOM      2  C   UNL     1       5.158   4.097  16.645  0.00  0.00    +0.000 C 
ATOM      3  C   UNL     1       4.263   4.955  17.485  0.00  0.00    +0.000 A 
ATOM      4  C   UNL     1       3.505   4.583  18.580  0.00  0.00    +0.000 A 
ATOM      5  C   UNL     1       2.733   5.554  19.239  0.00  0.00    +0.000 A 
ATOM      6  C   UNL     1       2.720   6.883  18.775  0.00  0.00    +0.000 A 
ATOM      7  C   UNL     1       3.481   7.236  17.645  0.00  0.00    +0.000 A 
ATOM      8  C   UNL     1       4.249   6.268  17.017  0.00  0.00    +0.000 A 
ATOM      9  C   UNL     1       5.129   6.418  15.808  0.00  0.00    +0.000 C 
ATOM     10  C   UNL     1       1.911   7.912  19.472  0.00  0.00    +0.000 C 
ATOM     11  O   UNL     1       1.912   9.064  19.046  0.00  0.00    +0.000 OA
ATOM     12  C   UNL     1       1.120   7.514  20.681  0.00  0.00    +0.000 C 
ATOM     13  C   UNL     1       1.158   6.241  21.085  0.00  0.00    +0.000 C 
ATOM     14  C   UNL     1       1.933   5.188  20.425  0.00  0.00    +0.000 C 
ATOM     15  O   UNL     1       1.870   4.062  20.904  0.00  0.00    +0.000 OA
ENDROOT
BRANCH   1  16
ATOM     16  C   UNL     1       6.210   4.554  14.459  0.00  0.00    +0.000 C 
ATOM     17  O   UNL     1       5.591   3.595  14.009  0.00  0.00    +0.000 OA
BRANCH  16  19
ATOM     18  C   UNL     1       7.409   4.733  12.461  0.00  0.00    +0.000 C 
ATOM     19  O   UNL     1       7.194   5.213  13.788  0.00  0.00    +0.000 OA
ENDBRANCH  16  19
ENDBRANCH   1  16
BRANCH   1  20
ATOM     20  C   UNL     1       7.334   5.369  16.502  0.00  0.00    +0.000 C 
ATOM     21  O   UNL     1       8.072   4.484  16.914  0.00  0.00    +0.000 OA
BRANCH  20  22
ATOM     22  O   UNL     1       7.627   6.698  16.595  0.00  0.00    +0.000 OA
ATOM     23  C   UNL     1       7.780   7.179  17.933  0.00  0.00    +0.000 C 
ENDBRANCH  20  22
ENDBRANCH   1  20
BRANCH   4  24
ATOM     24  O   UNL     1       3.519   3.291  19.010  0.00  0.00    +0.000 OA
ATOM     25  H   UNL     1       4.296   2.812  18.683  0.00  0.00    +0.000 HD
ENDBRANCH   4  24
BRANCH   7  26
ATOM     26  O   UNL     1       3.519   8.497  17.119  0.00  0.00    +0.000 OA
ATOM     27  H   UNL     1       2.677   8.660  16.633  0.00  0.00    +0.000 HD
ENDBRANCH   7  26
BRANCH  12  28
ATOM     28  O   UNL     1       0.393   8.514  21.302  0.00  0.00    +0.000 OA
ATOM     29  C   UNL     1       1.028   9.185  22.391  0.00  0.00    +0.000 C 
ENDBRANCH  12  28
TORSDOF 7
ENDMDL
MODEL 2
REMARK VINA RESULT:      -7.3      0.836      1.203
REMARK  Name = 
REMARK  10 active torsions:
REMARK  status: ('A' for Active; 'I' for Inactive)
REMARK    1  A    between atoms: C_1  and  O_2
REMARK    2  A    between atoms: O_2  and  C_3
REMARK    3  A    between atoms: C_3  and  C_5
REMARK    4  A    between atoms: C_5  and  C_6
REMARK    5  A    between atoms: C_6  and  O_8
REMARK    6  A    between atoms: O_8  and  C_9
REMARK    7  A    between atoms: C_12  and  O_13
REMARK    8  A    between atoms: C_16  and  O_17
REMARK    9  A    between atoms: C_22  and  O_23
REMARK   10  A    between atoms: O_23  and  C_24
REMARK                            x       y       z     vdW  Elec       q    Type
REMARK                         _______ _______ _______ _____ _____    ______ ____
ROOT
ATOM      1  C   UNL     1       6.043   5.741  16.210  0.00  0.00    +0.000 C 
ATOM      2  C   UNL     1       5.338   4.687  17.097  0.00  0.00    +0.000 C 
ATOM      3  C   UNL     1       4.322   5.492  17.846  0.00  0.00    +0.000 A 
ATOM      4  C   UNL     1       3.594   5.124  18.962  0.00  0.00    +0.000 A 
ATOM      5  C   UNL     1       2.689   6.040  19.522  0.00  0.00    +0.000 A 
ATOM      6  C   UNL     1       2.515   7.310  18.939  0.00  0.00    +0.000 A 
ATOM      7  C   UNL     1       3.249   7.657  17.789  0.00  0.00    +0.000 A 
ATOM      8  C   UNL     1       4.149   6.746  17.260  0.00  0.00    +0.000 A 
ATOM      9  C   UNL     1       5.029   6.901  16.051  0.00  0.00    +0.000 C 
ATOM     10  C   UNL     1       1.566   8.282  19.531  0.00  0.00    +0.000 C 
ATOM     11  O   UNL     1       1.427   9.382  19.001  0.00  0.00    +0.000 OA
ATOM     12  C   UNL     1       0.806   7.894  20.763  0.00  0.00    +0.000 C 
ATOM     13  C   UNL     1       0.999   6.678  21.281  0.00  0.00    +0.000 C 
ATOM     14  C   UNL     1       1.917   5.680  20.729  0.00  0.00    +0.000 C 
ATOM     15  O   UNL     1       1.990   4.603  21.307  0.00  0.00    +0.000 OA
ENDROOT
BRANCH   1  16
ATOM     16  C   UNL     1       6.371   5.081  14.889  0.00  0.00    +0.000 C 
ATOM     17  O   UNL     1       7.460   5.174  14.332  0.00  0.00    +0.000 OA
BRANCH  16  19
ATOM     18  C   UNL     1       5.621   3.623  13.224  0.00  0.00    +0.000 C 
ATOM     19  O   UNL     1       5.310   4.394  14.385  0.00  0.00    +0.000 OA
ENDBRANCH  16  19
ENDBRANCH   1  16
BRANCH   1  20
ATOM     20  C   UNL     1       7.335   6.214  16.861  0.00  0.00    +0.000 C 
ATOM     21  O   UNL     1       7.869   7.292  16.638  0.00  0.00    +0.000 OA
BRANCH  20  22
ATOM     22  O   UNL     1       7.844   5.285  17.722  0.00  0.00    +0.000 OA
ATOM     23  C   UNL     1       7.918   5.717  19.082  0.00  0.00    +0.000 C 
ENDBRANCH  20  22
ENDBRANCH   1  20
BRANCH   4  24
ATOM     24  O   UNL     1       3.766   3.888  19.508  0.00  0.00    +0.000 OA
ATOM     25  H   UNL     1       4.237   3.292  18.907  0.00  0.00    +0.000 HD
ENDBRANCH   4  24
BRANCH   7  26
ATOM     26  O   UNL     1       3.136   8.860  17.151  0.00  0.00    +0.000 OA
ATOM     27  H   UNL     1       2.184   9.025  16.956  0.00  0.00    +0.000 HD
ENDBRANCH   7  26
BRANCH  12  28
ATOM     28  O   UNL     1      -0.057   8.842  21.283  0.00  0.00    +0.000 OA
ATOM     29  C   UNL     1       0.225   9.310  22.602  0.00  0.00    +0.000 C 
ENDBRANCH  12  28
TORSDOF 7
ENDMDL
MODEL 3
REMARK VINA RESULT:      -6.6      2.772      5.697
REMARK  Name = 
REMARK  10 active torsions:
REMARK  status: ('A' for Active; 'I' for Inactive)
REMARK    1  A    between atoms: C_1  and  O_2
REMARK    2  A    between atoms: O_2  and  C_3
REMARK    3  A    between atoms: C_3  and  C_5
REMARK    4  A    between atoms: C_5  and  C_6
REMARK    5  A    between atoms: C_6  and  O_8
REMARK    6  A    between atoms: O_8  and  C_9
REMARK    7  A    between atoms: C_12  and  O_13
REMARK    8  A    between atoms: C_16  and  O_17
REMARK    9  A    between atoms: C_22  and  O_23
REMARK   10  A    between atoms: O_23  and  C_24
REMARK                            x       y       z     vdW  Elec       q    Type
REMARK                         _______ _______ _______ _____ _____    ______ ____
ROOT
ATOM      1  C   UNL     1       2.750   6.467  18.612  0.00  0.00    +0.000 C 
ATOM      2  C   UNL     1       2.207   7.667  17.801  0.00  0.00    +0.000 C 
ATOM      3  C   UNL     1       1.508   8.493  18.835  0.00  0.00    +0.000 A 
ATOM      4  C   UNL     1       0.621   9.536  18.639  0.00  0.00    +0.000 A 
ATOM      5  C   UNL     1       0.064  10.180  19.756  0.00  0.00    +0.000 A 
ATOM      6  C   UNL     1       0.424   9.779  21.057  0.00  0.00    +0.000 A 
ATOM      7  C   UNL     1       1.346   8.731  21.235  0.00  0.00    +0.000 A 
ATOM      8  C   UNL     1       1.873   8.096  20.121  0.00  0.00    +0.000 A 
ATOM      9  C   UNL     1       2.863   6.966  20.075  0.00  0.00    +0.000 C 
ATOM     10  C   UNL     1      -0.166  10.453  22.239  0.00  0.00    +0.000 C 
ATOM     11  O   UNL     1       0.167  10.089  23.364  0.00  0.00    +0.000 OA
ATOM     12  C   UNL     1      -1.155  11.557  22.023  0.00  0.00    +0.000 C 
ATOM     13  C   UNL     1      -1.466  11.909  20.772  0.00  0.00    +0.000 C 
ATOM     14  C   UNL     1      -0.904  11.281  19.574  0.00  0.00    +0.000 C 
ATOM     15  O   UNL     1      -1.277  11.709  18.489  0.00  0.00    +0.000 OA
ENDROOT
BRANCH   1  16
ATOM     16  C   UNL     1       4.094   6.091  18.029  0.00  0.00    +0.000 C 
ATOM     17  O   UNL     1       4.621   6.682  17.093  0.00  0.00    +0.000 OA
BRANCH  16  19
ATOM     18  C   UNL     1       5.987   5.196  19.067  0.00  0.00    +0.000 C 
ATOM     19  O   UNL     1       4.634   5.008  18.652  0.00  0.00    +0.000 OA
ENDBRANCH  16  19
ENDBRANCH   1  16
BRANCH   1  20
ATOM     20  C   UNL     1       1.811   5.274  18.501  0.00  0.00    +0.000 C 
ATOM     21  O   UNL     1       1.408   4.805  17.445  0.00  0.00    +0.000 OA
BRANCH  20  22
ATOM     22  O   UNL     1       1.456   4.787  19.726  0.00  0.00    +0.000 OA
ATOM     23  C   UNL     1       1.122   3.398  19.737  0.00  0.00    +0.000 C 
ENDBRANCH  20  22
ENDBRANCH   1  20
BRANCH   4  24
ATOM     24  O   UNL     1       0.291   9.919  17.375  0.00  0.00    +0.000 OA
ATOM     25  H   UNL     1      -0.509   9.473  17.061  0.00  0.00    +0.000 HD
ENDBRANCH   4  24
BRANCH   7  26
ATOM     26  O   UNL     1       1.761   8.284  22.458  0.00  0.00    +0.000 OA
ATOM     27  H   UNL     1       2.034   7.341  22.372  0.00  0.00    +0.000 HD
ENDBRANCH   7  26
BRANCH  12  28
ATOM     28  O   UNL     1      -1.686  12.144  23.158  0.00  0.00    +0.000 OA
ATOM     29  C   UNL     1      -3.100  12.335  23.179  0.00  0.00    +0.000 C 
ENDBRANCH  12  28
TORSDOF 7
ENDMDL
MODEL 4
REMARK VINA RESULT:      -6.5      2.458      5.488
REMARK  Name = 
REMARK  10 active torsions:
REMARK  status: ('A' for Active; 'I' for Inactive)
REMARK    1  A    between atoms: C_1  and  O_2
REMARK    2  A    between atoms: O_2  and  C_3
REMARK    3  A    between atoms: C_3  and  C_5
REMARK    4  A    between atoms: C_5  and  C_6
REMARK    5  A    between atoms: C_6  and  O_8
REMARK    6  A    between atoms: O_8  and  C_9
REMARK    7  A    between atoms: C_12  and  O_13
REMARK    8  A    between atoms: C_16  and  O_17
REMARK    9  A    between atoms: C_22  and  O_23
REMARK   10  A    between atoms: O_23  and  C_24
REMARK                            x       y       z     vdW  Elec       q    Type
REMARK                         _______ _______ _______ _____ _____    ______ ____
ROOT
ATOM      1  C   UNL     1       2.764   5.955  18.742  0.00  0.00    +0.000 C 
ATOM      2  C   UNL     1       2.536   7.220  17.881  0.00  0.00    +0.000 C 
ATOM      3  C   UNL     1       1.858   8.162  18.827  0.00  0.00    +0.000 A 
ATOM      4  C   UNL     1       1.188   9.335  18.532  0.00  0.00    +0.000 A 
ATOM      5  C   UNL     1       0.609  10.075  19.576  0.00  0.00    +0.000 A 
ATOM      6  C   UNL     1       0.728   9.633  20.907  0.00  0.00    +0.000 A 
ATOM      7  C   UNL     1       1.434   8.448  21.189  0.00  0.00    +0.000 A 
ATOM      8  C   UNL     1       1.985   7.723  20.145  0.00  0.00    +0.000 A 
ATOM      9  C   UNL     1       2.771   6.444  20.212  0.00  0.00    +0.000 C 
ATOM     10  C   UNL     1       0.113  10.407  22.012  0.00  0.00    +0.000 C 
ATOM     11  O   UNL     1       0.236  10.005  23.166  0.00  0.00    +0.000 OA
ATOM     12  C   UNL     1      -0.643  11.659  21.684  0.00  0.00    +0.000 C 
ATOM     13  C   UNL     1      -0.729  12.044  20.407  0.00  0.00    +0.000 C 
ATOM     14  C   UNL     1      -0.132  11.319  19.284  0.00  0.00    +0.000 C 
ATOM     15  O   UNL     1      -0.287  11.791  18.165  0.00  0.00    +0.000 OA
ENDROOT
BRANCH   1  16
ATOM     16  C   UNL     1       4.090   5.354  18.331  0.00  0.00    +0.000 C 
ATOM     17  O   UNL     1       4.777   4.651  19.065  0.00  0.00    +0.000 OA
BRANCH  16  19
ATOM     18  C   UNL     1       4.999   4.636  16.301  0.00  0.00    +0.000 C 
ATOM     19  O   UNL     1       4.437   5.706  17.063  0.00  0.00    +0.000 OA
ENDBRANCH  16  19
ENDBRANCH   1  16
BRANCH   1  20
ATOM     20  C   UNL     1       1.662   4.934  18.499  0.00  0.00    +0.000 C 
ATOM     21  O   UNL     1       1.212   4.648  17.398  0.00  0.00    +0.000 OA
BRANCH  20  22
ATOM     22  O   UNL     1       1.218   4.374  19.662  0.00  0.00    +0.000 OA
ATOM     23  C   UNL     1       1.074   2.952  19.618  0.00  0.00    +0.000 C 
ENDBRANCH  20  22
ENDBRANCH   1  20
BRANCH   4  24
ATOM     24  O   UNL     1       1.091   9.755  17.240  0.00  0.00    +0.000 OA
ATOM     25  H   UNL     1       0.848   9.030  16.644  0.00  0.00    +0.000 HD
ENDBRANCH   4  24
BRANCH   7  26
ATOM     26  O   UNL     1       1.610   7.951  22.451  0.00  0.00    +0.000 OA
ATOM     27  H   UNL     1       1.461   6.977  22.428  0.00  0.00    +0.000 HD
ENDBRANCH   7  26
BRANCH  12  28
ATOM     28  O   UNL     1      -1.209  12.337  22.749  0.00  0.00    +0.000 OA
ATOM     29  C   UNL     1      -2.635  12.344  22.819  0.00  0.00    +0.000 C 
ENDBRANCH  12  28
TORSDOF 7
ENDMDL
MODEL 5
REMARK VINA RESULT:      -6.5      2.285      3.991
REMARK  Name = 
REMARK  10 active torsions:
REMARK  status: ('A' for Active; 'I' for Inactive)
REMARK    1  A    between atoms: C_1  and  O_2
REMARK    2  A    between atoms: O_2  and  C_3
REMARK    3  A    between atoms: C_3  and  C_5
REMARK    4  A    between atoms: C_5  and  C_6
REMARK    5  A    between atoms: C_6  and  O_8
REMARK    6  A    between atoms: O_8  and  C_9
REMARK    7  A    between atoms: C_12  and  O_13
REMARK    8  A    between atoms: C_16  and  O_17
REMARK    9  A    between atoms: C_22  and  O_23
REMARK   10  A    between atoms: O_23  and  C_24
REMARK                            x       y       z     vdW  Elec       q    Type
REMARK                         _______ _______ _______ _____ _____    ______ ____
ROOT
ATOM      1  C   UNL     1       3.704   5.897  17.997  0.00  0.00    +0.000 C 
ATOM      2  C   UNL     1       2.830   5.744  19.264  0.00  0.00    +0.000 C 
ATOM      3  C   UNL     1       2.265   7.116  19.460  0.00  0.00    +0.000 A 
ATOM      4  C   UNL     1       1.632   7.628  20.578  0.00  0.00    +0.000 A 
ATOM      5  C   UNL     1       1.180   8.957  20.561  0.00  0.00    +0.000 A 
ATOM      6  C   UNL     1       1.354   9.749  19.410  0.00  0.00    +0.000 A 
ATOM      7  C   UNL     1       1.980   9.202  18.274  0.00  0.00    +0.000 A 
ATOM      8  C   UNL     1       2.434   7.894  18.315  0.00  0.00    +0.000 A 
ATOM      9  C   UNL     1       3.123   7.113  17.231  0.00  0.00    +0.000 C 
ATOM     10  C   UNL     1       0.883  11.155  19.389  0.00  0.00    +0.000 C 
ATOM     11  O   UNL     1       1.041  11.824  18.371  0.00  0.00    +0.000 OA
ATOM     12  C   UNL     1       0.231  11.718  20.615  0.00  0.00    +0.000 C 
ATOM     13  C   UNL     1       0.083  10.930  21.685  0.00  0.00    +0.000 C 
ATOM     14  C   UNL     1       0.522   9.534  21.750  0.00  0.00    +0.000 C 
ATOM     15  O   UNL     1       0.317   8.930  22.796  0.00  0.00    +0.000 OA
ENDROOT
BRANCH   1  16
ATOM     16  C   UNL     1       3.591   4.613  17.204  0.00  0.00    +0.000 C 
ATOM     17  O   UNL     1       4.455   4.210  16.432  0.00  0.00    +0.000 OA
BRANCH  16  19
ATOM     18  C   UNL     1       2.536   2.558  17.557  0.00  0.00    +0.000 C 
ATOM     19  O   UNL     1       2.411   3.976  17.433  0.00  0.00    +0.000 OA
ENDBRANCH  16  19
ENDBRANCH   1  16
BRANCH   1  20
ATOM     20  C   UNL     1       5.162   6.119  18.373  0.00  0.00    +0.000 C 
ATOM     21  O   UNL     1       5.721   5.589  19.324  0.00  0.00    +0.000 OA
BRANCH  20  22
ATOM     22  O   UNL     1       5.780   6.994  17.527  0.00  0.00    +0.000 OA
ATOM     23  C   UNL     1       7.182   6.768  17.363  0.00  0.00    +0.000 C 
ENDBRANCH  20  22
ENDBRANCH   1  20
BRANCH   4  24
ATOM     24  O   UNL     1       1.462   6.846  21.680  0.00  0.00    +0.000 OA
ATOM     25  H   UNL     1       1.816   7.266  22.478  0.00  0.00    +0.000 HD
ENDBRANCH   4  24
BRANCH   7  26
ATOM     26  O   UNL     1       2.180   9.893  17.111  0.00  0.00    +0.000 OA
ATOM     27  H   UNL     1       2.570   9.280  16.445  0.00  0.00    +0.000 HD
ENDBRANCH   7  26
BRANCH  12  28
ATOM     28  O   UNL     1      -0.178  13.037  20.549  0.00  0.00    +0.000 OA
ATOM     29  C   UNL     1       0.485  13.958  21.416  0.00  0.00    +0.000 C 
ENDBRANCH  12  28
TORSDOF 7
ENDMDL
MODEL 6
REMARK VINA RESULT:      -6.4      1.990      3.182
REMARK  Name = 
REMARK  10 active torsions:
REMARK  status: ('A' for Active; 'I' for Inactive)
REMARK    1  A    between atoms: C_1  and  O_2
REMARK    2  A    between atoms: O_2  and  C_3
REMARK    3  A    between atoms: C_3  and  C_5
REMARK    4  A    between atoms: C_5  and  C_6
REMARK    5  A    between atoms: C_6  and  O_8
REMARK    6  A    between atoms: O_8  and  C_9
REMARK    7  A    between atoms: C_12  and  O_13
REMARK    8  A    between atoms: C_16  and  O_17
REMARK    9  A    between atoms: C_22  and  O_23
REMARK   10  A    between atoms: O_23  and  C_24
REMARK                            x       y       z     vdW  Elec       q    Type
REMARK                         _______ _______ _______ _____ _____    ______ ____
ROOT
ATOM      1  C   UNL     1       4.360   5.373  18.061  0.00  0.00    +0.000 C 
ATOM      2  C   UNL     1       3.331   5.135  19.190  0.00  0.00    +0.000 C 
ATOM      3  C   UNL     1       2.663   6.467  19.334  0.00  0.00    +0.000 A 
ATOM      4  C   UNL     1       1.852   6.910  20.363  0.00  0.00    +0.000 A 
ATOM      5  C   UNL     1       1.328   8.211  20.309  0.00  0.00    +0.000 A 
ATOM      6  C   UNL     1       1.610   9.044  19.210  0.00  0.00    +0.000 A 
ATOM      7  C   UNL     1       2.419   8.566  18.161  0.00  0.00    +0.000 A 
ATOM      8  C   UNL     1       2.941   7.285  18.239  0.00  0.00    +0.000 A 
ATOM      9  C   UNL     1       3.819   6.575  17.246  0.00  0.00    +0.000 C 
ATOM     10  C   UNL     1       1.063  10.421  19.152  0.00  0.00    +0.000 C 
ATOM     11  O   UNL     1       1.320  11.127  18.180  0.00  0.00    +0.000 OA
ATOM     12  C   UNL     1       0.216  10.911  20.287  0.00  0.00    +0.000 C 
ATOM     13  C   UNL     1      -0.030  10.086  21.309  0.00  0.00    +0.000 C 
ATOM     14  C   UNL     1       0.479   8.717  21.407  0.00  0.00    +0.000 C 
ATOM     15  O   UNL     1       0.168   8.073  22.401  0.00  0.00    +0.000 OA
ENDROOT
BRANCH   1  16
ATOM     16  C   UNL     1       4.435   4.108  17.235  0.00  0.00    +0.000 C 
ATOM     17  O   UNL     1       4.223   2.987  17.685  0.00  0.00    +0.000 OA
BRANCH  16  19
ATOM     18  C   UNL     1       6.029   3.776  15.559  0.00  0.00    +0.000 C 
ATOM     19  O   UNL     1       4.786   4.362  15.945  0.00  0.00    +0.000 OA
ENDBRANCH  16  19
ENDBRANCH   1  16
BRANCH   1  20
ATOM     20  C   UNL     1       5.736   5.667  18.640  0.00  0.00    +0.000 C 
ATOM     21  O   UNL     1       6.169   5.184  19.678  0.00  0.00    +0.000 OA
BRANCH  20  22
ATOM     22  O   UNL     1       6.438   6.548  17.870  0.00  0.00    +0.000 OA
ATOM     23  C   UNL     1       7.789   6.757  18.289  0.00  0.00    +0.000 C 
ENDBRANCH  20  22
ENDBRANCH   1  20
BRANCH   4  24
ATOM     24  O   UNL     1       1.579   6.089  21.414  0.00  0.00    +0.000 OA
ATOM     25  H   UNL     1       1.214   6.578  22.167  0.00  0.00    +0.000 HD
ENDBRANCH   4  24
BRANCH   7  26
ATOM     26  O   UNL     1       2.735   9.299  17.052  0.00  0.00    +0.000 OA
ATOM     27  H   UNL     1       3.654   9.071  16.777  0.00  0.00    +0.000 HD
ENDBRANCH   7  26
BRANCH  12  28
ATOM     28  O   UNL     1      -0.258  12.207  20.190  0.00  0.00    +0.000 OA
ATOM     29  C   UNL     1      -1.666  12.362  20.008  0.00  0.00    +0.000 C 
ENDBRANCH  12  28
TORSDOF 7
ENDMDL
MODEL 7
REMARK VINA RESULT:      -6.3      2.821      5.169
REMARK  Name = 
REMARK  10 active torsions:
REMARK  status: ('A' for Active; 'I' for Inactive)
REMARK    1  A    between atoms: C_1  and  O_2
REMARK    2  A    between atoms: O_2  and  C_3
REMARK    3  A    between atoms: C_3  and  C_5
REMARK    4  A    between atoms: C_5  and  C_6
REMARK    5  A    between atoms: C_6  and  O_8
REMARK    6  A    between atoms: O_8  and  C_9
REMARK    7  A    between atoms: C_12  and  O_13
REMARK    8  A    between atoms: C_16  and  O_17
REMARK    9  A    between atoms: C_22  and  O_23
REMARK   10  A    between atoms: O_23  and  C_24
REMARK                            x       y       z     vdW  Elec       q    Type
REMARK                         _______ _______ _______ _____ _____    ______ ____
ROOT
ATOM      1  C   UNL     1       3.313   4.508  18.685  0.00  0.00    +0.000 C 
ATOM      2  C   UNL     1       3.733   5.755  17.872  0.00  0.00    +0.000 C 
ATOM      3  C   UNL     1       2.943   6.859  18.504  0.00  0.00    +0.000 A 
ATOM      4  C   UNL     1       2.719   8.135  18.020  0.00  0.00    +0.000 A 
ATOM      5  C   UNL     1       1.933   9.024  18.771  0.00  0.00    +0.000 A 
ATOM      6  C   UNL     1       1.398   8.622  20.010  0.00  0.00    +0.000 A 
ATOM      7  C   UNL     1       1.656   7.327  20.496  0.00  0.00    +0.000 A 
ATOM      8  C   UNL     1       2.421   6.458  19.733  0.00  0.00    +0.000 A 
ATOM      9  C   UNL     1       2.819   5.044  20.052  0.00  0.00    +0.000 C 
ATOM     10  C   UNL     1       0.563   9.556  20.803  0.00  0.00    +0.000 C 
ATOM     11  O   UNL     1       0.111   9.185  21.883  0.00  0.00    +0.000 OA
ATOM     12  C   UNL     1       0.291  10.925  20.258  0.00  0.00    +0.000 C 
ATOM     13  C   UNL     1       0.822  11.266  19.080  0.00  0.00    +0.000 C 
ATOM     14  C   UNL     1       1.660  10.384  18.265  0.00  0.00    +0.000 C 
ATOM     15  O   UNL     1       2.083  10.832  17.206  0.00  0.00    +0.000 OA
ENDROOT
BRANCH   1  16
ATOM     16  C   UNL     1       4.531   3.621  18.824  0.00  0.00    +0.000 C 
ATOM     17  O   UNL     1       5.683   4.018  18.684  0.00  0.00    +0.000 OA
BRANCH  16  19
ATOM     18  C   UNL     1       4.603   1.890  20.392  0.00  0.00    +0.000 C 
ATOM     19  O   UNL     1       4.193   2.331  19.097  0.00  0.00    +0.000 OA
ENDBRANCH  16  19
ENDBRANCH   1  16
BRANCH   1  20
ATOM     20  C   UNL     1       2.220   3.736  17.960  0.00  0.00    +0.000 C 
ATOM     21  O   UNL     1       2.301   3.337  16.806  0.00  0.00    +0.000 OA
BRANCH  20  22
ATOM     22  O   UNL     1       1.121   3.547  18.746  0.00  0.00    +0.000 OA
ATOM     23  C   UNL     1       0.710   2.183  18.872  0.00  0.00    +0.000 C 
ENDBRANCH  20  22
ENDBRANCH   1  20
BRANCH   4  24
ATOM     24  O   UNL     1       3.253   8.511  16.825  0.00  0.00    +0.000 OA
ATOM     25  H   UNL     1       4.216   8.404  16.811  0.00  0.00    +0.000 HD
ENDBRANCH   4  24
BRANCH   7  26
ATOM     26  O   UNL     1       1.188   6.857  21.691  0.00  0.00    +0.000 OA
ATOM     27  H   UNL     1       0.402   6.289  21.518  0.00  0.00    +0.000 HD
ENDBRANCH   7  26
BRANCH  12  28
ATOM     28  O   UNL     1      -0.504  11.752  21.030  0.00  0.00    +0.000 OA
ATOM     29  C   UNL     1      -1.220  12.778  20.342  0.00  0.00    +0.000 C 
ENDBRANCH  12  28
TORSDOF 7
ENDMDL
MODEL 8
REMARK VINA RESULT:      -6.3      2.127      4.837
REMARK  Name = 
REMARK  10 active torsions:
REMARK  status: ('A' for Active; 'I' for Inactive)
REMARK    1  A    between atoms: C_1  and  O_2
REMARK    2  A    between atoms: O_2  and  C_3
REMARK    3  A    between atoms: C_3  and  C_5
REMARK    4  A    between atoms: C_5  and  C_6
REMARK    5  A    between atoms: C_6  and  O_8
REMARK    6  A    between atoms: O_8  and  C_9
REMARK    7  A    between atoms: C_12  and  O_13
REMARK    8  A    between atoms: C_16  and  O_17
REMARK    9  A    between atoms: C_22  and  O_23
REMARK   10  A    between atoms: O_23  and  C_24
REMARK                            x       y       z     vdW  Elec       q    Type
REMARK                         _______ _______ _______ _____ _____    ______ ____
ROOT
ATOM      1  C   UNL     1       3.534   5.572  18.349  0.00  0.00    +0.000 C 
ATOM      2  C   UNL     1       3.483   6.958  17.664  0.00  0.00    +0.000 C 
ATOM      3  C   UNL     1       2.573   7.747  18.553  0.00  0.00    +0.000 A 
ATOM      4  C   UNL     1       1.961   8.959  18.290  0.00  0.00    +0.000 A 
ATOM      5  C   UNL     1       1.129   9.532  19.266  0.00  0.00    +0.000 A 
ATOM      6  C   UNL     1       0.939   8.886  20.502  0.00  0.00    +0.000 A 
ATOM      7  C   UNL     1       1.590   7.665  20.760  0.00  0.00    +0.000 A 
ATOM      8  C   UNL     1       2.394   7.106  19.779  0.00  0.00    +0.000 A 
ATOM      9  C   UNL     1       3.177   5.824  19.835  0.00  0.00    +0.000 C 
ATOM     10  C   UNL     1       0.057   9.484  21.533  0.00  0.00    +0.000 C 
ATOM     11  O   UNL     1      -0.089   8.905  22.606  0.00  0.00    +0.000 OA
ATOM     12  C   UNL     1      -0.634  10.779  21.230  0.00  0.00    +0.000 C 
ATOM     13  C   UNL     1      -0.423  11.360  20.045  0.00  0.00    +0.000 C 
ATOM     14  C   UNL     1       0.445  10.814  19.000  0.00  0.00    +0.000 C 
ATOM     15  O   UNL     1       0.549  11.457  17.963  0.00  0.00    +0.000 OA
ENDROOT
BRANCH   1  16
ATOM     16  C   UNL     1       4.936   5.029  18.180  0.00  0.00    +0.000 C 
ATOM     17  O   UNL     1       5.481   4.285  18.990  0.00  0.00    +0.000 OA
BRANCH  16  19
ATOM     18  C   UNL     1       6.662   4.720  16.636  0.00  0.00    +0.000 C 
ATOM     19  O   UNL     1       5.524   5.482  17.040  0.00  0.00    +0.000 OA
ENDBRANCH  16  19
ENDBRANCH   1  16
BRANCH   1  20
ATOM     20  C   UNL     1       2.551   4.612  17.694  0.00  0.00    +0.000 C 
ATOM     21  O   UNL     1       1.356   4.836  17.547  0.00  0.00    +0.000 OA
BRANCH  20  22
ATOM     22  O   UNL     1       3.155   3.455  17.294  0.00  0.00    +0.000 OA
ATOM     23  C   UNL     1       2.548   2.264  17.801  0.00  0.00    +0.000 C 
ENDBRANCH  20  22
ENDBRANCH   1  20
BRANCH   4  24
ATOM     24  O   UNL     1       2.163   9.576  17.094  0.00  0.00    +0.000 OA
ATOM     25  H   UNL     1       2.868   9.150  16.583  0.00  0.00    +0.000 HD
ENDBRANCH   4  24
BRANCH   7  26
ATOM     26  O   UNL     1       1.473   6.974  21.934  0.00  0.00    +0.000 OA
ATOM     27  H   UNL     1       0.587   6.542  21.957  0.00  0.00    +0.000 HD
ENDBRANCH   7  26
BRANCH  12  28
ATOM     28  O   UNL     1      -1.456  11.288  22.219  0.00  0.00    +0.000 OA
ATOM     29  C   UNL     1      -1.064  12.531  22.801  0.00  0.00    +0.000 C 
ENDBRANCH  12  28
TORSDOF 7
ENDMDL
MODEL 9
REMARK VINA RESULT:      -6.2      2.815      7.208
REMARK  Name = 
REMARK  10 active torsions:
REMARK  status: ('A' for Active; 'I' for Inactive)
REMARK    1  A    between atoms: C_1  and  O_2
REMARK    2  A    between atoms: O_2  and  C_3
REMARK    3  A    between atoms: C_3  and  C_5
REMARK    4  A    between atoms: C_5  and  C_6
REMARK    5  A    between atoms: C_6  and  O_8
REMARK    6  A    between atoms: O_8  and  C_9
REMARK    7  A    between atoms: C_12  and  O_13
REMARK    8  A    between atoms: C_16  and  O_17
REMARK    9  A    between atoms: C_22  and  O_23
REMARK   10  A    between atoms: O_23  and  C_24
REMARK                            x       y       z     vdW  Elec       q    Type
REMARK                         _______ _______ _______ _____ _____    ______ ____
ROOT
ATOM      1  C   UNL     1       0.810  10.630  18.991  0.00  0.00    +0.000 C 
ATOM      2  C   UNL     1       0.950   9.783  20.278  0.00  0.00    +0.000 C 
ATOM      3  C   UNL     1       1.605   8.527  19.793  0.00  0.00    +0.000 A 
ATOM      4  C   UNL     1       1.731   7.318  20.454  0.00  0.00    +0.000 A 
ATOM      5  C   UNL     1       2.380   6.251  19.811  0.00  0.00    +0.000 A 
ATOM      6  C   UNL     1       2.911   6.421  18.519  0.00  0.00    +0.000 A 
ATOM      7  C   UNL     1       2.794   7.666  17.873  0.00  0.00    +0.000 A 
ATOM      8  C   UNL     1       2.136   8.703  18.515  0.00  0.00    +0.000 A 
ATOM      9  C   UNL     1       1.895  10.101  18.020  0.00  0.00    +0.000 C 
ATOM     10  C   UNL     1       3.592   5.295  17.835  0.00  0.00    +0.000 C 
ATOM     11  O   UNL     1       4.052   5.469  16.709  0.00  0.00    +0.000 OA
ATOM     12  C   UNL     1       3.693   3.976  18.539  0.00  0.00    +0.000 C 
ATOM     13  C   UNL     1       3.178   3.860  19.766  0.00  0.00    +0.000 C 
ATOM     14  C   UNL     1       2.506   4.943  20.486  0.00  0.00    +0.000 C 
ATOM     15  O   UNL     1       2.086   4.695  21.609  0.00  0.00    +0.000 OA
ENDROOT
BRANCH   1  16
ATOM     16  C   UNL     1       1.035  12.077  19.370  0.00  0.00    +0.000 C 
ATOM     17  O   UNL     1       1.112  12.476  20.527  0.00  0.00    +0.000 OA
BRANCH  16  19
ATOM     18  C   UNL     1       2.218  13.792  18.311  0.00  0.00    +0.000 C 
ATOM     19  O   UNL     1       1.117  12.882  18.276  0.00  0.00    +0.000 OA
ENDBRANCH  16  19
ENDBRANCH   1  16
BRANCH   1  20
ATOM     20  C   UNL     1      -0.585  10.484  18.401  0.00  0.00    +0.000 C 
ATOM     21  O   UNL     1      -0.842   9.878  17.369  0.00  0.00    +0.000 OA
BRANCH  20  22
ATOM     22  O   UNL     1      -1.528  11.122  19.154  0.00  0.00    +0.000 OA
ATOM     23  C   UNL     1      -2.633  11.638  18.408  0.00  0.00    +0.000 C 
ENDBRANCH  20  22
ENDBRANCH   1  20
BRANCH   4  24
ATOM     24  O   UNL     1       1.221   7.174  21.708  0.00  0.00    +0.000 OA
ATOM     25  H   UNL     1       1.917   7.021  22.364  0.00  0.00    +0.000 HD
ENDBRANCH   4  24
BRANCH   7  26
ATOM     26  O   UNL     1       3.289   7.924  16.625  0.00  0.00    +0.000 OA
ATOM     27  H   UNL     1       3.995   7.266  16.425  0.00  0.00    +0.000 HD
ENDBRANCH   7  26
BRANCH  12  28
ATOM     28  O   UNL     1       4.325   2.955  17.852  0.00  0.00    +0.000 OA
ATOM     29  C   UNL     1       3.725   1.662  17.932  0.00  0.00    +0.000 C 
ENDBRANCH  12  28
TORSDOF 7
ENDMDL
