MODEL 1
REMARK VINA RESULT:      -8.6      0.000      0.000
REMARK  Name = 
REMARK  5 active torsions:
REMARK  status: ('A' for Active; 'I' for Inactive)
REMARK    1  A    between atoms: N_3  and  C_4
REMARK    2  A    between atoms: N_11  and  C_12
REMARK    3  A    between atoms: C_12  and  C_13
REMARK    4  A    between atoms: C_12  and  C_17
REMARK    5  A    between atoms: N_15  and  O_16
REMARK                            x       y       z     vdW  Elec       q    Type
REMARK                         _______ _______ _______ _____ _____    ______ ____
ROOT
ATOM      1  O   UNL     1       4.118   5.045  17.781  0.00  0.00    +0.000 OA
ATOM      2  C   UNL     1       4.540   3.934  17.476  0.00  0.00    +0.000 C 
ATOM      3  N   UNL     1       4.171   2.742  18.050  0.00  0.00    +0.000 N 
ATOM      4  N   UNL     1       5.442   3.811  16.454  0.00  0.00    +0.000 N 
ATOM      5  H   UNL     1       4.702   1.921  17.796  0.00  0.00    +0.000 HD
ATOM      6  H   UNL     1       5.949   2.950  16.310  0.00  0.00    +0.000 HD
ENDROOT
BRANCH   3   7
ATOM      7  C   UNL     1       3.244   2.614  19.114  0.00  0.00    +0.000 A 
ATOM      8  C   UNL     1       1.857   2.584  18.915  0.00  0.00    +0.000 A 
ATOM      9  C   UNL     1       0.974   2.558  19.994  0.00  0.00    +0.000 A 
ATOM     10  C   UNL     1       1.478   2.537  21.282  0.00  0.00    +0.000 A 
ATOM     11  F   UNL     1       0.633   2.545  22.320  0.00  0.00    +0.000 F 
ATOM     12  C   UNL     1       2.849   2.510  21.507  0.00  0.00    +0.000 A 
ATOM     13  C   UNL     1       3.736   2.541  20.422  0.00  0.00    +0.000 A 
ENDBRANCH   3   7
BRANCH   4  14
ATOM     14  C   UNL     1       5.953   5.036  15.832  0.00  0.00    +0.000 C 
BRANCH  14  15
ATOM     15  C   UNL     1       6.774   5.846  16.818  0.00  0.00    +0.000 A 
ATOM     16  C   UNL     1       7.424   5.194  17.881  0.00  0.00    +0.000 A 
ATOM     17  C   UNL     1       8.170   5.919  18.809  0.00  0.00    +0.000 A 
ATOM     18  C   UNL     1       8.283   7.303  18.685  0.00  0.00    +0.000 A 
ATOM     19  C   UNL     1       7.652   7.960  17.630  0.00  0.00    +0.000 A 
ATOM     20  C   UNL     1       6.907   7.236  16.698  0.00  0.00    +0.000 A 
ENDBRANCH  14  15
BRANCH  14  21
ATOM     21  C   UNL     1       6.701   4.702  14.513  0.00  0.00    +0.000 C 
ATOM     22  O   UNL     1       7.732   5.248  14.117  0.00  0.00    +0.000 OA
ATOM     23  N   UNL     1       6.136   3.660  13.797  0.00  0.00    +0.000 N 
ATOM     24  H   UNL     1       5.605   2.941  14.300  0.00  0.00    +0.000 HD
BRANCH  23  25
ATOM     25  O   UNL     1       6.889   3.221  12.680  0.00  0.00    +0.000 OA
ATOM     26  H   UNL     1       7.158   2.316  12.954  0.00  0.00    +0.000 HD
ENDBRANCH  23  25
ENDBRANCH  14  21
ENDBRANCH   4  14
TORSDOF 5
ENDMDL
MODEL 2
REMARK VINA RESULT:      -8.6      4.677      7.830
REMARK  Name = 
REMARK  5 active torsions:
REMARK  status: ('A' for Active; 'I' for Inactive)
REMARK    1  A    between atoms: N_3  and  C_4
REMARK    2  A    between atoms: N_11  and  C_12
REMARK    3  A    between atoms: C_12  and  C_13
REMARK    4  A    between atoms: C_12  and  C_17
REMARK    5  A    between atoms: N_15  and  O_16
REMARK                            x       y       z     vdW  Elec       q    Type
REMARK                         _______ _______ _______ _____ _____    ______ ____
ROOT
ATOM      1  O   UNL     1       8.516   7.430  18.724  0.00  0.00    +0.000 OA
ATOM      2  C   UNL     1       7.881   8.164  17.973  0.00  0.00    +0.000 C 
ATOM      3  N   UNL     1       8.091   9.509  17.787  0.00  0.00    +0.000 N 
ATOM      4  N   UNL     1       6.881   7.638  17.202  0.00  0.00    +0.000 N 
ATOM      5  H   UNL     1       7.405  10.015  17.246  0.00  0.00    +0.000 HD
ATOM      6  H   UNL     1       6.220   8.239  16.729  0.00  0.00    +0.000 HD
ENDROOT
BRANCH   3   7
ATOM      7  C   UNL     1       9.077  10.270  18.462  0.00  0.00    +0.000 A 
ATOM      8  C   UNL     1       9.098  10.427  19.855  0.00  0.00    +0.000 A 
ATOM      9  C   UNL     1      10.025  11.265  20.472  0.00  0.00    +0.000 A 
ATOM     10  C   UNL     1      10.957  11.933  19.698  0.00  0.00    +0.000 A 
ATOM     11  F   UNL     1      11.828  12.763  20.285  0.00  0.00    +0.000 F 
ATOM     12  C   UNL     1      10.995  11.752  18.320  0.00  0.00    +0.000 A 
ATOM     13  C   UNL     1      10.059  10.914  17.700  0.00  0.00    +0.000 A 
ENDBRANCH   3   7
BRANCH   4  14
ATOM     14  C   UNL     1       6.533   6.227  17.388  0.00  0.00    +0.000 C 
BRANCH  14  15
ATOM     15  C   UNL     1       5.041   6.057  17.610  0.00  0.00    +0.000 A 
ATOM     16  C   UNL     1       4.218   7.194  17.694  0.00  0.00    +0.000 A 
ATOM     17  C   UNL     1       2.848   7.064  17.914  0.00  0.00    +0.000 A 
ATOM     18  C   UNL     1       2.280   5.799  18.047  0.00  0.00    +0.000 A 
ATOM     19  C   UNL     1       3.083   4.663  17.956  0.00  0.00    +0.000 A 
ATOM     20  C   UNL     1       4.455   4.791  17.732  0.00  0.00    +0.000 A 
ENDBRANCH  14  15
BRANCH  14  21
ATOM     21  C   UNL     1       7.099   5.372  16.222  0.00  0.00    +0.000 C 
ATOM     22  O   UNL     1       7.900   4.443  16.340  0.00  0.00    +0.000 OA
ATOM     23  N   UNL     1       6.578   5.701  14.983  0.00  0.00    +0.000 N 
ATOM     24  H   UNL     1       5.640   6.111  14.929  0.00  0.00    +0.000 HD
BRANCH  23  25
ATOM     25  O   UNL     1       6.946   4.829  13.926  0.00  0.00    +0.000 OA
ATOM     26  H   UNL     1       6.208   4.180  13.928  0.00  0.00    +0.000 HD
ENDBRANCH  23  25
ENDBRANCH  14  21
ENDBRANCH   4  14
TORSDOF 5
ENDMDL
MODEL 3
REMARK VINA RESULT:      -8.6      4.723      7.807
REMARK  Name = 
REMARK  5 active torsions:
REMARK  status: ('A' for Active; 'I' for Inactive)
REMARK    1  A    between atoms: N_3  and  C_4
REMARK    2  A    between atoms: N_11  and  C_12
REMARK    3  A    between atoms: C_12  and  C_13
REMARK    4  A    between atoms: C_12  and  C_17
REMARK    5  A    between atoms: N_15  and  O_16
REMARK                            x       y       z     vdW  Elec       q    Type
REMARK                         _______ _______ _______ _____ _____    ______ ____
ROOT
ATOM      1  O   UNL     1       8.559   7.507  18.794  0.00  0.00    +0.000 OA
ATOM      2  C   UNL     1       7.952   8.219  18.000  0.00  0.00    +0.000 C 
ATOM      3  N   UNL     1       8.173   9.557  17.780  0.00  0.00    +0.000 N 
ATOM      4  N   UNL     1       6.976   7.673  17.211  0.00  0.00    +0.000 N 
ATOM      5  H   UNL     1       7.507  10.048  17.201  0.00  0.00    +0.000 HD
ATOM      6  H   UNL     1       6.335   8.261  16.698  0.00  0.00    +0.000 HD
ENDROOT
BRANCH   3   7
ATOM      7  C   UNL     1       9.139  10.336  18.465  0.00  0.00    +0.000 A 
ATOM      8  C   UNL     1       9.131  10.510  19.856  0.00  0.00    +0.000 A 
ATOM      9  C   UNL     1      10.038  11.363  20.481  0.00  0.00    +0.000 A 
ATOM     10  C   UNL     1      10.978  12.032  19.717  0.00  0.00    +0.000 A 
ATOM     11  F   UNL     1      11.829  12.877  20.310  0.00  0.00    +0.000 F 
ATOM     12  C   UNL     1      11.044  11.836  18.342  0.00  0.00    +0.000 A 
ATOM     13  C   UNL     1      10.128  10.981  17.714  0.00  0.00    +0.000 A 
ENDBRANCH   3   7
BRANCH   4  14
ATOM     14  C   UNL     1       6.617   6.269  17.428  0.00  0.00    +0.000 C 
BRANCH  14  15
ATOM     15  C   UNL     1       5.136   6.123  17.720  0.00  0.00    +0.000 A 
ATOM     16  C   UNL     1       4.637   4.893  18.183  0.00  0.00    +0.000 A 
ATOM     17  C   UNL     1       3.276   4.730  18.442  0.00  0.00    +0.000 A 
ATOM     18  C   UNL     1       2.398   5.794  18.248  0.00  0.00    +0.000 A 
ATOM     19  C   UNL     1       2.881   7.022  17.799  0.00  0.00    +0.000 A 
ATOM     20  C   UNL     1       4.242   7.188  17.542  0.00  0.00    +0.000 A 
ENDBRANCH  14  15
BRANCH  14  21
ATOM     21  C   UNL     1       7.117   5.394  16.246  0.00  0.00    +0.000 C 
ATOM     22  O   UNL     1       7.908   4.453  16.338  0.00  0.00    +0.000 OA
ATOM     23  N   UNL     1       6.547   5.721  15.028  0.00  0.00    +0.000 N 
ATOM     24  H   UNL     1       5.614   6.146  15.012  0.00  0.00    +0.000 HD
BRANCH  23  25
ATOM     25  O   UNL     1       6.853   4.834  13.965  0.00  0.00    +0.000 OA
ATOM     26  H   UNL     1       6.054   4.263  13.935  0.00  0.00    +0.000 HD
ENDBRANCH  23  25
ENDBRANCH  14  21
ENDBRANCH   4  14
TORSDOF 5
ENDMDL
MODEL 4
REMARK VINA RESULT:      -8.6      0.053      1.030
REMARK  Name = 
REMARK  5 active torsions:
REMARK  status: ('A' for Active; 'I' for Inactive)
REMARK    1  A    between atoms: N_3  and  C_4
REMARK    2  A    between atoms: N_11  and  C_12
REMARK    3  A    between atoms: C_12  and  C_13
REMARK    4  A    between atoms: C_12  and  C_17
REMARK    5  A    between atoms: N_15  and  O_16
REMARK                            x       y       z     vdW  Elec       q    Type
REMARK                         _______ _______ _______ _____ _____    ______ ____
ROOT
ATOM      1  O   UNL     1       4.100   5.038  17.794  0.00  0.00    +0.000 OA
ATOM      2  C   UNL     1       4.537   3.931  17.498  0.00  0.00    +0.000 C 
ATOM      3  N   UNL     1       4.177   2.737  18.075  0.00  0.00    +0.000 N 
ATOM      4  N   UNL     1       5.447   3.813  16.483  0.00  0.00    +0.000 N 
ATOM      5  H   UNL     1       4.719   1.921  17.830  0.00  0.00    +0.000 HD
ATOM      6  H   UNL     1       5.966   2.956  16.348  0.00  0.00    +0.000 HD
ENDROOT
BRANCH   3   7
ATOM      7  C   UNL     1       3.243   2.604  19.132  0.00  0.00    +0.000 A 
ATOM      8  C   UNL     1       1.857   2.571  18.925  0.00  0.00    +0.000 A 
ATOM      9  C   UNL     1       0.968   2.540  19.998  0.00  0.00    +0.000 A 
ATOM     10  C   UNL     1       1.463   2.517  21.289  0.00  0.00    +0.000 A 
ATOM     11  F   UNL     1       0.612   2.521  22.322  0.00  0.00    +0.000 F 
ATOM     12  C   UNL     1       2.833   2.494  21.523  0.00  0.00    +0.000 A 
ATOM     13  C   UNL     1       3.727   2.530  20.443  0.00  0.00    +0.000 A 
ENDBRANCH   3   7
BRANCH   4  14
ATOM     14  C   UNL     1       5.950   5.040  15.859  0.00  0.00    +0.000 C 
BRANCH  14  15
ATOM     15  C   UNL     1       6.765   5.858  16.843  0.00  0.00    +0.000 A 
ATOM     16  C   UNL     1       6.853   7.252  16.682  0.00  0.00    +0.000 A 
ATOM     17  C   UNL     1       7.610   8.023  17.564  0.00  0.00    +0.000 A 
ATOM     18  C   UNL     1       8.282   7.414  18.621  0.00  0.00    +0.000 A 
ATOM     19  C   UNL     1       8.194   6.034  18.799  0.00  0.00    +0.000 A 
ATOM     20  C   UNL     1       7.435   5.261  17.920  0.00  0.00    +0.000 A 
ENDBRANCH  14  15
BRANCH  14  21
ATOM     21  C   UNL     1       6.700   4.709  14.541  0.00  0.00    +0.000 C 
ATOM     22  O   UNL     1       7.738   5.250  14.153  0.00  0.00    +0.000 OA
ATOM     23  N   UNL     1       6.130   3.676  13.816  0.00  0.00    +0.000 N 
ATOM     24  H   UNL     1       5.592   2.958  14.312  0.00  0.00    +0.000 HD
BRANCH  23  25
ATOM     25  O   UNL     1       6.885   3.238  12.699  0.00  0.00    +0.000 OA
ATOM     26  H   UNL     1       7.797   3.208  13.064  0.00  0.00    +0.000 HD
ENDBRANCH  23  25
ENDBRANCH  14  21
ENDBRANCH   4  14
TORSDOF 5
ENDMDL
MODEL 5
REMARK VINA RESULT:      -8.5      1.999      3.655
REMARK  Name = 
REMARK  5 active torsions:
REMARK  status: ('A' for Active; 'I' for Inactive)
REMARK    1  A    between atoms: N_3  and  C_4
REMARK    2  A    between atoms: N_11  and  C_12
REMARK    3  A    between atoms: C_12  and  C_13
REMARK    4  A    between atoms: C_12  and  C_17
REMARK    5  A    between atoms: N_15  and  O_16
REMARK                            x       y       z     vdW  Elec       q    Type
REMARK                         _______ _______ _______ _____ _____    ______ ____
ROOT
ATOM      1  O   UNL     1       5.242   4.102  18.320  0.00  0.00    +0.000 OA
ATOM      2  C   UNL     1       4.427   4.165  17.405  0.00  0.00    +0.000 C 
ATOM      3  N   UNL     1       3.074   3.955  17.509  0.00  0.00    +0.000 N 
ATOM      4  N   UNL     1       4.849   4.505  16.148  0.00  0.00    +0.000 N 
ATOM      5  H   UNL     1       2.545   3.902  16.650  0.00  0.00    +0.000 HD
ATOM      6  H   UNL     1       4.247   4.376  15.346  0.00  0.00    +0.000 HD
ENDROOT
BRANCH   3   7
ATOM      7  C   UNL     1       2.405   3.607  18.708  0.00  0.00    +0.000 A 
ATOM      8  C   UNL     1       1.768   4.551  19.526  0.00  0.00    +0.000 A 
ATOM      9  C   UNL     1       1.207   4.184  20.748  0.00  0.00    +0.000 A 
ATOM     10  C   UNL     1       1.258   2.861  21.149  0.00  0.00    +0.000 A 
ATOM     11  F   UNL     1       0.748   2.511  22.336  0.00  0.00    +0.000 F 
ATOM     12  C   UNL     1       1.834   1.895  20.332  0.00  0.00    +0.000 A 
ATOM     13  C   UNL     1       2.402   2.265  19.105  0.00  0.00    +0.000 A 
ENDBRANCH   3   7
BRANCH   4  14
ATOM     14  C   UNL     1       6.287   4.673  15.922  0.00  0.00    +0.000 C 
BRANCH  14  15
ATOM     15  C   UNL     1       6.625   4.567  14.447  0.00  0.00    +0.000 A 
ATOM     16  C   UNL     1       5.915   3.664  13.636  0.00  0.00    +0.000 A 
ATOM     17  C   UNL     1       6.218   3.536  12.281  0.00  0.00    +0.000 A 
ATOM     18  C   UNL     1       7.228   4.312  11.717  0.00  0.00    +0.000 A 
ATOM     19  C   UNL     1       7.933   5.219  12.507  0.00  0.00    +0.000 A 
ATOM     20  C   UNL     1       7.629   5.351  13.863  0.00  0.00    +0.000 A 
ENDBRANCH  14  15
BRANCH  14  21
ATOM     21  C   UNL     1       6.790   5.981  16.592  0.00  0.00    +0.000 C 
ATOM     22  O   UNL     1       6.391   7.117  16.332  0.00  0.00    +0.000 OA
ATOM     23  N   UNL     1       7.727   5.774  17.591  0.00  0.00    +0.000 N 
ATOM     24  H   UNL     1       7.719   4.887  18.105  0.00  0.00    +0.000 HD
BRANCH  23  25
ATOM     25  O   UNL     1       8.077   6.929  18.334  0.00  0.00    +0.000 OA
ATOM     26  H   UNL     1       8.620   6.552  19.060  0.00  0.00    +0.000 HD
ENDBRANCH  23  25
ENDBRANCH  14  21
ENDBRANCH   4  14
TORSDOF 5
ENDMDL
MODEL 6
REMARK VINA RESULT:      -8.5      4.708      7.791
REMARK  Name = 
REMARK  5 active torsions:
REMARK  status: ('A' for Active; 'I' for Inactive)
REMARK    1  A    between atoms: N_3  and  C_4
REMARK    2  A    between atoms: N_11  and  C_12
REMARK    3  A    between atoms: C_12  and  C_13
REMARK    4  A    between atoms: C_12  and  C_17
REMARK    5  A    between atoms: N_15  and  O_16
REMARK                            x       y       z     vdW  Elec       q    Type
REMARK                         _______ _______ _______ _____ _____    ______ ____
ROOT
ATOM      1  O   UNL     1       8.578   7.549  18.755  0.00  0.00    +0.000 OA
ATOM      2  C   UNL     1       7.935   8.249  17.980  0.00  0.00    +0.000 C 
ATOM      3  N   UNL     1       8.140   9.584  17.733  0.00  0.00    +0.000 N 
ATOM      4  N   UNL     1       6.926   7.689  17.244  0.00  0.00    +0.000 N 
ATOM      5  H   UNL     1       7.448  10.066  17.178  0.00  0.00    +0.000 HD
ATOM      6  H   UNL     1       6.260   8.269  16.752  0.00  0.00    +0.000 HD
ENDROOT
BRANCH   3   7
ATOM      7  C   UNL     1       9.134  10.375  18.363  0.00  0.00    +0.000 A 
ATOM      8  C   UNL     1      10.137  11.047  17.650  0.00  0.00    +0.000 A 
ATOM      9  C   UNL     1      11.154  11.733  18.311  0.00  0.00    +0.000 A 
ATOM     10  C   UNL     1      11.161  11.770  19.693  0.00  0.00    +0.000 A 
ATOM     11  F   UNL     1      12.155  12.400  20.331  0.00  0.00    +0.000 F 
ATOM     12  C   UNL     1      10.149  11.159  20.424  0.00  0.00    +0.000 A 
ATOM     13  C   UNL     1       9.128  10.465  19.759  0.00  0.00    +0.000 A 
ENDBRANCH   3   7
BRANCH   4  14
ATOM     14  C   UNL     1       6.582   6.288  17.496  0.00  0.00    +0.000 C 
BRANCH  14  15
ATOM     15  C   UNL     1       5.099   6.132  17.776  0.00  0.00    +0.000 A 
ATOM     16  C   UNL     1       4.614   4.917  18.292  0.00  0.00    +0.000 A 
ATOM     17  C   UNL     1       3.253   4.744  18.541  0.00  0.00    +0.000 A 
ATOM     18  C   UNL     1       2.360   5.783  18.286  0.00  0.00    +0.000 A 
ATOM     19  C   UNL     1       2.829   6.996  17.785  0.00  0.00    +0.000 A 
ATOM     20  C   UNL     1       4.191   7.172  17.537  0.00  0.00    +0.000 A 
ENDBRANCH  14  15
BRANCH  14  21
ATOM     21  C   UNL     1       7.104   5.387  16.344  0.00  0.00    +0.000 C 
ATOM     22  O   UNL     1       7.903   4.456  16.469  0.00  0.00    +0.000 OA
ATOM     23  N   UNL     1       6.547   5.676  15.110  0.00  0.00    +0.000 N 
ATOM     24  H   UNL     1       5.610   6.092  15.072  0.00  0.00    +0.000 HD
BRANCH  23  25
ATOM     25  O   UNL     1       6.875   4.764  14.075  0.00  0.00    +0.000 OA
ATOM     26  H   UNL     1       7.219   5.361  13.374  0.00  0.00    +0.000 HD
ENDBRANCH  23  25
ENDBRANCH  14  21
ENDBRANCH   4  14
TORSDOF 5
ENDMDL
MODEL 7
REMARK VINA RESULT:      -8.5      4.681      7.769
REMARK  Name = 
REMARK  5 active torsions:
REMARK  status: ('A' for Active; 'I' for Inactive)
REMARK    1  A    between atoms: N_3  and  C_4
REMARK    2  A    between atoms: N_11  and  C_12
REMARK    3  A    between atoms: C_12  and  C_13
REMARK    4  A    between atoms: C_12  and  C_17
REMARK    5  A    between atoms: N_15  and  O_16
REMARK                            x       y       z     vdW  Elec       q    Type
REMARK                         _______ _______ _______ _____ _____    ______ ____
ROOT
ATOM      1  O   UNL     1       8.541   7.522  18.725  0.00  0.00    +0.000 OA
ATOM      2  C   UNL     1       7.943   8.218  17.910  0.00  0.00    +0.000 C 
ATOM      3  N   UNL     1       8.162   9.552  17.669  0.00  0.00    +0.000 N 
ATOM      4  N   UNL     1       6.980   7.653  17.119  0.00  0.00    +0.000 N 
ATOM      5  H   UNL     1       7.502  10.030  17.072  0.00  0.00    +0.000 HD
ATOM      6  H   UNL     1       6.343   8.229  16.586  0.00  0.00    +0.000 HD
ENDROOT
BRANCH   3   7
ATOM      7  C   UNL     1       9.116  10.347  18.352  0.00  0.00    +0.000 A 
ATOM      8  C   UNL     1      10.151  11.026  17.695  0.00  0.00    +0.000 A 
ATOM      9  C   UNL     1      11.129  11.715  18.410  0.00  0.00    +0.000 A 
ATOM     10  C   UNL     1      11.061  11.751  19.791  0.00  0.00    +0.000 A 
ATOM     11  F   UNL     1      12.016  12.385  20.482  0.00  0.00    +0.000 F 
ATOM     12  C   UNL     1      10.014  11.133  20.465  0.00  0.00    +0.000 A 
ATOM     13  C   UNL     1       9.034  10.436  19.746  0.00  0.00    +0.000 A 
ENDBRANCH   3   7
BRANCH   4  14
ATOM     14  C   UNL     1       6.623   6.252  17.357  0.00  0.00    +0.000 C 
BRANCH  14  15
ATOM     15  C   UNL     1       5.246   6.139  17.984  0.00  0.00    +0.000 A 
ATOM     16  C   UNL     1       4.171   6.859  17.433  0.00  0.00    +0.000 A 
ATOM     17  C   UNL     1       2.900   6.784  18.002  0.00  0.00    +0.000 A 
ATOM     18  C   UNL     1       2.684   5.985  19.123  0.00  0.00    +0.000 A 
ATOM     19  C   UNL     1       3.739   5.258  19.673  0.00  0.00    +0.000 A 
ATOM     20  C   UNL     1       5.011   5.329  19.103  0.00  0.00    +0.000 A 
ENDBRANCH  14  15
BRANCH  14  21
ATOM     21  C   UNL     1       6.794   5.421  16.056  0.00  0.00    +0.000 C 
ATOM     22  O   UNL     1       7.538   5.710  15.116  0.00  0.00    +0.000 OA
ATOM     23  N   UNL     1       6.061   4.247  16.040  0.00  0.00    +0.000 N 
ATOM     24  H   UNL     1       5.830   3.793  16.930  0.00  0.00    +0.000 HD
BRANCH  23  25
ATOM     25  O   UNL     1       6.327   3.388  14.944  0.00  0.00    +0.000 OA
ATOM     26  H   UNL     1       5.898   2.551  15.228  0.00  0.00    +0.000 HD
ENDBRANCH  23  25
ENDBRANCH  14  21
ENDBRANCH   4  14
TORSDOF 5
ENDMDL
MODEL 8
REMARK VINA RESULT:      -8.5      4.317      5.485
REMARK  Name = 
REMARK  5 active torsions:
REMARK  status: ('A' for Active; 'I' for Inactive)
REMARK    1  A    between atoms: N_3  and  C_4
REMARK    2  A    between atoms: N_11  and  C_12
REMARK    3  A    between atoms: C_12  and  C_13
REMARK    4  A    between atoms: C_12  and  C_17
REMARK    5  A    between atoms: N_15  and  O_16
REMARK                            x       y       z     vdW  Elec       q    Type
REMARK                         _______ _______ _______ _____ _____    ______ ____
ROOT
ATOM      1  O   UNL     1       1.981   5.618  18.131  0.00  0.00    +0.000 OA
ATOM      2  C   UNL     1       2.818   5.788  19.011  0.00  0.00    +0.000 C 
ATOM      3  N   UNL     1       2.823   6.800  19.940  0.00  0.00    +0.000 N 
ATOM      4  N   UNL     1       3.847   4.895  19.146  0.00  0.00    +0.000 N 
ATOM      5  H   UNL     1       3.647   6.898  20.515  0.00  0.00    +0.000 HD
ATOM      6  H   UNL     1       4.647   5.110  19.723  0.00  0.00    +0.000 HD
ENDROOT
BRANCH   3   7
ATOM      7  C   UNL     1       1.855   7.832  20.009  0.00  0.00    +0.000 A 
ATOM      8  C   UNL     1       1.677   8.780  18.992  0.00  0.00    +0.000 A 
ATOM      9  C   UNL     1       0.784   9.839  19.142  0.00  0.00    +0.000 A 
ATOM     10  C   UNL     1       0.041   9.942  20.304  0.00  0.00    +0.000 A 
ATOM     11  F   UNL     1      -0.794  10.976  20.464  0.00  0.00    +0.000 F 
ATOM     12  C   UNL     1       0.156   8.985  21.306  0.00  0.00    +0.000 A 
ATOM     13  C   UNL     1       1.059   7.923  21.157  0.00  0.00    +0.000 A 
ENDBRANCH   3   7
BRANCH   4  14
ATOM     14  C   UNL     1       3.968   3.825  18.153  0.00  0.00    +0.000 C 
BRANCH  14  15
ATOM     15  C   UNL     1       5.057   4.137  17.144  0.00  0.00    +0.000 A 
ATOM     16  C   UNL     1       6.308   4.597  17.593  0.00  0.00    +0.000 A 
ATOM     17  C   UNL     1       7.319   4.907  16.684  0.00  0.00    +0.000 A 
ATOM     18  C   UNL     1       7.097   4.756  15.317  0.00  0.00    +0.000 A 
ATOM     19  C   UNL     1       5.865   4.291  14.859  0.00  0.00    +0.000 A 
ATOM     20  C   UNL     1       4.853   3.977  15.767  0.00  0.00    +0.000 A 
ENDBRANCH  14  15
BRANCH  14  21
ATOM     21  C   UNL     1       4.135   2.451  18.856  0.00  0.00    +0.000 C 
ATOM     22  O   UNL     1       3.571   1.405  18.526  0.00  0.00    +0.000 OA
ATOM     23  N   UNL     1       5.044   2.462  19.900  0.00  0.00    +0.000 N 
ATOM     24  H   UNL     1       5.810   3.144  19.885  0.00  0.00    +0.000 HD
BRANCH  23  25
ATOM     25  O   UNL     1       5.344   1.190  20.449  0.00  0.00    +0.000 OA
ATOM     26  H   UNL     1       4.574   1.033  21.040  0.00  0.00    +0.000 HD
ENDBRANCH  23  25
ENDBRANCH  14  21
ENDBRANCH   4  14
TORSDOF 5
ENDMDL
MODEL 9
REMARK VINA RESULT:      -8.5      2.075      3.779
REMARK  Name = 
REMARK  5 active torsions:
REMARK  status: ('A' for Active; 'I' for Inactive)
REMARK    1  A    between atoms: N_3  and  C_4
REMARK    2  A    between atoms: N_11  and  C_12
REMARK    3  A    between atoms: C_12  and  C_13
REMARK    4  A    between atoms: C_12  and  C_17
REMARK    5  A    between atoms: N_15  and  O_16
REMARK                            x       y       z     vdW  Elec       q    Type
REMARK                         _______ _______ _______ _____ _____    ______ ____
ROOT
ATOM      1  O   UNL     1       5.279   4.540  18.246  0.00  0.00    +0.000 OA
ATOM      2  C   UNL     1       4.494   4.111  17.407  0.00  0.00    +0.000 C 
ATOM      3  N   UNL     1       3.271   3.539  17.659  0.00  0.00    +0.000 N 
ATOM      4  N   UNL     1       4.801   4.217  16.077  0.00  0.00    +0.000 N 
ATOM      5  H   UNL     1       2.793   3.104  16.884  0.00  0.00    +0.000 HD
ATOM      6  H   UNL     1       4.276   3.706  15.381  0.00  0.00    +0.000 HD
ENDROOT
BRANCH   3   7
ATOM      7  C   UNL     1       2.730   3.336  18.953  0.00  0.00    +0.000 A 
ATOM      8  C   UNL     1       3.438   2.700  19.983  0.00  0.00    +0.000 A 
ATOM      9  C   UNL     1       2.836   2.430  21.211  0.00  0.00    +0.000 A 
ATOM     10  C   UNL     1       1.526   2.817  21.425  0.00  0.00    +0.000 A 
ATOM     11  F   UNL     1       0.935   2.530  22.591  0.00  0.00    +0.000 F 
ATOM     12  C   UNL     1       0.819   3.498  20.441  0.00  0.00    +0.000 A 
ATOM     13  C   UNL     1       1.423   3.765  19.205  0.00  0.00    +0.000 A 
ENDBRANCH   3   7
BRANCH   4  14
ATOM     14  C   UNL     1       6.119   4.745  15.712  0.00  0.00    +0.000 C 
BRANCH  14  15
ATOM     15  C   UNL     1       6.433   4.467  14.254  0.00  0.00    +0.000 A 
ATOM     16  C   UNL     1       5.660   3.532  13.543  0.00  0.00    +0.000 A 
ATOM     17  C   UNL     1       5.940   3.249  12.207  0.00  0.00    +0.000 A 
ATOM     18  C   UNL     1       6.989   3.898  11.561  0.00  0.00    +0.000 A 
ATOM     19  C   UNL     1       7.757   4.835  12.252  0.00  0.00    +0.000 A 
ATOM     20  C   UNL     1       7.477   5.123  13.588  0.00  0.00    +0.000 A 
ENDBRANCH  14  15
BRANCH  14  21
ATOM     21  C   UNL     1       6.231   6.242  16.108  0.00  0.00    +0.000 C 
ATOM     22  O   UNL     1       5.362   7.097  15.925  0.00  0.00    +0.000 OA
ATOM     23  N   UNL     1       7.408   6.561  16.763  0.00  0.00    +0.000 N 
ATOM     24  H   UNL     1       7.891   5.835  17.302  0.00  0.00    +0.000 HD
BRANCH  23  25
ATOM     25  O   UNL     1       7.466   7.878  17.286  0.00  0.00    +0.000 OA
ATOM     26  H   UNL     1       7.348   8.427  16.480  0.00  0.00    +0.000 HD
ENDBRANCH  23  25
ENDBRANCH  14  21
ENDBRANCH   4  14
TORSDOF 5
ENDMDL
