MODEL 1
REMARK VINA RESULT:      -7.3      0.000      0.000
REMARK  Name = 
REMARK  7 active torsions:
REMARK  status: ('A' for Active; 'I' for Inactive)
REMARK    1  A    between atoms: C_1  and  C_2
REMARK    2  A    between atoms: C_2  and  C_3
REMARK    3  A    between atoms: C_2  and  C_4
REMARK    4  A    between atoms: C_2  and  C_5
REMARK    5  A    between atoms: C_5  and  C_7
REMARK    6  A    between atoms: C_8  and  C_9
REMARK    7  A    between atoms: C_17  and  C_18
REMARK                            x       y       z     vdW  Elec       q    Type
REMARK                         _______ _______ _______ _____ _____    ______ ____
ROOT
ATOM      1  C   UNL     1      -1.280  11.204  20.869  0.00  0.00    +0.000 C 
ATOM      2  C   UNL     1      -1.228  12.715  21.414  0.00  0.00    +0.000 C 
ATOM      3  C   UNL     1      -1.594  13.558  20.180  0.00  0.00    +0.000 C 
ATOM      4  N   UNL     1      -0.288  13.959  19.536  0.00  0.00    +0.000 NA
ATOM      5  C   UNL     1      -0.422  15.215  19.278  0.00  0.00    +0.000 C 
ATOM      6  O   UNL     1      -1.561  15.823  19.622  0.00  0.00    +0.000 OA
ATOM      7  C   UNL     1      -2.342  14.890  20.222  0.00  0.00    +0.000 C 
ATOM      8  O   UNL     1      -3.447  15.160  20.660  0.00  0.00    +0.000 OA
ATOM      9  C   UNL     1      -2.298  12.587  19.252  0.00  0.00    +0.000 C 
ATOM     10  C   UNL     1      -3.762  12.257  19.298  0.00  0.00    +0.000 A 
ATOM     11  C   UNL     1      -4.751  12.682  20.171  0.00  0.00    +0.000 A 
ATOM     12  C   UNL     1      -6.091  12.492  19.826  0.00  0.00    +0.000 A 
ATOM     13  C   UNL     1      -6.427  11.885  18.612  0.00  0.00    +0.000 A 
ATOM     14  C   UNL     1      -5.435  11.275  17.844  0.00  0.00    +0.000 A 
ATOM     15  C   UNL     1      -4.119  11.376  18.279  0.00  0.00    +0.000 A 
ATOM     16  C   UNL     1      -3.056  10.389  17.938  0.00  0.00    +0.000 C 
ATOM     17  N   UNL     1      -1.917  10.275  18.587  0.00  0.00    +0.000 NA
ATOM     18  N   UNL     1      -1.571  11.324  19.409  0.00  0.00    +0.000 N 
ENDROOT
BRANCH   2  19
ATOM     19  C   UNL     1      -1.943  13.098  22.715  0.00  0.00    +0.000 A 
ATOM     20  C   UNL     1      -1.607  14.194  23.516  0.00  0.00    +0.000 A 
ATOM     21  C   UNL     1      -2.359  14.502  24.655  0.00  0.00    +0.000 A 
ATOM     22  C   UNL     1      -3.453  13.719  25.029  0.00  0.00    +0.000 A 
ATOM     23  C   UNL     1      -3.815  12.639  24.246  0.00  0.00    +0.000 A 
ATOM     24  C   UNL     1      -3.087  12.350  23.091  0.00  0.00    +0.000 A 
ENDBRANCH   2  19
BRANCH   5  25
ATOM     25  C   UNL     1       0.577  16.087  18.654  0.00  0.00    +0.000 A 
ATOM     26  C   UNL     1       0.158  17.273  18.041  0.00  0.00    +0.000 A 
ATOM     27  C   UNL     1       1.083  18.085  17.385  0.00  0.00    +0.000 A 
ATOM     28  C   UNL     1       2.426  17.712  17.334  0.00  0.00    +0.000 A 
ATOM     29  C   UNL     1       2.851  16.543  17.965  0.00  0.00    +0.000 A 
ATOM     30  C   UNL     1       1.933  15.727  18.624  0.00  0.00    +0.000 A 
ENDBRANCH   5  25
BRANCH   1  31
ATOM     31  C   UNL     1       0.103  10.534  21.078  0.00  0.00    +0.000 C 
ATOM     32  O   UNL     1       1.092  10.927  20.446  0.00  0.00    +0.000 OA
BRANCH  31  34
ATOM     33  C   UNL     1       1.789   9.028  22.182  0.00  0.00    +0.000 C 
ATOM     34  C   UNL     1       0.276   9.336  22.056  0.00  0.00    +0.000 C 
ATOM     35  C   UNL     1      -0.404   8.094  21.468  0.00  0.00    +0.000 C 
ATOM     36  C   UNL     1      -0.247   9.603  23.470  0.00  0.00    +0.000 C 
ENDBRANCH  31  34
ENDBRANCH   1  31
TORSDOF 4
ENDMDL
MODEL 2
REMARK VINA RESULT:      -7.2      1.677      5.667
REMARK  Name = 
REMARK  7 active torsions:
REMARK  status: ('A' for Active; 'I' for Inactive)
REMARK    1  A    between atoms: C_1  and  C_2
REMARK    2  A    between atoms: C_2  and  C_3
REMARK    3  A    between atoms: C_2  and  C_4
REMARK    4  A    between atoms: C_2  and  C_5
REMARK    5  A    between atoms: C_5  and  C_7
REMARK    6  A    between atoms: C_8  and  C_9
REMARK    7  A    between atoms: C_17  and  C_18
REMARK                            x       y       z     vdW  Elec       q    Type
REMARK                         _______ _______ _______ _____ _____    ______ ____
ROOT
ATOM      1  C   UNL     1      -3.643  12.226  20.303  0.00  0.00    +0.000 C 
ATOM      2  C   UNL     1      -2.818  12.418  18.937  0.00  0.00    +0.000 C 
ATOM      3  C   UNL     1      -1.413  12.820  19.416  0.00  0.00    +0.000 C 
ATOM      4  N   UNL     1      -1.377  14.330  19.412  0.00  0.00    +0.000 NA
ATOM      5  C   UNL     1      -0.258  14.631  18.850  0.00  0.00    +0.000 C 
ATOM      6  O   UNL     1       0.531  13.641  18.421  0.00  0.00    +0.000 OA
ATOM      7  C   UNL     1      -0.111  12.477  18.692  0.00  0.00    +0.000 C 
ATOM      8  O   UNL     1       0.365  11.395  18.396  0.00  0.00    +0.000 OA
ATOM      9  C   UNL     1      -1.354  12.352  20.857  0.00  0.00    +0.000 C 
ATOM     10  C   UNL     1      -0.967  10.970  21.300  0.00  0.00    +0.000 A 
ATOM     11  C   UNL     1      -0.645   9.846  20.555  0.00  0.00    +0.000 A 
ATOM     12  C   UNL     1      -0.014   8.771  21.184  0.00  0.00    +0.000 A 
ATOM     13  C   UNL     1       0.293   8.833  22.547  0.00  0.00    +0.000 A 
ATOM     14  C   UNL     1      -0.220   9.870  23.327  0.00  0.00    +0.000 A 
ATOM     15  C   UNL     1      -0.950  10.865  22.690  0.00  0.00    +0.000 A 
ATOM     16  C   UNL     1      -1.988  11.693  23.366  0.00  0.00    +0.000 C 
ATOM     17  N   UNL     1      -2.906  12.391  22.733  0.00  0.00    +0.000 NA
ATOM     18  N   UNL     1      -2.694  12.610  21.390  0.00  0.00    +0.000 N 
ENDROOT
BRANCH   2  19
ATOM     19  C   UNL     1      -2.865  11.344  17.843  0.00  0.00    +0.000 A 
ATOM     20  C   UNL     1      -3.216  10.008  18.056  0.00  0.00    +0.000 A 
ATOM     21  C   UNL     1      -3.292   9.111  16.984  0.00  0.00    +0.000 A 
ATOM     22  C   UNL     1      -3.009   9.523  15.680  0.00  0.00    +0.000 A 
ATOM     23  C   UNL     1      -2.674  10.843  15.441  0.00  0.00    +0.000 A 
ATOM     24  C   UNL     1      -2.631  11.746  16.505  0.00  0.00    +0.000 A 
ENDBRANCH   2  19
BRANCH   5  25
ATOM     25  C   UNL     1       0.254  15.980  18.595  0.00  0.00    +0.000 A 
ATOM     26  C   UNL     1      -0.650  17.011  18.313  0.00  0.00    +0.000 A 
ATOM     27  C   UNL     1      -0.181  18.287  18.004  0.00  0.00    +0.000 A 
ATOM     28  C   UNL     1       1.191  18.536  17.970  0.00  0.00    +0.000 A 
ATOM     29  C   UNL     1       2.094  17.518  18.274  0.00  0.00    +0.000 A 
ATOM     30  C   UNL     1       1.633  16.241  18.585  0.00  0.00    +0.000 A 
ENDBRANCH   5  25
BRANCH   1  31
ATOM     31  C   UNL     1      -4.863  13.184  20.305  0.00  0.00    +0.000 C 
ATOM     32  O   UNL     1      -4.774  14.312  20.806  0.00  0.00    +0.000 OA
BRANCH  31  34
ATOM     33  C   UNL     1      -6.376  11.212  19.914  0.00  0.00    +0.000 C 
ATOM     34  C   UNL     1      -6.233  12.742  19.714  0.00  0.00    +0.000 C 
ATOM     35  C   UNL     1      -6.252  13.019  18.206  0.00  0.00    +0.000 C 
ATOM     36  C   UNL     1      -7.444  13.398  20.385  0.00  0.00    +0.000 C 
ENDBRANCH  31  34
ENDBRANCH   1  31
TORSDOF 4
ENDMDL
MODEL 3
REMARK VINA RESULT:      -7.1      1.714      5.737
REMARK  Name = 
REMARK  7 active torsions:
REMARK  status: ('A' for Active; 'I' for Inactive)
REMARK    1  A    between atoms: C_1  and  C_2
REMARK    2  A    between atoms: C_2  and  C_3
REMARK    3  A    between atoms: C_2  and  C_4
REMARK    4  A    between atoms: C_2  and  C_5
REMARK    5  A    between atoms: C_5  and  C_7
REMARK    6  A    between atoms: C_8  and  C_9
REMARK    7  A    between atoms: C_17  and  C_18
REMARK                            x       y       z     vdW  Elec       q    Type
REMARK                         _______ _______ _______ _____ _____    ______ ____
ROOT
ATOM      1  C   UNL     1      -3.666  12.190  20.434  0.00  0.00    +0.000 C 
ATOM      2  C   UNL     1      -2.866  12.417  19.058  0.00  0.00    +0.000 C 
ATOM      3  C   UNL     1      -1.458  12.828  19.523  0.00  0.00    +0.000 C 
ATOM      4  N   UNL     1      -1.441  14.339  19.546  0.00  0.00    +0.000 NA
ATOM      5  C   UNL     1      -0.335  14.664  18.971  0.00  0.00    +0.000 C 
ATOM      6  O   UNL     1       0.459  13.693  18.511  0.00  0.00    +0.000 OA
ATOM      7  C   UNL     1      -0.164  12.516  18.771  0.00  0.00    +0.000 C 
ATOM      8  O   UNL     1       0.320  11.445  18.447  0.00  0.00    +0.000 OA
ATOM      9  C   UNL     1      -1.369  12.334  20.953  0.00  0.00    +0.000 C 
ATOM     10  C   UNL     1      -0.958  10.950  21.364  0.00  0.00    +0.000 A 
ATOM     11  C   UNL     1      -0.634   9.844  20.594  0.00  0.00    +0.000 A 
ATOM     12  C   UNL     1       0.021   8.766  21.192  0.00  0.00    +0.000 A 
ATOM     13  C   UNL     1       0.349   8.807  22.550  0.00  0.00    +0.000 A 
ATOM     14  C   UNL     1      -0.163   9.822  23.358  0.00  0.00    +0.000 A 
ATOM     15  C   UNL     1      -0.917  10.819  22.751  0.00  0.00    +0.000 A 
ATOM     16  C   UNL     1      -1.954  11.622  23.460  0.00  0.00    +0.000 C 
ATOM     17  N   UNL     1      -2.891  12.319  22.854  0.00  0.00    +0.000 NA
ATOM     18  N   UNL     1      -2.704  12.566  21.513  0.00  0.00    +0.000 N 
ENDROOT
BRANCH   2  19
ATOM     19  C   UNL     1      -2.917  11.363  17.946  0.00  0.00    +0.000 A 
ATOM     20  C   UNL     1      -3.339  10.042  18.122  0.00  0.00    +0.000 A 
ATOM     21  C   UNL     1      -3.412   9.166  17.033  0.00  0.00    +0.000 A 
ATOM     22  C   UNL     1      -3.056   9.583  15.749  0.00  0.00    +0.000 A 
ATOM     23  C   UNL     1      -2.649  10.888  15.546  0.00  0.00    +0.000 A 
ATOM     24  C   UNL     1      -2.608  11.772  16.626  0.00  0.00    +0.000 A 
ENDBRANCH   2  19
BRANCH   5  25
ATOM     25  C   UNL     1       0.155  16.024  18.733  0.00  0.00    +0.000 A 
ATOM     26  C   UNL     1       1.512  16.305  18.932  0.00  0.00    +0.000 A 
ATOM     27  C   UNL     1       1.987  17.606  18.774  0.00  0.00    +0.000 A 
ATOM     28  C   UNL     1       1.109  18.631  18.421  0.00  0.00    +0.000 A 
ATOM     29  C   UNL     1      -0.238  18.351  18.197  0.00  0.00    +0.000 A 
ATOM     30  C   UNL     1      -0.721  17.053  18.353  0.00  0.00    +0.000 A 
ENDBRANCH   5  25
BRANCH   1  31
ATOM     31  C   UNL     1      -4.898  13.131  20.474  0.00  0.00    +0.000 C 
ATOM     32  O   UNL     1      -4.832  14.226  21.048  0.00  0.00    +0.000 OA
BRANCH  31  34
ATOM     33  C   UNL     1      -7.388  13.486  20.543  0.00  0.00    +0.000 C 
ATOM     34  C   UNL     1      -6.251  12.713  19.829  0.00  0.00    +0.000 C 
ATOM     35  C   UNL     1      -6.487  11.216  20.063  0.00  0.00    +0.000 C 
ATOM     36  C   UNL     1      -6.357  13.035  18.336  0.00  0.00    +0.000 C 
ENDBRANCH  31  34
ENDBRANCH   1  31
TORSDOF 4
ENDMDL
MODEL 4
REMARK VINA RESULT:      -7.1      0.199      1.096
REMARK  Name = 
REMARK  7 active torsions:
REMARK  status: ('A' for Active; 'I' for Inactive)
REMARK    1  A    between atoms: C_1  and  C_2
REMARK    2  A    between atoms: C_2  and  C_3
REMARK    3  A    between atoms: C_2  and  C_4
REMARK    4  A    between atoms: C_2  and  C_5
REMARK    5  A    between atoms: C_5  and  C_7
REMARK    6  A    between atoms: C_8  and  C_9
REMARK    7  A    between atoms: C_17  and  C_18
REMARK                            x       y       z     vdW  Elec       q    Type
REMARK                         _______ _______ _______ _____ _____    ______ ____
ROOT
ATOM      1  C   UNL     1      -1.296  11.334  20.943  0.00  0.00    +0.000 C 
ATOM      2  C   UNL     1      -1.247  12.859  21.448  0.00  0.00    +0.000 C 
ATOM      3  C   UNL     1      -1.614  13.668  20.192  0.00  0.00    +0.000 C 
ATOM      4  N   UNL     1      -0.308  14.055  19.539  0.00  0.00    +0.000 NA
ATOM      5  C   UNL     1      -0.443  15.303  19.249  0.00  0.00    +0.000 C 
ATOM      6  O   UNL     1      -1.583  15.919  19.576  0.00  0.00    +0.000 OA
ATOM      7  C   UNL     1      -2.363  15.000  20.199  0.00  0.00    +0.000 C 
ATOM      8  O   UNL     1      -3.470  15.280  20.628  0.00  0.00    +0.000 OA
ATOM      9  C   UNL     1      -2.314  12.673  19.288  0.00  0.00    +0.000 C 
ATOM     10  C   UNL     1      -3.778  12.341  19.342  0.00  0.00    +0.000 A 
ATOM     11  C   UNL     1      -4.769  12.788  20.202  0.00  0.00    +0.000 A 
ATOM     12  C   UNL     1      -6.108  12.587  19.860  0.00  0.00    +0.000 A 
ATOM     13  C   UNL     1      -6.441  11.948  18.662  0.00  0.00    +0.000 A 
ATOM     14  C   UNL     1      -5.447  11.319  17.912  0.00  0.00    +0.000 A 
ATOM     15  C   UNL     1      -4.133  11.433  18.345  0.00  0.00    +0.000 A 
ATOM     16  C   UNL     1      -3.067  10.440  18.032  0.00  0.00    +0.000 C 
ATOM     17  N   UNL     1      -1.929  10.345  18.685  0.00  0.00    +0.000 NA
ATOM     18  N   UNL     1      -1.586  11.416  19.480  0.00  0.00    +0.000 N 
ENDROOT
BRANCH   2  19
ATOM     19  C   UNL     1      -1.965  13.274  22.738  0.00  0.00    +0.000 A 
ATOM     20  C   UNL     1      -3.093  12.634  23.261  0.00  0.00    +0.000 A 
ATOM     21  C   UNL     1      -3.644  13.044  24.481  0.00  0.00    +0.000 A 
ATOM     22  C   UNL     1      -3.092  14.107  25.198  0.00  0.00    +0.000 A 
ATOM     23  C   UNL     1      -1.969  14.747  24.710  0.00  0.00    +0.000 A 
ATOM     24  C   UNL     1      -1.398  14.317  23.510  0.00  0.00    +0.000 A 
ENDBRANCH   2  19
BRANCH   5  25
ATOM     25  C   UNL     1       0.556  16.161  18.603  0.00  0.00    +0.000 A 
ATOM     26  C   UNL     1       0.134  17.323  17.948  0.00  0.00    +0.000 A 
ATOM     27  C   UNL     1       1.059  18.118  17.272  0.00  0.00    +0.000 A 
ATOM     28  C   UNL     1       2.405  17.753  17.244  0.00  0.00    +0.000 A 
ATOM     29  C   UNL     1       2.832  16.609  17.917  0.00  0.00    +0.000 A 
ATOM     30  C   UNL     1       1.914  15.809  18.596  0.00  0.00    +0.000 A 
ENDBRANCH   5  25
BRANCH   1  31
ATOM     31  C   UNL     1       0.088  10.672  21.171  0.00  0.00    +0.000 C 
ATOM     32  O   UNL     1       1.100  11.132  20.628  0.00  0.00    +0.000 OA
BRANCH  31  34
ATOM     33  C   UNL     1      -0.402   9.692  23.435  0.00  0.00    +0.000 C 
ATOM     34  C   UNL     1       0.234   9.399  22.054  0.00  0.00    +0.000 C 
ATOM     35  C   UNL     1       1.721   9.102  22.279  0.00  0.00    +0.000 C 
ATOM     36  C   UNL     1      -0.469   8.162  21.488  0.00  0.00    +0.000 C 
ENDBRANCH  31  34
ENDBRANCH   1  31
TORSDOF 4
ENDMDL
MODEL 5
REMARK VINA RESULT:      -7.1      0.073      1.083
REMARK  Name = 
REMARK  7 active torsions:
REMARK  status: ('A' for Active; 'I' for Inactive)
REMARK    1  A    between atoms: C_1  and  C_2
REMARK    2  A    between atoms: C_2  and  C_3
REMARK    3  A    between atoms: C_2  and  C_4
REMARK    4  A    between atoms: C_2  and  C_5
REMARK    5  A    between atoms: C_5  and  C_7
REMARK    6  A    between atoms: C_8  and  C_9
REMARK    7  A    between atoms: C_17  and  C_18
REMARK                            x       y       z     vdW  Elec       q    Type
REMARK                         _______ _______ _______ _____ _____    ______ ____
ROOT
ATOM      1  C   UNL     1      -1.282  11.224  20.852  0.00  0.00    +0.000 C 
ATOM      2  C   UNL     1      -1.229  12.739  21.387  0.00  0.00    +0.000 C 
ATOM      3  C   UNL     1      -1.622  13.572  20.154  0.00  0.00    +0.000 C 
ATOM      4  N   UNL     1      -0.330  13.977  19.484  0.00  0.00    +0.000 NA
ATOM      5  C   UNL     1      -0.476  15.230  19.221  0.00  0.00    +0.000 C 
ATOM      6  O   UNL     1      -1.612  15.834  19.582  0.00  0.00    +0.000 OA
ATOM      7  C   UNL     1      -2.377  14.900  20.201  0.00  0.00    +0.000 C 
ATOM      8  O   UNL     1      -3.475  15.167  20.657  0.00  0.00    +0.000 OA
ATOM      9  C   UNL     1      -2.337  12.592  19.244  0.00  0.00    +0.000 C 
ATOM     10  C   UNL     1      -3.798  12.253  19.319  0.00  0.00    +0.000 A 
ATOM     11  C   UNL     1      -4.774  12.679  20.206  0.00  0.00    +0.000 A 
ATOM     12  C   UNL     1      -6.118  12.479  19.886  0.00  0.00    +0.000 A 
ATOM     13  C   UNL     1      -6.472  11.863  18.683  0.00  0.00    +0.000 A 
ATOM     14  C   UNL     1      -5.491  11.253  17.901  0.00  0.00    +0.000 A 
ATOM     15  C   UNL     1      -4.168  11.364  18.311  0.00  0.00    +0.000 A 
ATOM     16  C   UNL     1      -3.105  10.381  17.958  0.00  0.00    +0.000 C 
ATOM     17  N   UNL     1      -1.955  10.278  18.587  0.00  0.00    +0.000 NA
ATOM     18  N   UNL     1      -1.600  11.334  19.396  0.00  0.00    +0.000 N 
ENDROOT
BRANCH   2  19
ATOM     19  C   UNL     1      -1.924  13.125  22.698  0.00  0.00    +0.000 A 
ATOM     20  C   UNL     1      -1.568  14.218  23.494  0.00  0.00    +0.000 A 
ATOM     21  C   UNL     1      -2.302  14.531  24.644  0.00  0.00    +0.000 A 
ATOM     22  C   UNL     1      -3.396  13.756  25.032  0.00  0.00    +0.000 A 
ATOM     23  C   UNL     1      -3.777  12.679  24.254  0.00  0.00    +0.000 A 
ATOM     24  C   UNL     1      -3.067  12.386  23.089  0.00  0.00    +0.000 A 
ENDBRANCH   2  19
BRANCH   5  25
ATOM     25  C   UNL     1       0.507  16.104  18.574  0.00  0.00    +0.000 A 
ATOM     26  C   UNL     1       1.857  15.733  18.578  0.00  0.00    +0.000 A 
ATOM     27  C   UNL     1       2.815  16.581  18.025  0.00  0.00    +0.000 A 
ATOM     28  C   UNL     1       2.431  17.802  17.471  0.00  0.00    +0.000 A 
ATOM     29  C   UNL     1       1.084  18.163  17.442  0.00  0.00    +0.000 A 
ATOM     30  C   UNL     1       0.120  17.321  17.992  0.00  0.00    +0.000 A 
ENDBRANCH   5  25
BRANCH   1  31
ATOM     31  C   UNL     1       0.108  10.564  21.040  0.00  0.00    +0.000 C 
ATOM     32  O   UNL     1       1.082  10.954  20.384  0.00  0.00    +0.000 OA
BRANCH  31  34
ATOM     33  C   UNL     1      -0.443   8.145  21.459  0.00  0.00    +0.000 C 
ATOM     34  C   UNL     1       0.307   9.376  22.026  0.00  0.00    +0.000 C 
ATOM     35  C   UNL     1      -0.325   9.724  23.379  0.00  0.00    +0.000 C 
ATOM     36  C   UNL     1       1.769   8.963  22.219  0.00  0.00    +0.000 C 
ENDBRANCH  31  34
ENDBRANCH   1  31
TORSDOF 4
ENDMDL
MODEL 6
REMARK VINA RESULT:      -6.9      1.813      5.657
REMARK  Name = 
REMARK  7 active torsions:
REMARK  status: ('A' for Active; 'I' for Inactive)
REMARK    1  A    between atoms: C_1  and  C_2
REMARK    2  A    between atoms: C_2  and  C_3
REMARK    3  A    between atoms: C_2  and  C_4
REMARK    4  A    between atoms: C_2  and  C_5
REMARK    5  A    between atoms: C_5  and  C_7
REMARK    6  A    between atoms: C_8  and  C_9
REMARK    7  A    between atoms: C_17  and  C_18
REMARK                            x       y       z     vdW  Elec       q    Type
REMARK                         _______ _______ _______ _____ _____    ______ ____
ROOT
ATOM      1  C   UNL     1      -3.500  12.189  20.505  0.00  0.00    +0.000 C 
ATOM      2  C   UNL     1      -2.748  12.474  19.113  0.00  0.00    +0.000 C 
ATOM      3  C   UNL     1      -1.312  12.823  19.542  0.00  0.00    +0.000 C 
ATOM      4  N   UNL     1      -1.254  14.328  19.649  0.00  0.00    +0.000 NA
ATOM      5  C   UNL     1      -0.163  14.658  19.049  0.00  0.00    +0.000 C 
ATOM      6  O   UNL     1       0.586  13.695  18.503  0.00  0.00    +0.000 OA
ATOM      7  C   UNL     1      -0.058  12.521  18.723  0.00  0.00    +0.000 C 
ATOM      8  O   UNL     1       0.384  11.459  18.320  0.00  0.00    +0.000 OA
ATOM      9  C   UNL     1      -1.181  12.246  20.938  0.00  0.00    +0.000 C 
ATOM     10  C   UNL     1      -0.792  10.831  21.254  0.00  0.00    +0.000 A 
ATOM     11  C   UNL     1      -0.529   9.763  20.411  0.00  0.00    +0.000 A 
ATOM     12  C   UNL     1       0.119   8.637  20.922  0.00  0.00    +0.000 A 
ATOM     13  C   UNL     1       0.501   8.592  22.266  0.00  0.00    +0.000 A 
ATOM     14  C   UNL     1       0.048   9.573  23.148  0.00  0.00    +0.000 A 
ATOM     15  C   UNL     1      -0.701  10.621  22.630  0.00  0.00    +0.000 A 
ATOM     16  C   UNL     1      -1.687  11.408  23.423  0.00  0.00    +0.000 C 
ATOM     17  N   UNL     1      -2.628  12.161  22.896  0.00  0.00    +0.000 NA
ATOM     18  N   UNL     1      -2.486  12.479  21.563  0.00  0.00    +0.000 N 
ENDROOT
BRANCH   2  19
ATOM     19  C   UNL     1      -2.871  11.486  17.947  0.00  0.00    +0.000 A 
ATOM     20  C   UNL     1      -2.665  11.813  16.603  0.00  0.00    +0.000 A 
ATOM     21  C   UNL     1      -2.737  10.828  15.611  0.00  0.00    +0.000 A 
ATOM     22  C   UNL     1      -3.029   9.501  15.934  0.00  0.00    +0.000 A 
ATOM     23  C   UNL     1      -3.223   9.150  17.256  0.00  0.00    +0.000 A 
ATOM     24  C   UNL     1      -3.118  10.125  18.250  0.00  0.00    +0.000 A 
ENDBRANCH   2  19
BRANCH   5  25
ATOM     25  C   UNL     1       0.355  16.017  18.867  0.00  0.00    +0.000 A 
ATOM     26  C   UNL     1       1.589  16.358  19.433  0.00  0.00    +0.000 A 
ATOM     27  C   UNL     1       2.069  17.663  19.326  0.00  0.00    +0.000 A 
ATOM     28  C   UNL     1       1.318  18.631  18.660  0.00  0.00    +0.000 A 
ATOM     29  C   UNL     1       0.100  18.289  18.074  0.00  0.00    +0.000 A 
ATOM     30  C   UNL     1      -0.387  16.987  18.174  0.00  0.00    +0.000 A 
ENDBRANCH   5  25
BRANCH   1  31
ATOM     31  C   UNL     1      -4.703  13.157  20.647  0.00  0.00    +0.000 C 
ATOM     32  O   UNL     1      -4.578  14.228  21.256  0.00  0.00    +0.000 OA
BRANCH  31  34
ATOM     33  C   UNL     1      -6.185  13.366  18.625  0.00  0.00    +0.000 C 
ATOM     34  C   UNL     1      -6.099  12.796  20.063  0.00  0.00    +0.000 C 
ATOM     35  C   UNL     1      -7.193  13.471  20.897  0.00  0.00    +0.000 C 
ATOM     36  C   UNL     1      -6.365  11.291  19.966  0.00  0.00    +0.000 C 
ENDBRANCH  31  34
ENDBRANCH   1  31
TORSDOF 4
ENDMDL
MODEL 7
REMARK VINA RESULT:      -6.8      7.690     11.478
REMARK  Name = 
REMARK  7 active torsions:
REMARK  status: ('A' for Active; 'I' for Inactive)
REMARK    1  A    between atoms: C_1  and  C_2
REMARK    2  A    between atoms: C_2  and  C_3
REMARK    3  A    between atoms: C_2  and  C_4
REMARK    4  A    between atoms: C_2  and  C_5
REMARK    5  A    between atoms: C_5  and  C_7
REMARK    6  A    between atoms: C_8  and  C_9
REMARK    7  A    between atoms: C_17  and  C_18
REMARK                            x       y       z     vdW  Elec       q    Type
REMARK                         _______ _______ _______ _____ _____    ______ ____
ROOT
ATOM      1  C   UNL     1       9.717  13.634  20.736  0.00  0.00    +0.000 C 
ATOM      2  C   UNL     1       9.233  15.156  20.561  0.00  0.00    +0.000 C 
ATOM      3  C   UNL     1       7.825  15.161  21.182  0.00  0.00    +0.000 C 
ATOM      4  N   UNL     1       6.858  14.936  20.043  0.00  0.00    +0.000 NA
ATOM      5  C   UNL     1       5.929  15.811  20.224  0.00  0.00    +0.000 C 
ATOM      6  O   UNL     1       6.029  16.649  21.260  0.00  0.00    +0.000 OA
ATOM      7  C   UNL     1       7.190  16.353  21.897  0.00  0.00    +0.000 C 
ATOM      8  O   UNL     1       7.560  16.970  22.881  0.00  0.00    +0.000 OA
ATOM      9  C   UNL     1       7.797  13.934  22.072  0.00  0.00    +0.000 C 
ATOM     10  C   UNL     1       8.280  13.889  23.493  0.00  0.00    +0.000 A 
ATOM     11  C   UNL     1       8.878  14.869  24.270  0.00  0.00    +0.000 A 
ATOM     12  C   UNL     1       8.949  14.692  25.653  0.00  0.00    +0.000 A 
ATOM     13  C   UNL     1       8.418  13.542  26.245  0.00  0.00    +0.000 A 
ATOM     14  C   UNL     1       8.012  12.475  25.444  0.00  0.00    +0.000 A 
ATOM     15  C   UNL     1       8.068  12.635  24.065  0.00  0.00    +0.000 A 
ATOM     16  C   UNL     1       8.209  11.506  23.103  0.00  0.00    +0.000 C 
ATOM     17  N   UNL     1       8.592  11.643  21.852  0.00  0.00    +0.000 NA
ATOM     18  N   UNL     1       8.551  12.918  21.333  0.00  0.00    +0.000 N 
ENDROOT
BRANCH   2  19
ATOM     19  C   UNL     1      10.146  16.315  20.979  0.00  0.00    +0.000 A 
ATOM     20  C   UNL     1      11.009  16.291  22.079  0.00  0.00    +0.000 A 
ATOM     21  C   UNL     1      11.854  17.374  22.347  0.00  0.00    +0.000 A 
ATOM     22  C   UNL     1      11.849  18.509  21.533  0.00  0.00    +0.000 A 
ATOM     23  C   UNL     1      11.016  18.551  20.431  0.00  0.00    +0.000 A 
ATOM     24  C   UNL     1      10.197  17.457  20.143  0.00  0.00    +0.000 A 
ENDBRANCH   2  19
BRANCH   5  25
ATOM     25  C   UNL     1       4.749  16.015  19.380  0.00  0.00    +0.000 A 
ATOM     26  C   UNL     1       4.692  15.396  18.126  0.00  0.00    +0.000 A 
ATOM     27  C   UNL     1       3.608  15.629  17.280  0.00  0.00    +0.000 A 
ATOM     28  C   UNL     1       2.581  16.484  17.681  0.00  0.00    +0.000 A 
ATOM     29  C   UNL     1       2.622  17.083  18.940  0.00  0.00    +0.000 A 
ATOM     30  C   UNL     1       3.701  16.854  19.791  0.00  0.00    +0.000 A 
ENDBRANCH   5  25
BRANCH   1  31
ATOM     31  C   UNL     1      10.046  13.036  19.342  0.00  0.00    +0.000 C 
ATOM     32  O   UNL     1       9.137  12.658  18.592  0.00  0.00    +0.000 OA
BRANCH  31  34
ATOM     33  C   UNL     1      11.500  12.248  17.447  0.00  0.00    +0.000 C 
ATOM     34  C   UNL     1      11.518  12.865  18.868  0.00  0.00    +0.000 C 
ATOM     35  C   UNL     1      12.242  11.880  19.794  0.00  0.00    +0.000 C 
ATOM     36  C   UNL     1      12.302  14.177  18.779  0.00  0.00    +0.000 C 
ENDBRANCH  31  34
ENDBRANCH   1  31
TORSDOF 4
ENDMDL
MODEL 8
REMARK VINA RESULT:      -6.8      2.360      5.782
REMARK  Name = 
REMARK  7 active torsions:
REMARK  status: ('A' for Active; 'I' for Inactive)
REMARK    1  A    between atoms: C_1  and  C_2
REMARK    2  A    between atoms: C_2  and  C_3
REMARK    3  A    between atoms: C_2  and  C_4
REMARK    4  A    between atoms: C_2  and  C_5
REMARK    5  A    between atoms: C_5  and  C_7
REMARK    6  A    between atoms: C_8  and  C_9
REMARK    7  A    between atoms: C_17  and  C_18
REMARK                            x       y       z     vdW  Elec       q    Type
REMARK                         _______ _______ _______ _____ _____    ______ ____
ROOT
ATOM      1  C   UNL     1      -3.729  14.915  21.866  0.00  0.00    +0.000 C 
ATOM      2  C   UNL     1      -2.345  14.364  21.260  0.00  0.00    +0.000 C 
ATOM      3  C   UNL     1      -1.398  15.572  21.369  0.00  0.00    +0.000 C 
ATOM      4  N   UNL     1      -1.462  16.285  20.038  0.00  0.00    +0.000 NA
ATOM      5  C   UNL     1      -0.234  16.527  19.736  0.00  0.00    +0.000 C 
ATOM      6  O   UNL     1       0.726  16.117  20.571  0.00  0.00    +0.000 OA
ATOM      7  C   UNL     1       0.110  15.481  21.599  0.00  0.00    +0.000 C 
ATOM      8  O   UNL     1       0.739  14.981  22.516  0.00  0.00    +0.000 OA
ATOM      9  C   UNL     1      -2.038  16.466  22.413  0.00  0.00    +0.000 C 
ATOM     10  C   UNL     1      -1.836  16.340  23.895  0.00  0.00    +0.000 A 
ATOM     11  C   UNL     1      -1.114  15.412  24.629  0.00  0.00    +0.000 A 
ATOM     12  C   UNL     1      -0.814  15.684  25.965  0.00  0.00    +0.000 A 
ATOM     13  C   UNL     1      -1.235  16.881  26.552  0.00  0.00    +0.000 A 
ATOM     14  C   UNL     1      -2.135  17.706  25.877  0.00  0.00    +0.000 A 
ATOM     15  C   UNL     1      -2.511  17.344  24.589  0.00  0.00    +0.000 A 
ATOM     16  C   UNL     1      -3.799  17.748  23.957  0.00  0.00    +0.000 C 
ATOM     17  N   UNL     1      -4.320  17.164  22.900  0.00  0.00    +0.000 NA
ATOM     18  N   UNL     1      -3.479  16.356  22.168  0.00  0.00    +0.000 N 
ENDROOT
BRANCH   2  19
ATOM     19  C   UNL     1      -1.769  13.024  21.731  0.00  0.00    +0.000 A 
ATOM     20  C   UNL     1      -2.044  12.431  22.967  0.00  0.00    +0.000 A 
ATOM     21  C   UNL     1      -1.522  11.172  23.285  0.00  0.00    +0.000 A 
ATOM     22  C   UNL     1      -0.706  10.483  22.386  0.00  0.00    +0.000 A 
ATOM     23  C   UNL     1      -0.431  11.041  21.152  0.00  0.00    +0.000 A 
ATOM     24  C   UNL     1      -0.979  12.282  20.820  0.00  0.00    +0.000 A 
ENDBRANCH   2  19
BRANCH   5  25
ATOM     25  C   UNL     1       0.249  17.201  18.527  0.00  0.00    +0.000 A 
ATOM     26  C   UNL     1      -0.649  17.951  17.760  0.00  0.00    +0.000 A 
ATOM     27  C   UNL     1      -0.225  18.546  16.572  0.00  0.00    +0.000 A 
ATOM     28  C   UNL     1       1.093  18.389  16.145  0.00  0.00    +0.000 A 
ATOM     29  C   UNL     1       1.998  17.663  16.919  0.00  0.00    +0.000 A 
ATOM     30  C   UNL     1       1.582  17.066  18.108  0.00  0.00    +0.000 A 
ENDBRANCH   5  25
BRANCH   1  31
ATOM     31  C   UNL     1      -4.845  14.786  20.796  0.00  0.00    +0.000 C 
ATOM     32  O   UNL     1      -5.103  15.733  20.042  0.00  0.00    +0.000 OA
BRANCH  31  34
ATOM     33  C   UNL     1      -5.007  12.566  19.623  0.00  0.00    +0.000 C 
ATOM     34  C   UNL     1      -5.689  13.485  20.668  0.00  0.00    +0.000 C 
ATOM     35  C   UNL     1      -7.086  13.832  20.141  0.00  0.00    +0.000 C 
ATOM     36  C   UNL     1      -5.801  12.682  21.967  0.00  0.00    +0.000 C 
ENDBRANCH  31  34
ENDBRANCH   1  31
TORSDOF 4
ENDMDL
MODEL 9
REMARK VINA RESULT:      -6.7      7.706     11.478
REMARK  Name = 
REMARK  7 active torsions:
REMARK  status: ('A' for Active; 'I' for Inactive)
REMARK    1  A    between atoms: C_1  and  C_2
REMARK    2  A    between atoms: C_2  and  C_3
REMARK    3  A    between atoms: C_2  and  C_4
REMARK    4  A    between atoms: C_2  and  C_5
REMARK    5  A    between atoms: C_5  and  C_7
REMARK    6  A    between atoms: C_8  and  C_9
REMARK    7  A    between atoms: C_17  and  C_18
REMARK                            x       y       z     vdW  Elec       q    Type
REMARK                         _______ _______ _______ _____ _____    ______ ____
ROOT
ATOM      1  C   UNL     1       9.666  13.676  20.767  0.00  0.00    +0.000 C 
ATOM      2  C   UNL     1       9.217  15.208  20.577  0.00  0.00    +0.000 C 
ATOM      3  C   UNL     1       7.822  15.259  21.224  0.00  0.00    +0.000 C 
ATOM      4  N   UNL     1       6.827  15.042  20.108  0.00  0.00    +0.000 NA
ATOM      5  C   UNL     1       5.925  15.943  20.293  0.00  0.00    +0.000 C 
ATOM      6  O   UNL     1       6.067  16.794  21.313  0.00  0.00    +0.000 OA
ATOM      7  C   UNL     1       7.232  16.478  21.933  0.00  0.00    +0.000 C 
ATOM      8  O   UNL     1       7.637  17.101  22.899  0.00  0.00    +0.000 OA
ATOM      9  C   UNL     1       7.780  14.048  22.135  0.00  0.00    +0.000 C 
ATOM     10  C   UNL     1       8.289  14.012  23.547  0.00  0.00    +0.000 A 
ATOM     11  C   UNL     1       8.928  14.988  24.296  0.00  0.00    +0.000 A 
ATOM     12  C   UNL     1       9.022  14.831  25.680  0.00  0.00    +0.000 A 
ATOM     13  C   UNL     1       8.473  13.704  26.300  0.00  0.00    +0.000 A 
ATOM     14  C   UNL     1       8.023  12.635  25.525  0.00  0.00    +0.000 A 
ATOM     15  C   UNL     1       8.056  12.773  24.143  0.00  0.00    +0.000 A 
ATOM     16  C   UNL     1       8.149  11.626  23.197  0.00  0.00    +0.000 C 
ATOM     17  N   UNL     1       8.511  11.733  21.936  0.00  0.00    +0.000 NA
ATOM     18  N   UNL     1       8.493  13.000  21.398  0.00  0.00    +0.000 N 
ENDROOT
BRANCH   2  19
ATOM     19  C   UNL     1      10.168  16.349  20.958  0.00  0.00    +0.000 A 
ATOM     20  C   UNL     1      11.114  16.286  21.986  0.00  0.00    +0.000 A 
ATOM     21  C   UNL     1      11.984  17.356  22.221  0.00  0.00    +0.000 A 
ATOM     22  C   UNL     1      11.923  18.516  21.446  0.00  0.00    +0.000 A 
ATOM     23  C   UNL     1      11.007  18.598  20.415  0.00  0.00    +0.000 A 
ATOM     24  C   UNL     1      10.161  17.517  20.158  0.00  0.00    +0.000 A 
ENDBRANCH   2  19
BRANCH   5  25
ATOM     25  C   UNL     1       4.734  16.165  19.468  0.00  0.00    +0.000 A 
ATOM     26  C   UNL     1       3.673  16.914  19.990  0.00  0.00    +0.000 A 
ATOM     27  C   UNL     1       2.506  17.083  19.247  0.00  0.00    +0.000 A 
ATOM     28  C   UNL     1       2.391  16.499  17.985  0.00  0.00    +0.000 A 
ATOM     29  C   UNL     1       3.455  15.773  17.452  0.00  0.00    +0.000 A 
ATOM     30  C   UNL     1       4.626  15.600  18.187  0.00  0.00    +0.000 A 
ENDBRANCH   5  25
BRANCH   1  31
ATOM     31  C   UNL     1       9.951  13.048  19.377  0.00  0.00    +0.000 C 
ATOM     32  O   UNL     1       9.018  12.754  18.618  0.00  0.00    +0.000 OA
BRANCH  31  34
ATOM     33  C   UNL     1      12.111  11.943  20.041  0.00  0.00    +0.000 C 
ATOM     34  C   UNL     1      11.406  12.742  18.917  0.00  0.00    +0.000 C 
ATOM     35  C   UNL     1      12.170  14.057  18.730  0.00  0.00    +0.000 C 
ATOM     36  C   UNL     1      11.492  11.897  17.643  0.00  0.00    +0.000 C 
ENDBRANCH  31  34
ENDBRANCH   1  31
TORSDOF 4
ENDMDL
