MODEL 1
REMARK VINA RESULT:      -7.7      0.000      0.000
REMARK  Name = 
REMARK  8 active torsions:
REMARK  status: ('A' for Active; 'I' for Inactive)
REMARK    1  A    between atoms: C_1  and  C_2
REMARK    2  A    between atoms: C_2  and  C_3
REMARK    3  A    between atoms: C_3  and  C_4
REMARK    4  A    between atoms: C_4  and  C_5
REMARK    5  A    between atoms: N_7  and  C_8
REMARK    6  A    between atoms: C_10  and  C_11
REMARK    7  A    between atoms: C_22  and  O_23
REMARK    8  A    between atoms: O_23  and  C_24
REMARK                            x       y       z     vdW  Elec       q    Type
REMARK                         _______ _______ _______ _____ _____    ______ ____
ROOT
ATOM      1  C   UNL     1       3.997   4.922  18.449  0.00  0.00    +0.000 A 
ATOM      2  C   UNL     1       3.414   6.187  18.713  0.00  0.00    +0.000 A 
ATOM      3  C   UNL     1       2.491   6.329  19.757  0.00  0.00    +0.000 A 
ATOM      4  C   UNL     1       2.187   5.185  20.532  0.00  0.00    +0.000 A 
ATOM      5  C   UNL     1       2.765   3.948  20.283  0.00  0.00    +0.000 A 
ATOM      6  C   UNL     1       3.673   3.810  19.243  0.00  0.00    +0.000 A 
ENDROOT
BRANCH   3   7
ATOM      7  C   UNL     1       1.777   7.555  20.138  0.00  0.00    +0.000 A 
ATOM      8  N   UNL     1       1.210   7.757  21.313  0.00  0.00    +0.000 NA
ATOM      9  C   UNL     1       0.715   9.019  21.241  0.00  0.00    +0.000 A 
ATOM     10  C   UNL     1       0.035   9.767  22.209  0.00  0.00    +0.000 A 
ATOM     11  C   UNL     1      -0.366  11.063  21.884  0.00  0.00    +0.000 A 
ATOM     12  C   UNL     1      -0.091  11.590  20.611  0.00  0.00    +0.000 A 
ATOM     13  C   UNL     1       0.588  10.848  19.628  0.00  0.00    +0.000 A 
ATOM     14  C   UNL     1       0.976   9.560  19.996  0.00  0.00    +0.000 A 
ATOM     15  O   UNL     1       1.665   8.613  19.262  0.00  0.00    +0.000 OA
ENDBRANCH   3   7
BRANCH   1  18
ATOM     16  C   UNL     1       6.229   4.650  17.480  0.00  0.00    +0.000 C 
ATOM     17  O   UNL     1       6.843   4.737  18.539  0.00  0.00    +0.000 OA
ATOM     18  N   UNL     1       4.857   4.732  17.346  0.00  0.00    +0.000 N 
ATOM     19  H   UNL     1       4.450   4.245  16.551  0.00  0.00    +0.000 HD
BRANCH  16  20
ATOM     20  C   UNL     1       6.950   4.395  16.170  0.00  0.00    +0.000 C 
BRANCH  20  21
ATOM     21  C   UNL     1       5.997   3.953  15.064  0.00  0.00    +0.000 C 
BRANCH  21  23
ATOM     22  C   UNL     1       5.816   3.421  12.606  0.00  0.00    +0.000 C 
ATOM     23  C   UNL     1       6.589   4.179  13.670  0.00  0.00    +0.000 C 
ENDBRANCH  21  23
ENDBRANCH  20  21
ENDBRANCH  16  20
ENDBRANCH   1  18
BRANCH   6  24
ATOM     24  O   UNL     1       4.156   2.542  19.044  0.00  0.00    +0.000 OA
ATOM     25  C   UNL     1       3.255   1.654  18.382  0.00  0.00    +0.000 C 
ENDBRANCH   6  24
TORSDOF 6
ENDMDL
MODEL 2
REMARK VINA RESULT:      -7.7      0.911      1.448
REMARK  Name = 
REMARK  8 active torsions:
REMARK  status: ('A' for Active; 'I' for Inactive)
REMARK    1  A    between atoms: C_1  and  C_2
REMARK    2  A    between atoms: C_2  and  C_3
REMARK    3  A    between atoms: C_3  and  C_4
REMARK    4  A    between atoms: C_4  and  C_5
REMARK    5  A    between atoms: N_7  and  C_8
REMARK    6  A    between atoms: C_10  and  C_11
REMARK    7  A    between atoms: C_22  and  O_23
REMARK    8  A    between atoms: O_23  and  C_24
REMARK                            x       y       z     vdW  Elec       q    Type
REMARK                         _______ _______ _______ _____ _____    ______ ____
ROOT
ATOM      1  C   UNL     1       3.945   5.028  19.039  0.00  0.00    +0.000 A 
ATOM      2  C   UNL     1       3.421   6.322  19.283  0.00  0.00    +0.000 A 
ATOM      3  C   UNL     1       2.299   6.479  20.109  0.00  0.00    +0.000 A 
ATOM      4  C   UNL     1       1.737   5.319  20.690  0.00  0.00    +0.000 A 
ATOM      5  C   UNL     1       2.255   4.051  20.461  0.00  0.00    +0.000 A 
ATOM      6  C   UNL     1       3.361   3.899  19.637  0.00  0.00    +0.000 A 
ENDROOT
BRANCH   3   7
ATOM      7  C   UNL     1       1.619   7.739  20.435  0.00  0.00    +0.000 A 
ATOM      8  N   UNL     1       1.440   8.736  19.586  0.00  0.00    +0.000 NA
ATOM      9  C   UNL     1       0.738   9.660  20.288  0.00  0.00    +0.000 A 
ATOM     10  C   UNL     1       0.251  10.908  19.881  0.00  0.00    +0.000 A 
ATOM     11  C   UNL     1      -0.459  11.675  20.804  0.00  0.00    +0.000 A 
ATOM     12  C   UNL     1      -0.668  11.198  22.110  0.00  0.00    +0.000 A 
ATOM     13  C   UNL     1      -0.180   9.949  22.533  0.00  0.00    +0.000 A 
ATOM     14  C   UNL     1       0.518   9.211  21.577  0.00  0.00    +0.000 A 
ATOM     15  O   UNL     1       1.092   7.959  21.689  0.00  0.00    +0.000 OA
ENDBRANCH   3   7
BRANCH   1  18
ATOM     16  C   UNL     1       6.336   4.940  18.522  0.00  0.00    +0.000 C 
ATOM     17  O   UNL     1       6.725   5.214  19.652  0.00  0.00    +0.000 OA
ATOM     18  N   UNL     1       5.014   4.833  18.138  0.00  0.00    +0.000 N 
ATOM     19  H   UNL     1       4.819   4.218  17.352  0.00  0.00    +0.000 HD
BRANCH  16  20
ATOM     20  C   UNL     1       7.316   4.642  17.403  0.00  0.00    +0.000 C 
BRANCH  20  21
ATOM     21  C   UNL     1       6.757   5.014  16.032  0.00  0.00    +0.000 C 
BRANCH  21  23
ATOM     22  C   UNL     1       6.235   4.040  13.767  0.00  0.00    +0.000 C 
ATOM     23  C   UNL     1       6.259   3.787  15.263  0.00  0.00    +0.000 C 
ENDBRANCH  21  23
ENDBRANCH  20  21
ENDBRANCH  16  20
ENDBRANCH   1  18
BRANCH   6  24
ATOM     24  O   UNL     1       3.773   2.608  19.432  0.00  0.00    +0.000 OA
ATOM     25  C   UNL     1       3.012   1.880  18.467  0.00  0.00    +0.000 C 
ENDBRANCH   6  24
TORSDOF 6
ENDMDL
MODEL 3
REMARK VINA RESULT:      -7.6      0.908      1.348
REMARK  Name = 
REMARK  8 active torsions:
REMARK  status: ('A' for Active; 'I' for Inactive)
REMARK    1  A    between atoms: C_1  and  C_2
REMARK    2  A    between atoms: C_2  and  C_3
REMARK    3  A    between atoms: C_3  and  C_4
REMARK    4  A    between atoms: C_4  and  C_5
REMARK    5  A    between atoms: N_7  and  C_8
REMARK    6  A    between atoms: C_10  and  C_11
REMARK    7  A    between atoms: C_22  and  O_23
REMARK    8  A    between atoms: O_23  and  C_24
REMARK                            x       y       z     vdW  Elec       q    Type
REMARK                         _______ _______ _______ _____ _____    ______ ____
ROOT
ATOM      1  C   UNL     1       3.942   5.064  17.795  0.00  0.00    +0.000 A 
ATOM      2  C   UNL     1       3.404   6.297  18.240  0.00  0.00    +0.000 A 
ATOM      3  C   UNL     1       2.556   6.330  19.356  0.00  0.00    +0.000 A 
ATOM      4  C   UNL     1       2.281   5.109  20.014  0.00  0.00    +0.000 A 
ATOM      5  C   UNL     1       2.815   3.901  19.587  0.00  0.00    +0.000 A 
ATOM      6  C   UNL     1       3.648   3.872  18.477  0.00  0.00    +0.000 A 
ENDROOT
BRANCH   3   7
ATOM      7  C   UNL     1       1.895   7.513  19.922  0.00  0.00    +0.000 A 
ATOM      8  N   UNL     1       1.668   8.633  19.259  0.00  0.00    +0.000 NA
ATOM      9  C   UNL     1       1.007   9.424  20.142  0.00  0.00    +0.000 A 
ATOM     10  C   UNL     1       0.497  10.716  19.973  0.00  0.00    +0.000 A 
ATOM     11  C   UNL     1      -0.159  11.316  21.048  0.00  0.00    +0.000 A 
ATOM     12  C   UNL     1      -0.292  10.629  22.268  0.00  0.00    +0.000 A 
ATOM     13  C   UNL     1       0.220   9.333  22.452  0.00  0.00    +0.000 A 
ATOM     14  C   UNL     1       0.862   8.768  21.350  0.00  0.00    +0.000 A 
ATOM     15  O   UNL     1       1.442   7.520  21.223  0.00  0.00    +0.000 OA
ENDBRANCH   3   7
BRANCH   1  18
ATOM     16  C   UNL     1       6.101   4.933  16.648  0.00  0.00    +0.000 C 
ATOM     17  O   UNL     1       6.789   4.944  17.663  0.00  0.00    +0.000 OA
ATOM     18  N   UNL     1       4.722   4.991  16.620  0.00  0.00    +0.000 N 
ATOM     19  H   UNL     1       4.266   4.563  15.817  0.00  0.00    +0.000 HD
BRANCH  16  20
ATOM     20  C   UNL     1       6.728   4.809  15.272  0.00  0.00    +0.000 C 
BRANCH  20  21
ATOM     21  C   UNL     1       5.836   4.045  14.298  0.00  0.00    +0.000 C 
BRANCH  21  23
ATOM     22  C   UNL     1       5.657   3.030  11.998  0.00  0.00    +0.000 C 
ATOM     23  C   UNL     1       6.459   3.946  12.904  0.00  0.00    +0.000 C 
ENDBRANCH  21  23
ENDBRANCH  20  21
ENDBRANCH  16  20
ENDBRANCH   1  18
BRANCH   6  24
ATOM     24  O   UNL     1       4.090   2.629  18.102  0.00  0.00    +0.000 OA
ATOM     25  C   UNL     1       3.341   1.538  18.638  0.00  0.00    +0.000 C 
ENDBRANCH   6  24
TORSDOF 6
ENDMDL
MODEL 4
REMARK VINA RESULT:      -7.5      1.788      2.435
REMARK  Name = 
REMARK  8 active torsions:
REMARK  status: ('A' for Active; 'I' for Inactive)
REMARK    1  A    between atoms: C_1  and  C_2
REMARK    2  A    between atoms: C_2  and  C_3
REMARK    3  A    between atoms: C_3  and  C_4
REMARK    4  A    between atoms: C_4  and  C_5
REMARK    5  A    between atoms: N_7  and  C_8
REMARK    6  A    between atoms: C_10  and  C_11
REMARK    7  A    between atoms: C_22  and  O_23
REMARK    8  A    between atoms: O_23  and  C_24
REMARK                            x       y       z     vdW  Elec       q    Type
REMARK                         _______ _______ _______ _____ _____    ______ ____
ROOT
ATOM      1  C   UNL     1       3.783   5.240  19.090  0.00  0.00    +0.000 A 
ATOM      2  C   UNL     1       3.265   6.511  19.443  0.00  0.00    +0.000 A 
ATOM      3  C   UNL     1       2.110   6.603  20.232  0.00  0.00    +0.000 A 
ATOM      4  C   UNL     1       1.508   5.398  20.666  0.00  0.00    +0.000 A 
ATOM      5  C   UNL     1       2.020   4.153  20.331  0.00  0.00    +0.000 A 
ATOM      6  C   UNL     1       3.159   4.066  19.543  0.00  0.00    +0.000 A 
ENDROOT
BRANCH   3   7
ATOM      7  C   UNL     1       1.432   7.834  20.655  0.00  0.00    +0.000 A 
ATOM      8  N   UNL     1       1.230   8.883  19.878  0.00  0.00    +0.000 NA
ATOM      9  C   UNL     1       0.540   9.755  20.656  0.00  0.00    +0.000 A 
ATOM     10  C   UNL     1       0.037  11.024  20.344  0.00  0.00    +0.000 A 
ATOM     11  C   UNL     1      -0.655  11.725  21.331  0.00  0.00    +0.000 A 
ATOM     12  C   UNL     1      -0.833  11.160  22.606  0.00  0.00    +0.000 A 
ATOM     13  C   UNL     1      -0.330   9.889  22.935  0.00  0.00    +0.000 A 
ATOM     14  C   UNL     1       0.350   9.220  21.917  0.00  0.00    +0.000 A 
ATOM     15  O   UNL     1       0.932   7.967  21.933  0.00  0.00    +0.000 OA
ENDBRANCH   3   7
BRANCH   1  18
ATOM     16  C   UNL     1       6.192   5.092  18.676  0.00  0.00    +0.000 C 
ATOM     17  O   UNL     1       6.532   5.172  19.852  0.00  0.00    +0.000 OA
ATOM     18  N   UNL     1       4.889   5.120  18.220  0.00  0.00    +0.000 N 
ATOM     19  H   UNL     1       4.706   4.640  17.341  0.00  0.00    +0.000 HD
BRANCH  16  20
ATOM     20  C   UNL     1       7.215   4.908  17.572  0.00  0.00    +0.000 C 
BRANCH  20  21
ATOM     21  C   UNL     1       7.238   6.088  16.604  0.00  0.00    +0.000 C 
BRANCH  21  23
ATOM     22  C   UNL     1       8.092   8.118  17.831  0.00  0.00    +0.000 C 
ATOM     23  C   UNL     1       6.865   7.403  17.292  0.00  0.00    +0.000 C 
ENDBRANCH  21  23
ENDBRANCH  20  21
ENDBRANCH  16  20
ENDBRANCH   1  18
BRANCH   6  24
ATOM     24  O   UNL     1       3.564   2.795  19.226  0.00  0.00    +0.000 OA
ATOM     25  C   UNL     1       4.385   2.163  20.209  0.00  0.00    +0.000 C 
ENDBRANCH   6  24
TORSDOF 6
ENDMDL
MODEL 5
REMARK VINA RESULT:      -7.5      1.256      1.647
REMARK  Name = 
REMARK  8 active torsions:
REMARK  status: ('A' for Active; 'I' for Inactive)
REMARK    1  A    between atoms: C_1  and  C_2
REMARK    2  A    between atoms: C_2  and  C_3
REMARK    3  A    between atoms: C_3  and  C_4
REMARK    4  A    between atoms: C_4  and  C_5
REMARK    5  A    between atoms: N_7  and  C_8
REMARK    6  A    between atoms: C_10  and  C_11
REMARK    7  A    between atoms: C_22  and  O_23
REMARK    8  A    between atoms: O_23  and  C_24
REMARK                            x       y       z     vdW  Elec       q    Type
REMARK                         _______ _______ _______ _____ _____    ______ ____
ROOT
ATOM      1  C   UNL     1       3.377   5.689  18.383  0.00  0.00    +0.000 A 
ATOM      2  C   UNL     1       2.788   6.906  18.810  0.00  0.00    +0.000 A 
ATOM      3  C   UNL     1       2.028   6.942  19.987  0.00  0.00    +0.000 A 
ATOM      4  C   UNL     1       1.892   5.742  20.724  0.00  0.00    +0.000 A 
ATOM      5  C   UNL     1       2.477   4.552  20.314  0.00  0.00    +0.000 A 
ATOM      6  C   UNL     1       3.223   4.519  19.144  0.00  0.00    +0.000 A 
ENDROOT
BRANCH   3   7
ATOM      7  C   UNL     1       1.329   8.106  20.547  0.00  0.00    +0.000 A 
ATOM      8  N   UNL     1       1.059   9.211  19.875  0.00  0.00    +0.000 NA
ATOM      9  C   UNL     1       0.376   9.986  20.755  0.00  0.00    +0.000 A 
ATOM     10  C   UNL     1      -0.180  11.259  20.578  0.00  0.00    +0.000 A 
ATOM     11  C   UNL     1      -0.850  11.845  21.652  0.00  0.00    +0.000 A 
ATOM     12  C   UNL     1      -0.952  11.165  22.878  0.00  0.00    +0.000 A 
ATOM     13  C   UNL     1      -0.394   9.889  23.071  0.00  0.00    +0.000 A 
ATOM     14  C   UNL     1       0.261   9.337  21.970  0.00  0.00    +0.000 A 
ATOM     15  O   UNL     1       0.884   8.109  21.850  0.00  0.00    +0.000 OA
ENDBRANCH   3   7
BRANCH   1  18
ATOM     16  C   UNL     1       5.397   5.955  17.026  0.00  0.00    +0.000 C 
ATOM     17  O   UNL     1       6.110   6.371  17.933  0.00  0.00    +0.000 OA
ATOM     18  N   UNL     1       4.067   5.606  17.155  0.00  0.00    +0.000 N 
ATOM     19  H   UNL     1       3.716   4.911  16.500  0.00  0.00    +0.000 HD
BRANCH  16  20
ATOM     20  C   UNL     1       5.946   5.740  15.629  0.00  0.00    +0.000 C 
BRANCH  20  21
ATOM     21  C   UNL     1       5.324   4.524  14.946  0.00  0.00    +0.000 C 
BRANCH  21  23
ATOM     22  C   UNL     1       5.915   3.533  12.705  0.00  0.00    +0.000 C 
ATOM     23  C   UNL     1       6.355   3.725  14.145  0.00  0.00    +0.000 C 
ENDBRANCH  21  23
ENDBRANCH  20  21
ENDBRANCH  16  20
ENDBRANCH   1  18
BRANCH   6  24
ATOM     24  O   UNL     1       3.722   3.291  18.795  0.00  0.00    +0.000 OA
ATOM     25  C   UNL     1       4.372   2.585  19.852  0.00  0.00    +0.000 C 
ENDBRANCH   6  24
TORSDOF 6
ENDMDL
MODEL 6
REMARK VINA RESULT:      -7.5      4.399      6.388
REMARK  Name = 
REMARK  8 active torsions:
REMARK  status: ('A' for Active; 'I' for Inactive)
REMARK    1  A    between atoms: C_1  and  C_2
REMARK    2  A    between atoms: C_2  and  C_3
REMARK    3  A    between atoms: C_3  and  C_4
REMARK    4  A    between atoms: C_4  and  C_5
REMARK    5  A    between atoms: N_7  and  C_8
REMARK    6  A    between atoms: C_10  and  C_11
REMARK    7  A    between atoms: C_22  and  O_23
REMARK    8  A    between atoms: O_23  and  C_24
REMARK                            x       y       z     vdW  Elec       q    Type
REMARK                         _______ _______ _______ _____ _____    ______ ____
ROOT
ATOM      1  C   UNL     1       6.674   6.229  16.726  0.00  0.00    +0.000 A 
ATOM      2  C   UNL     1       5.718   5.833  17.695  0.00  0.00    +0.000 A 
ATOM      3  C   UNL     1       5.084   4.589  17.585  0.00  0.00    +0.000 A 
ATOM      4  C   UNL     1       5.443   3.756  16.500  0.00  0.00    +0.000 A 
ATOM      5  C   UNL     1       6.386   4.137  15.556  0.00  0.00    +0.000 A 
ATOM      6  C   UNL     1       7.007   5.373  15.664  0.00  0.00    +0.000 A 
ENDROOT
BRANCH   3   7
ATOM      7  C   UNL     1       4.054   4.046  18.481  0.00  0.00    +0.000 A 
ATOM      8  N   UNL     1       4.254   3.735  19.750  0.00  0.00    +0.000 NA
ATOM      9  C   UNL     1       3.040   3.321  20.194  0.00  0.00    +0.000 A 
ATOM     10  C   UNL     1       2.656   2.894  21.470  0.00  0.00    +0.000 A 
ATOM     11  C   UNL     1       1.327   2.524  21.673  0.00  0.00    +0.000 A 
ATOM     12  C   UNL     1       0.407   2.579  20.612  0.00  0.00    +0.000 A 
ATOM     13  C   UNL     1       0.780   3.001  19.324  0.00  0.00    +0.000 A 
ATOM     14  C   UNL     1       2.117   3.368  19.166  0.00  0.00    +0.000 A 
ATOM     15  O   UNL     1       2.766   3.835  18.039  0.00  0.00    +0.000 OA
ENDBRANCH   3   7
BRANCH   1  18
ATOM     16  C   UNL     1       8.029   7.950  17.821  0.00  0.00    +0.000 C 
ATOM     17  O   UNL     1       8.283   7.295  18.827  0.00  0.00    +0.000 OA
ATOM     18  N   UNL     1       7.258   7.514  16.762  0.00  0.00    +0.000 N 
ATOM     19  H   UNL     1       7.458   7.931  15.855  0.00  0.00    +0.000 HD
BRANCH  16  20
ATOM     20  C   UNL     1       8.595   9.343  17.625  0.00  0.00    +0.000 C 
BRANCH  20  21
ATOM     21  C   UNL     1       9.051   9.971  18.939  0.00  0.00    +0.000 C 
BRANCH  21  23
ATOM     22  C   UNL     1       9.315  12.252  17.899  0.00  0.00    +0.000 C 
ATOM     23  C   UNL     1       9.987  11.161  18.713  0.00  0.00    +0.000 C 
ENDBRANCH  21  23
ENDBRANCH  20  21
ENDBRANCH  16  20
ENDBRANCH   1  18
BRANCH   6  24
ATOM     24  O   UNL     1       7.889   5.682  14.661  0.00  0.00    +0.000 OA
ATOM     25  C   UNL     1       7.580   5.107  13.391  0.00  0.00    +0.000 C 
ENDBRANCH   6  24
TORSDOF 6
ENDMDL
MODEL 7
REMARK VINA RESULT:      -7.4      1.128      1.513
REMARK  Name = 
REMARK  8 active torsions:
REMARK  status: ('A' for Active; 'I' for Inactive)
REMARK    1  A    between atoms: C_1  and  C_2
REMARK    2  A    between atoms: C_2  and  C_3
REMARK    3  A    between atoms: C_3  and  C_4
REMARK    4  A    between atoms: C_4  and  C_5
REMARK    5  A    between atoms: N_7  and  C_8
REMARK    6  A    between atoms: C_10  and  C_11
REMARK    7  A    between atoms: C_22  and  O_23
REMARK    8  A    between atoms: O_23  and  C_24
REMARK                            x       y       z     vdW  Elec       q    Type
REMARK                         _______ _______ _______ _____ _____    ______ ____
ROOT
ATOM      1  C   UNL     1       4.341   4.777  18.938  0.00  0.00    +0.000 A 
ATOM      2  C   UNL     1       3.763   6.058  19.122  0.00  0.00    +0.000 A 
ATOM      3  C   UNL     1       2.623   6.205  19.922  0.00  0.00    +0.000 A 
ATOM      4  C   UNL     1       2.095   5.047  20.540  0.00  0.00    +0.000 A 
ATOM      5  C   UNL     1       2.665   3.793  20.371  0.00  0.00    +0.000 A 
ATOM      6  C   UNL     1       3.790   3.650  19.572  0.00  0.00    +0.000 A 
ENDROOT
BRANCH   3   7
ATOM      7  C   UNL     1       1.889   7.449  20.186  0.00  0.00    +0.000 A 
ATOM      8  N   UNL     1       1.745   8.433  19.316  0.00  0.00    +0.000 NA
ATOM      9  C   UNL     1       0.972   9.345  19.957  0.00  0.00    +0.000 A 
ATOM     10  C   UNL     1       0.483  10.576  19.504  0.00  0.00    +0.000 A 
ATOM     11  C   UNL     1      -0.310  11.332  20.366  0.00  0.00    +0.000 A 
ATOM     12  C   UNL     1      -0.598  10.861  21.659  0.00  0.00    +0.000 A 
ATOM     13  C   UNL     1      -0.109   9.629  22.129  0.00  0.00    +0.000 A 
ATOM     14  C   UNL     1       0.673   8.902  21.232  0.00  0.00    +0.000 A 
ATOM     15  O   UNL     1       1.270   7.666  21.398  0.00  0.00    +0.000 OA
ENDBRANCH   3   7
BRANCH   1  18
ATOM     16  C   UNL     1       5.268   4.282  16.727  0.00  0.00    +0.000 C 
ATOM     17  O   UNL     1       4.190   4.136  16.162  0.00  0.00    +0.000 OA
ATOM     18  N   UNL     1       5.433   4.588  18.063  0.00  0.00    +0.000 N 
ATOM     19  H   UNL     1       6.286   5.084  18.313  0.00  0.00    +0.000 HD
BRANCH  16  20
ATOM     20  C   UNL     1       6.576   4.174  15.966  0.00  0.00    +0.000 C 
BRANCH  20  21
ATOM     21  C   UNL     1       6.476   4.757  14.559  0.00  0.00    +0.000 C 
BRANCH  21  23
ATOM     22  C   UNL     1       6.822   3.925  12.205  0.00  0.00    +0.000 C 
ATOM     23  C   UNL     1       6.102   3.695  13.522  0.00  0.00    +0.000 C 
ENDBRANCH  21  23
ENDBRANCH  20  21
ENDBRANCH  16  20
ENDBRANCH   1  18
BRANCH   6  24
ATOM     24  O   UNL     1       4.255   2.369  19.426  0.00  0.00    +0.000 OA
ATOM     25  C   UNL     1       3.510   1.561  18.514  0.00  0.00    +0.000 C 
ENDBRANCH   6  24
TORSDOF 6
ENDMDL
MODEL 8
REMARK VINA RESULT:      -7.3      4.366      6.518
REMARK  Name = 
REMARK  8 active torsions:
REMARK  status: ('A' for Active; 'I' for Inactive)
REMARK    1  A    between atoms: C_1  and  C_2
REMARK    2  A    between atoms: C_2  and  C_3
REMARK    3  A    between atoms: C_3  and  C_4
REMARK    4  A    between atoms: C_4  and  C_5
REMARK    5  A    between atoms: N_7  and  C_8
REMARK    6  A    between atoms: C_10  and  C_11
REMARK    7  A    between atoms: C_22  and  O_23
REMARK    8  A    between atoms: O_23  and  C_24
REMARK                            x       y       z     vdW  Elec       q    Type
REMARK                         _______ _______ _______ _____ _____    ______ ____
ROOT
ATOM      1  C   UNL     1       6.640   6.265  16.718  0.00  0.00    +0.000 A 
ATOM      2  C   UNL     1       5.654   5.898  17.668  0.00  0.00    +0.000 A 
ATOM      3  C   UNL     1       4.992   4.668  17.551  0.00  0.00    +0.000 A 
ATOM      4  C   UNL     1       5.356   3.820  16.479  0.00  0.00    +0.000 A 
ATOM      5  C   UNL     1       6.329   4.173  15.554  0.00  0.00    +0.000 A 
ATOM      6  C   UNL     1       6.976   5.394  15.668  0.00  0.00    +0.000 A 
ENDROOT
BRANCH   3   7
ATOM      7  C   UNL     1       3.931   4.156  18.427  0.00  0.00    +0.000 A 
ATOM      8  N   UNL     1       2.705   3.868  18.029  0.00  0.00    +0.000 NA
ATOM      9  C   UNL     1       2.088   3.392  19.140  0.00  0.00    +0.000 A 
ATOM     10  C   UNL     1       0.782   2.913  19.299  0.00  0.00    +0.000 A 
ATOM     11  C   UNL     1       0.390   2.466  20.560  0.00  0.00    +0.000 A 
ATOM     12  C   UNL     1       1.292   2.505  21.637  0.00  0.00    +0.000 A 
ATOM     13  C   UNL     1       2.604   2.988  21.493  0.00  0.00    +0.000 A 
ATOM     14  C   UNL     1       2.958   3.419  20.214  0.00  0.00    +0.000 A 
ATOM     15  O   UNL     1       4.164   3.921  19.765  0.00  0.00    +0.000 OA
ENDBRANCH   3   7
BRANCH   1  18
ATOM     16  C   UNL     1       8.021   7.955  17.828  0.00  0.00    +0.000 C 
ATOM     17  O   UNL     1       8.248   7.296  18.837  0.00  0.00    +0.000 OA
ATOM     18  N   UNL     1       7.254   7.536  16.759  0.00  0.00    +0.000 N 
ATOM     19  H   UNL     1       7.474   7.946  15.854  0.00  0.00    +0.000 HD
BRANCH  16  20
ATOM     20  C   UNL     1       8.622   9.334  17.636  0.00  0.00    +0.000 C 
BRANCH  20  21
ATOM     21  C   UNL     1       9.167   9.912  18.940  0.00  0.00    +0.000 C 
BRANCH  21  23
ATOM     22  C   UNL     1      10.805  11.625  19.799  0.00  0.00    +0.000 C 
ATOM     23  C   UNL     1       9.757  11.311  18.746  0.00  0.00    +0.000 C 
ENDBRANCH  21  23
ENDBRANCH  20  21
ENDBRANCH  16  20
ENDBRANCH   1  18
BRANCH   6  24
ATOM     24  O   UNL     1       7.888   5.676  14.684  0.00  0.00    +0.000 OA
ATOM     25  C   UNL     1       7.565   5.145  13.398  0.00  0.00    +0.000 C 
ENDBRANCH   6  24
TORSDOF 6
ENDMDL
MODEL 9
REMARK VINA RESULT:      -7.3      1.708      2.447
REMARK  Name = 
REMARK  8 active torsions:
REMARK  status: ('A' for Active; 'I' for Inactive)
REMARK    1  A    between atoms: C_1  and  C_2
REMARK    2  A    between atoms: C_2  and  C_3
REMARK    3  A    between atoms: C_3  and  C_4
REMARK    4  A    between atoms: C_4  and  C_5
REMARK    5  A    between atoms: N_7  and  C_8
REMARK    6  A    between atoms: C_10  and  C_11
REMARK    7  A    between atoms: C_22  and  O_23
REMARK    8  A    between atoms: O_23  and  C_24
REMARK                            x       y       z     vdW  Elec       q    Type
REMARK                         _______ _______ _______ _____ _____    ______ ____
ROOT
ATOM      1  C   UNL     1       3.779   4.742  19.434  0.00  0.00    +0.000 A 
ATOM      2  C   UNL     1       3.336   6.049  19.758  0.00  0.00    +0.000 A 
ATOM      3  C   UNL     1       2.066   6.241  20.318  0.00  0.00    +0.000 A 
ATOM      4  C   UNL     1       1.269   5.097  20.556  0.00  0.00    +0.000 A 
ATOM      5  C   UNL     1       1.704   3.815  20.250  0.00  0.00    +0.000 A 
ATOM      6  C   UNL     1       2.959   3.630  19.690  0.00  0.00    +0.000 A 
ENDROOT
BRANCH   3   7
ATOM      7  C   UNL     1       1.450   7.524  20.678  0.00  0.00    +0.000 A 
ATOM      8  N   UNL     1       1.418   8.586  19.893  0.00  0.00    +0.000 NA
ATOM      9  C   UNL     1       0.723   9.512  20.601  0.00  0.00    +0.000 A 
ATOM     10  C   UNL     1       0.363  10.819  20.248  0.00  0.00    +0.000 A 
ATOM     11  C   UNL     1      -0.370  11.574  21.163  0.00  0.00    +0.000 A 
ATOM     12  C   UNL     1      -0.727  11.026  22.407  0.00  0.00    +0.000 A 
ATOM     13  C   UNL     1      -0.368   9.718  22.776  0.00  0.00    +0.000 A 
ATOM     14  C   UNL     1       0.358   8.995  21.830  0.00  0.00    +0.000 A 
ATOM     15  O   UNL     1       0.831   7.698  21.897  0.00  0.00    +0.000 OA
ENDBRANCH   3   7
BRANCH   1  18
ATOM     16  C   UNL     1       5.211   4.823  17.450  0.00  0.00    +0.000 C 
ATOM     17  O   UNL     1       4.360   5.280  16.694  0.00  0.00    +0.000 OA
ATOM     18  N   UNL     1       5.014   4.531  18.785  0.00  0.00    +0.000 N 
ATOM     19  H   UNL     1       5.837   4.571  19.384  0.00  0.00    +0.000 HD
BRANCH  16  20
ATOM     20  C   UNL     1       6.628   4.564  16.977  0.00  0.00    +0.000 C 
BRANCH  20  21
ATOM     21  C   UNL     1       7.383   5.857  16.681  0.00  0.00    +0.000 C 
BRANCH  21  23
ATOM     22  C   UNL     1       7.820   8.172  17.577  0.00  0.00    +0.000 C 
ATOM     23  C   UNL     1       7.561   6.719  17.933  0.00  0.00    +0.000 C 
ENDBRANCH  21  23
ENDBRANCH  20  21
ENDBRANCH  16  20
ENDBRANCH   1  18
BRANCH   6  24
ATOM     24  O   UNL     1       3.284   2.335  19.379  0.00  0.00    +0.000 OA
ATOM     25  C   UNL     1       2.890   1.915  18.072  0.00  0.00    +0.000 C 
ENDBRANCH   6  24
TORSDOF 6
ENDMDL
