MODEL 1
REMARK VINA RESULT:      -8.6      0.000      0.000
REMARK  Name = 
REMARK  7 active torsions:
REMARK  status: ('A' for Active; 'I' for Inactive)
REMARK    1  A    between atoms: C_1  and  C_2
REMARK    2  A    between atoms: N_4  and  C_5
REMARK    3  A    between atoms: C_6  and  C_7
REMARK    4  A    between atoms: C_8  and  S_9
REMARK    5  A    between atoms: S_9  and  N_12
REMARK    6  A    between atoms: C_15  and  C_16
REMARK    7  A    between atoms: N_18  and  C_19
REMARK                            x       y       z     vdW  Elec       q    Type
REMARK                         _______ _______ _______ _____ _____    ______ ____
ROOT
ATOM      1  N   UNL     1       5.246   4.845  18.041  0.00  0.00    +0.000 NA
ATOM      2  C   UNL     1       6.077   5.141  16.838  0.00  0.00    +0.000 C 
ATOM      3  C   UNL     1       7.575   5.089  17.141  0.00  0.00    +0.000 C 
ATOM      4  C   UNL     1       7.989   5.939  18.351  0.00  0.00    +0.000 C 
ATOM      5  C   UNL     1       7.137   5.520  19.546  0.00  0.00    +0.000 C 
ATOM      6  C   UNL     1       5.641   5.613  19.259  0.00  0.00    +0.000 C 
ENDROOT
BRANCH   4   7
ATOM      7  C   UNL     1       7.921   7.444  18.056  0.00  0.00    +0.000 C 
ATOM      8  O   UNL     1       7.162   7.875  17.193  0.00  0.00    +0.000 OA
ATOM      9  N   UNL     1       8.805   8.218  18.808  0.00  0.00    +0.000 N 
ATOM     10  H   UNL     1       9.523   7.729  19.329  0.00  0.00    +0.000 HD
BRANCH   9  11
ATOM     11  C   UNL     1       8.880   9.635  18.813  0.00  0.00    +0.000 A 
ATOM     12  C   UNL     1       8.428  10.422  17.750  0.00  0.00    +0.000 A 
ATOM     13  C   UNL     1       8.502  11.817  17.799  0.00  0.00    +0.000 A 
ATOM     14  C   UNL     1       9.028  12.449  18.917  0.00  0.00    +0.000 A 
ATOM     15  C   UNL     1       9.462  11.685  20.002  0.00  0.00    +0.000 A 
ATOM     16  C   UNL     1       9.394  10.284  19.951  0.00  0.00    +0.000 A 
ATOM     17  O   UNL     1       9.974  12.249  21.146  0.00  0.00    +0.000 OA
ATOM     18  C   UNL     1       9.671  13.650  21.226  0.00  0.00    +0.000 C 
ATOM     19  C   UNL     1       9.923  14.347  19.899  0.00  0.00    +0.000 C 
ATOM     20  O   UNL     1       9.071  13.818  18.880  0.00  0.00    +0.000 OA
ENDBRANCH   9  11
ENDBRANCH   4   7
BRANCH   1  21
ATOM     21  S   UNL     1       3.544   5.046  17.726  0.00  0.00    +0.000 S 
ATOM     22  O   UNL     1       3.160   4.059  16.738  0.00  0.00    +0.000 OA
ATOM     23  O   UNL     1       3.301   6.456  17.512  0.00  0.00    +0.000 OA
BRANCH  21  31
ATOM     24  C   UNL     1       2.067   7.066  20.110  0.00  0.00    +0.000 C 
ATOM     25  C   UNL     1       2.087   5.581  20.084  0.00  0.00    +0.000 A 
ATOM     26  N   UNL     1       1.486   4.921  21.085  0.00  0.00    +0.000 NA
ATOM     27  N   UNL     1       1.705   3.623  20.816  0.00  0.00    +0.000 N 
ATOM     28  C   UNL     1       1.257   2.635  21.771  0.00  0.00    +0.000 C 
ATOM     29  C   UNL     1       2.363   3.411  19.634  0.00  0.00    +0.000 A 
ATOM     30  C   UNL     1       2.702   2.074  19.087  0.00  0.00    +0.000 C 
ATOM     31  C   UNL     1       2.643   4.677  19.147  0.00  0.00    +0.000 A 
ENDBRANCH  21  31
ENDBRANCH   1  21
TORSDOF 4
ENDMDL
MODEL 2
REMARK VINA RESULT:      -8.1      1.040      2.049
REMARK  Name = 
REMARK  7 active torsions:
REMARK  status: ('A' for Active; 'I' for Inactive)
REMARK    1  A    between atoms: C_1  and  C_2
REMARK    2  A    between atoms: N_4  and  C_5
REMARK    3  A    between atoms: C_6  and  C_7
REMARK    4  A    between atoms: C_8  and  S_9
REMARK    5  A    between atoms: S_9  and  N_12
REMARK    6  A    between atoms: C_15  and  C_16
REMARK    7  A    between atoms: N_18  and  C_19
REMARK                            x       y       z     vdW  Elec       q    Type
REMARK                         _______ _______ _______ _____ _____    ______ ____
ROOT
ATOM      1  N   UNL     1       5.185   4.619  18.258  0.00  0.00    +0.000 NA
ATOM      2  C   UNL     1       6.060   4.777  17.061  0.00  0.00    +0.000 C 
ATOM      3  C   UNL     1       7.546   4.729  17.418  0.00  0.00    +0.000 C 
ATOM      4  C   UNL     1       7.939   5.690  18.550  0.00  0.00    +0.000 C 
ATOM      5  C   UNL     1       7.041   5.409  19.752  0.00  0.00    +0.000 C 
ATOM      6  C   UNL     1       5.557   5.499  19.406  0.00  0.00    +0.000 C 
ENDROOT
BRANCH   4   7
ATOM      7  C   UNL     1       7.912   7.158  18.104  0.00  0.00    +0.000 C 
ATOM      8  O   UNL     1       7.253   7.499  17.125  0.00  0.00    +0.000 OA
ATOM      9  N   UNL     1       8.715   8.006  18.866  0.00  0.00    +0.000 N 
ATOM     10  H   UNL     1       9.371   7.574  19.507  0.00  0.00    +0.000 HD
BRANCH   9  11
ATOM     11  C   UNL     1       8.798   9.417  18.740  0.00  0.00    +0.000 A 
ATOM     12  C   UNL     1       8.190  10.122  17.698  0.00  0.00    +0.000 A 
ATOM     13  C   UNL     1       8.278  11.515  17.617  0.00  0.00    +0.000 A 
ATOM     14  C   UNL     1       8.977  12.226  18.583  0.00  0.00    +0.000 A 
ATOM     15  C   UNL     1       9.571  11.547  19.647  0.00  0.00    +0.000 A 
ATOM     16  C   UNL     1       9.489  10.147  19.725  0.00  0.00    +0.000 A 
ATOM     17  O   UNL     1      10.261  12.192  20.646  0.00  0.00    +0.000 OA
ATOM     18  C   UNL     1       9.981  13.601  20.654  0.00  0.00    +0.000 C 
ATOM     19  C   UNL     1      10.026  14.182  19.250  0.00  0.00    +0.000 C 
ATOM     20  O   UNL     1       9.021  13.587  18.424  0.00  0.00    +0.000 OA
ENDBRANCH   9  11
ENDBRANCH   4   7
BRANCH   1  21
ATOM     21  S   UNL     1       3.499   4.817  17.867  0.00  0.00    +0.000 S 
ATOM     22  O   UNL     1       2.874   3.513  17.941  0.00  0.00    +0.000 OA
ATOM     23  O   UNL     1       3.418   5.622  16.667  0.00  0.00    +0.000 OA
BRANCH  21  31
ATOM     24  C   UNL     1       2.158   4.026  20.953  0.00  0.00    +0.000 C 
ATOM     25  C   UNL     1       2.193   5.364  20.309  0.00  0.00    +0.000 A 
ATOM     26  N   UNL     1       1.642   6.397  20.964  0.00  0.00    +0.000 NA
ATOM     27  N   UNL     1       1.783   7.441  20.131  0.00  0.00    +0.000 N 
ATOM     28  C   UNL     1       1.199   8.709  20.508  0.00  0.00    +0.000 C 
ATOM     29  C   UNL     1       2.473   7.142  18.987  0.00  0.00    +0.000 A 
ATOM     30  C   UNL     1       2.794   8.118  17.916  0.00  0.00    +0.000 C 
ATOM     31  C   UNL     1       2.733   5.784  19.070  0.00  0.00    +0.000 A 
ENDBRANCH  21  31
ENDBRANCH   1  21
TORSDOF 4
ENDMDL
MODEL 3
REMARK VINA RESULT:      -7.9      0.835      1.430
REMARK  Name = 
REMARK  7 active torsions:
REMARK  status: ('A' for Active; 'I' for Inactive)
REMARK    1  A    between atoms: C_1  and  C_2
REMARK    2  A    between atoms: N_4  and  C_5
REMARK    3  A    between atoms: C_6  and  C_7
REMARK    4  A    between atoms: C_8  and  S_9
REMARK    5  A    between atoms: S_9  and  N_12
REMARK    6  A    between atoms: C_15  and  C_16
REMARK    7  A    between atoms: N_18  and  C_19
REMARK                            x       y       z     vdW  Elec       q    Type
REMARK                         _______ _______ _______ _____ _____    ______ ____
ROOT
ATOM      1  N   UNL     1       5.280   5.286  17.883  0.00  0.00    +0.000 NA
ATOM      2  C   UNL     1       5.975   5.845  16.688  0.00  0.00    +0.000 C 
ATOM      3  C   UNL     1       7.497   5.756  16.807  0.00  0.00    +0.000 C 
ATOM      4  C   UNL     1       8.047   6.337  18.118  0.00  0.00    +0.000 C 
ATOM      5  C   UNL     1       7.329   5.658  19.282  0.00  0.00    +0.000 C 
ATOM      6  C   UNL     1       5.811   5.784  19.186  0.00  0.00    +0.000 C 
ENDROOT
BRANCH   4   7
ATOM      7  C   UNL     1       7.956   7.869  18.161  0.00  0.00    +0.000 C 
ATOM      8  O   UNL     1       7.064   8.456  17.556  0.00  0.00    +0.000 OA
ATOM      9  N   UNL     1       8.975   8.485  18.887  0.00  0.00    +0.000 N 
ATOM     10  H   UNL     1       9.765   7.912  19.158  0.00  0.00    +0.000 HD
BRANCH   9  11
ATOM     11  C   UNL     1       9.076   9.871  19.173  0.00  0.00    +0.000 A 
ATOM     12  C   UNL     1       8.998  10.385  20.470  0.00  0.00    +0.000 A 
ATOM     13  C   UNL     1       9.122  11.757  20.715  0.00  0.00    +0.000 A 
ATOM     14  C   UNL     1       9.329  12.637  19.663  0.00  0.00    +0.000 A 
ATOM     15  C   UNL     1       9.437  12.145  18.361  0.00  0.00    +0.000 A 
ATOM     16  C   UNL     1       9.306  10.768  18.113  0.00  0.00    +0.000 A 
ATOM     17  O   UNL     1       9.661  12.960  17.277  0.00  0.00    +0.000 OA
ATOM     18  C   UNL     1      10.121  14.259  17.680  0.00  0.00    +0.000 C 
ATOM     19  C   UNL     1       9.299  14.802  18.837  0.00  0.00    +0.000 C 
ATOM     20  O   UNL     1       9.431  13.964  19.989  0.00  0.00    +0.000 OA
ENDBRANCH   9  11
ENDBRANCH   4   7
BRANCH   1  21
ATOM     21  S   UNL     1       3.555   5.520  17.805  0.00  0.00    +0.000 S 
ATOM     22  O   UNL     1       3.047   4.693  16.730  0.00  0.00    +0.000 OA
ATOM     23  O   UNL     1       3.302   6.945  17.839  0.00  0.00    +0.000 OA
BRANCH  21  31
ATOM     24  C   UNL     1       1.859   7.128  20.352  0.00  0.00    +0.000 C 
ATOM     25  C   UNL     1       2.160   5.676  20.254  0.00  0.00    +0.000 A 
ATOM     26  N   UNL     1       1.754   4.876  21.251  0.00  0.00    +0.000 NA
ATOM     27  N   UNL     1       2.199   3.655  20.910  0.00  0.00    +0.000 N 
ATOM     28  C   UNL     1       2.003   2.564  21.837  0.00  0.00    +0.000 C 
ATOM     29  C   UNL     1       2.817   3.618  19.688  0.00  0.00    +0.000 A 
ATOM     30  C   UNL     1       3.372   2.393  19.062  0.00  0.00    +0.000 C 
ATOM     31  C   UNL     1       2.823   4.932  19.249  0.00  0.00    +0.000 A 
ENDBRANCH  21  31
ENDBRANCH   1  21
TORSDOF 4
ENDMDL
MODEL 4
REMARK VINA RESULT:      -7.9      6.026      9.750
REMARK  Name = 
REMARK  7 active torsions:
REMARK  status: ('A' for Active; 'I' for Inactive)
REMARK    1  A    between atoms: C_1  and  C_2
REMARK    2  A    between atoms: N_4  and  C_5
REMARK    3  A    between atoms: C_6  and  C_7
REMARK    4  A    between atoms: C_8  and  S_9
REMARK    5  A    between atoms: S_9  and  N_12
REMARK    6  A    between atoms: C_15  and  C_16
REMARK    7  A    between atoms: N_18  and  C_19
REMARK                            x       y       z     vdW  Elec       q    Type
REMARK                         _______ _______ _______ _____ _____    ______ ____
ROOT
ATOM      1  N   UNL     1       0.787  12.401  19.738  0.00  0.00    +0.000 NA
ATOM      2  C   UNL     1       0.592  11.347  18.701  0.00  0.00    +0.000 C 
ATOM      3  C   UNL     1      -0.433  10.296  19.127  0.00  0.00    +0.000 C 
ATOM      4  C   UNL     1      -0.161   9.696  20.515  0.00  0.00    +0.000 C 
ATOM      5  C   UNL     1      -0.047  10.841  21.518  0.00  0.00    +0.000 C 
ATOM      6  C   UNL     1       1.007  11.869  21.115  0.00  0.00    +0.000 C 
ENDROOT
BRANCH   4   7
ATOM      7  C   UNL     1       1.059   8.764  20.518  0.00  0.00    +0.000 C 
ATOM      8  O   UNL     1       1.653   8.522  21.565  0.00  0.00    +0.000 OA
ATOM      9  N   UNL     1       1.423   8.288  19.259  0.00  0.00    +0.000 N 
ATOM     10  H   UNL     1       0.990   8.725  18.454  0.00  0.00    +0.000 HD
BRANCH   9  11
ATOM     11  C   UNL     1       2.440   7.337  18.987  0.00  0.00    +0.000 A 
ATOM     12  C   UNL     1       2.662   6.214  19.787  0.00  0.00    +0.000 A 
ATOM     13  C   UNL     1       3.663   5.288  19.476  0.00  0.00    +0.000 A 
ATOM     14  C   UNL     1       4.458   5.472  18.353  0.00  0.00    +0.000 A 
ATOM     15  C   UNL     1       4.238   6.573  17.523  0.00  0.00    +0.000 A 
ATOM     16  C   UNL     1       3.238   7.507  17.839  0.00  0.00    +0.000 A 
ATOM     17  O   UNL     1       4.976   6.803  16.387  0.00  0.00    +0.000 OA
ATOM     18  C   UNL     1       5.703   5.633  15.984  0.00  0.00    +0.000 C 
ATOM     19  C   UNL     1       6.386   4.970  17.170  0.00  0.00    +0.000 C 
ATOM     20  O   UNL     1       5.420   4.523  18.125  0.00  0.00    +0.000 OA
ENDBRANCH   9  11
ENDBRANCH   4   7
BRANCH   1  21
ATOM     21  S   UNL     1       2.057  13.514  19.310  0.00  0.00    +0.000 S 
ATOM     22  O   UNL     1       2.663  13.039  18.083  0.00  0.00    +0.000 OA
ATOM     23  O   UNL     1       2.851  13.751  20.496  0.00  0.00    +0.000 OA
BRANCH  21  31
ATOM     24  C   UNL     1      -1.031  14.901  20.008  0.00  0.00    +0.000 C 
ATOM     25  C   UNL     1       0.085  15.533  19.259  0.00  0.00    +0.000 A 
ATOM     26  N   UNL     1      -0.096  16.771  18.776  0.00  0.00    +0.000 NA
ATOM     27  N   UNL     1       1.043  17.052  18.122  0.00  0.00    +0.000 N 
ATOM     28  C   UNL     1       1.134  18.299  17.398  0.00  0.00    +0.000 C 
ATOM     29  C   UNL     1       1.991  16.069  18.224  0.00  0.00    +0.000 A 
ATOM     30  C   UNL     1       3.345  16.138  17.623  0.00  0.00    +0.000 C 
ATOM     31  C   UNL     1       1.380  15.055  18.944  0.00  0.00    +0.000 A 
ENDBRANCH  21  31
ENDBRANCH   1  21
TORSDOF 4
ENDMDL
MODEL 5
REMARK VINA RESULT:      -7.9      6.035      9.682
REMARK  Name = 
REMARK  7 active torsions:
REMARK  status: ('A' for Active; 'I' for Inactive)
REMARK    1  A    between atoms: C_1  and  C_2
REMARK    2  A    between atoms: N_4  and  C_5
REMARK    3  A    between atoms: C_6  and  C_7
REMARK    4  A    between atoms: C_8  and  S_9
REMARK    5  A    between atoms: S_9  and  N_12
REMARK    6  A    between atoms: C_15  and  C_16
REMARK    7  A    between atoms: N_18  and  C_19
REMARK                            x       y       z     vdW  Elec       q    Type
REMARK                         _______ _______ _______ _____ _____    ______ ____
ROOT
ATOM      1  N   UNL     1       0.917  12.411  19.665  0.00  0.00    +0.000 NA
ATOM      2  C   UNL     1       0.770  11.382  18.595  0.00  0.00    +0.000 C 
ATOM      3  C   UNL     1      -0.288  10.334  18.938  0.00  0.00    +0.000 C 
ATOM      4  C   UNL     1      -0.101   9.700  20.324  0.00  0.00    +0.000 C 
ATOM      5  C   UNL     1      -0.032  10.821  21.359  0.00  0.00    +0.000 C 
ATOM      6  C   UNL     1       1.053  11.845  21.040  0.00  0.00    +0.000 C 
ENDROOT
BRANCH   4   7
ATOM      7  C   UNL     1       1.106   8.754  20.375  0.00  0.00    +0.000 C 
ATOM      8  O   UNL     1       1.664   8.513  21.442  0.00  0.00    +0.000 OA
ATOM      9  N   UNL     1       1.505   8.264  19.132  0.00  0.00    +0.000 N 
ATOM     10  H   UNL     1       1.104   8.699  18.310  0.00  0.00    +0.000 HD
BRANCH   9  11
ATOM     11  C   UNL     1       2.519   7.299  18.900  0.00  0.00    +0.000 A 
ATOM     12  C   UNL     1       2.693   6.172  19.707  0.00  0.00    +0.000 A 
ATOM     13  C   UNL     1       3.692   5.232  19.435  0.00  0.00    +0.000 A 
ATOM     14  C   UNL     1       4.535   5.406  18.346  0.00  0.00    +0.000 A 
ATOM     15  C   UNL     1       4.365   6.511  17.510  0.00  0.00    +0.000 A 
ATOM     16  C   UNL     1       3.366   7.458  17.786  0.00  0.00    +0.000 A 
ATOM     17  O   UNL     1       5.152   6.732  16.405  0.00  0.00    +0.000 OA
ATOM     18  C   UNL     1       5.879   5.551  16.031  0.00  0.00    +0.000 C 
ATOM     19  C   UNL     1       6.503   4.878  17.243  0.00  0.00    +0.000 C 
ATOM     20  O   UNL     1       5.493   4.444  18.157  0.00  0.00    +0.000 OA
ENDBRANCH   9  11
ENDBRANCH   4   7
BRANCH   1  21
ATOM     21  S   UNL     1       2.221  13.518  19.335  0.00  0.00    +0.000 S 
ATOM     22  O   UNL     1       2.937  13.022  18.178  0.00  0.00    +0.000 OA
ATOM     23  O   UNL     1       2.903  13.779  20.585  0.00  0.00    +0.000 OA
BRANCH  21  31
ATOM     24  C   UNL     1       3.654  16.243  17.764  0.00  0.00    +0.000 C 
ATOM     25  C   UNL     1       2.255  16.124  18.251  0.00  0.00    +0.000 A 
ATOM     26  N   UNL     1       1.437  17.174  18.090  0.00  0.00    +0.000 NA
ATOM     27  N   UNL     1       0.280  16.793  18.656  0.00  0.00    +0.000 N 
ATOM     28  C   UNL     1      -0.800  17.750  18.733  0.00  0.00    +0.000 C 
ATOM     29  C   UNL     1       0.292  15.502  19.114  0.00  0.00    +0.000 A 
ATOM     30  C   UNL     1      -0.863  14.824  19.753  0.00  0.00    +0.000 C 
ATOM     31  C   UNL     1       1.580  15.051  18.881  0.00  0.00    +0.000 A 
ENDBRANCH  21  31
ENDBRANCH   1  21
TORSDOF 4
ENDMDL
MODEL 6
REMARK VINA RESULT:      -7.9      5.737      9.437
REMARK  Name = 
REMARK  7 active torsions:
REMARK  status: ('A' for Active; 'I' for Inactive)
REMARK    1  A    between atoms: C_1  and  C_2
REMARK    2  A    between atoms: N_4  and  C_5
REMARK    3  A    between atoms: C_6  and  C_7
REMARK    4  A    between atoms: C_8  and  S_9
REMARK    5  A    between atoms: S_9  and  N_12
REMARK    6  A    between atoms: C_15  and  C_16
REMARK    7  A    between atoms: N_18  and  C_19
REMARK                            x       y       z     vdW  Elec       q    Type
REMARK                         _______ _______ _______ _____ _____    ______ ____
ROOT
ATOM      1  N   UNL     1       2.356   7.562  19.088  0.00  0.00    +0.000 NA
ATOM      2  C   UNL     1       1.972   8.306  17.853  0.00  0.00    +0.000 C 
ATOM      3  C   UNL     1       2.020   9.821  18.049  0.00  0.00    +0.000 C 
ATOM      4  C   UNL     1       1.242  10.308  19.280  0.00  0.00    +0.000 C 
ATOM      5  C   UNL     1       1.750   9.545  20.501  0.00  0.00    +0.000 C 
ATOM      6  C   UNL     1       1.662   8.032  20.323  0.00  0.00    +0.000 C 
ENDROOT
BRANCH   4   7
ATOM      7  C   UNL     1      -0.277  10.204  19.089  0.00  0.00    +0.000 C 
ATOM      8  O   UNL     1      -0.930   9.384  19.729  0.00  0.00    +0.000 OA
ATOM      9  N   UNL     1      -0.796  11.066  18.125  0.00  0.00    +0.000 N 
ATOM     10  H   UNL     1      -0.135  11.538  17.519  0.00  0.00    +0.000 HD
BRANCH   9  11
ATOM     11  C   UNL     1      -2.170  11.251  17.819  0.00  0.00    +0.000 A 
ATOM     12  C   UNL     1      -2.722  10.921  16.579  0.00  0.00    +0.000 A 
ATOM     13  C   UNL     1      -4.085  11.100  16.321  0.00  0.00    +0.000 A 
ATOM     14  C   UNL     1      -4.919  11.610  17.306  0.00  0.00    +0.000 A 
ATOM     15  C   UNL     1      -4.396  11.922  18.562  0.00  0.00    +0.000 A 
ATOM     16  C   UNL     1      -3.026  11.750  18.819  0.00  0.00    +0.000 A 
ATOM     17  O   UNL     1      -5.171  12.413  19.586  0.00  0.00    +0.000 OA
ATOM     18  C   UNL     1      -6.570  12.214  19.330  0.00  0.00    +0.000 C 
ATOM     19  C   UNL     1      -6.930  12.593  17.903  0.00  0.00    +0.000 C 
ATOM     20  O   UNL     1      -6.239  11.761  16.968  0.00  0.00    +0.000 OA
ENDBRANCH   9  11
ENDBRANCH   4   7
BRANCH   1  21
ATOM     21  S   UNL     1       2.161   5.841  18.902  0.00  0.00    +0.000 S 
ATOM     22  O   UNL     1       1.516   5.606  17.627  0.00  0.00    +0.000 OA
ATOM     23  O   UNL     1       1.600   5.327  20.134  0.00  0.00    +0.000 OA
BRANCH  21  31
ATOM     24  C   UNL     1       3.433   2.977  20.363  0.00  0.00    +0.000 C 
ATOM     25  C   UNL     1       4.148   3.914  19.459  0.00  0.00    +0.000 A 
ATOM     26  N   UNL     1       5.432   3.658  19.167  0.00  0.00    +0.000 NA
ATOM     27  N   UNL     1       5.813   4.680  18.383  0.00  0.00    +0.000 N 
ATOM     28  C   UNL     1       7.195   4.751  17.965  0.00  0.00    +0.000 C 
ATOM     29  C   UNL     1       4.802   5.556  18.093  0.00  0.00    +0.000 A 
ATOM     30  C   UNL     1       4.946   6.752  17.227  0.00  0.00    +0.000 C 
ATOM     31  C   UNL     1       3.708   5.089  18.803  0.00  0.00    +0.000 A 
ENDBRANCH  21  31
ENDBRANCH   1  21
TORSDOF 4
ENDMDL
MODEL 7
REMARK VINA RESULT:      -7.8      6.262     10.205
REMARK  Name = 
REMARK  7 active torsions:
REMARK  status: ('A' for Active; 'I' for Inactive)
REMARK    1  A    between atoms: C_1  and  C_2
REMARK    2  A    between atoms: N_4  and  C_5
REMARK    3  A    between atoms: C_6  and  C_7
REMARK    4  A    between atoms: C_8  and  S_9
REMARK    5  A    between atoms: S_9  and  N_12
REMARK    6  A    between atoms: C_15  and  C_16
REMARK    7  A    between atoms: N_18  and  C_19
REMARK                            x       y       z     vdW  Elec       q    Type
REMARK                         _______ _______ _______ _____ _____    ______ ____
ROOT
ATOM      1  N   UNL     1       0.771  13.411  19.918  0.00  0.00    +0.000 NA
ATOM      2  C   UNL     1       0.916  12.561  18.701  0.00  0.00    +0.000 C 
ATOM      3  C   UNL     1      -0.210  11.536  18.572  0.00  0.00    +0.000 C 
ATOM      4  C   UNL     1      -0.428  10.696  19.839  0.00  0.00    +0.000 C 
ATOM      5  C   UNL     1      -0.636  11.647  21.015  0.00  0.00    +0.000 C 
ATOM      6  C   UNL     1       0.509  12.643  21.171  0.00  0.00    +0.000 C 
ENDROOT
BRANCH   4   7
ATOM      7  C   UNL     1       0.704   9.685  20.071  0.00  0.00    +0.000 C 
ATOM      8  O   UNL     1       1.197   9.548  21.187  0.00  0.00    +0.000 OA
ATOM      9  N   UNL     1       1.117   9.012  18.922  0.00  0.00    +0.000 N 
ATOM     10  H   UNL     1       0.784   9.363  18.032  0.00  0.00    +0.000 HD
BRANCH   9  11
ATOM     11  C   UNL     1       2.067   7.959  18.866  0.00  0.00    +0.000 A 
ATOM     12  C   UNL     1       2.103   6.919  19.799  0.00  0.00    +0.000 A 
ATOM     13  C   UNL     1       3.042   5.888  19.700  0.00  0.00    +0.000 A 
ATOM     14  C   UNL     1       3.962   5.881  18.661  0.00  0.00    +0.000 A 
ATOM     15  C   UNL     1       3.929   6.894  17.701  0.00  0.00    +0.000 A 
ATOM     16  C   UNL     1       2.990   7.933  17.804  0.00  0.00    +0.000 A 
ATOM     17  O   UNL     1       4.798   6.935  16.637  0.00  0.00    +0.000 OA
ATOM     18  C   UNL     1       5.454   5.672  16.443  0.00  0.00    +0.000 C 
ATOM     19  C   UNL     1       5.948   5.097  17.761  0.00  0.00    +0.000 C 
ATOM     20  O   UNL     1       4.853   4.839  18.643  0.00  0.00    +0.000 OA
ENDBRANCH   9  11
ENDBRANCH   4   7
BRANCH   1  21
ATOM     21  S   UNL     1       2.131  14.478  20.137  0.00  0.00    +0.000 S 
ATOM     22  O   UNL     1       3.334  13.721  19.859  0.00  0.00    +0.000 OA
ATOM     23  O   UNL     1       1.952  15.166  21.397  0.00  0.00    +0.000 OA
BRANCH  21  31
ATOM     24  C   UNL     1       4.595  15.938  18.202  0.00  0.00    +0.000 C 
ATOM     25  C   UNL     1       3.152  16.288  18.225  0.00  0.00    +0.000 A 
ATOM     26  N   UNL     1       2.727  17.282  17.432  0.00  0.00    +0.000 NA
ATOM     27  N   UNL     1       1.416  17.395  17.700  0.00  0.00    +0.000 N 
ATOM     28  C   UNL     1       0.670  18.457  17.064  0.00  0.00    +0.000 C 
ATOM     29  C   UNL     1       0.954  16.459  18.587  0.00  0.00    +0.000 A 
ATOM     30  C   UNL     1      -0.456  16.342  19.031  0.00  0.00    +0.000 C 
ATOM     31  C   UNL     1       2.075  15.737  18.962  0.00  0.00    +0.000 A 
ENDBRANCH  21  31
ENDBRANCH   1  21
TORSDOF 4
ENDMDL
MODEL 8
REMARK VINA RESULT:      -7.7      6.018      9.648
REMARK  Name = 
REMARK  7 active torsions:
REMARK  status: ('A' for Active; 'I' for Inactive)
REMARK    1  A    between atoms: C_1  and  C_2
REMARK    2  A    between atoms: N_4  and  C_5
REMARK    3  A    between atoms: C_6  and  C_7
REMARK    4  A    between atoms: C_8  and  S_9
REMARK    5  A    between atoms: S_9  and  N_12
REMARK    6  A    between atoms: C_15  and  C_16
REMARK    7  A    between atoms: N_18  and  C_19
REMARK                            x       y       z     vdW  Elec       q    Type
REMARK                         _______ _______ _______ _____ _____    ______ ____
ROOT
ATOM      1  N   UNL     1       0.304  11.875  19.781  0.00  0.00    +0.000 NA
ATOM      2  C   UNL     1       1.725  11.775  19.340  0.00  0.00    +0.000 C 
ATOM      3  C   UNL     1       1.861  11.138  17.957  0.00  0.00    +0.000 C 
ATOM      4  C   UNL     1       1.118   9.800  17.819  0.00  0.00    +0.000 C 
ATOM      5  C   UNL     1      -0.338  10.016  18.223  0.00  0.00    +0.000 C 
ATOM      6  C   UNL     1      -0.475  10.612  19.621  0.00  0.00    +0.000 C 
ENDROOT
BRANCH   4   7
ATOM      7  C   UNL     1       1.803   8.670  18.601  0.00  0.00    +0.000 C 
ATOM      8  O   UNL     1       1.660   8.581  19.817  0.00  0.00    +0.000 OA
ATOM      9  N   UNL     1       2.599   7.832  17.822  0.00  0.00    +0.000 N 
ATOM     10  H   UNL     1       2.805   8.133  16.877  0.00  0.00    +0.000 HD
BRANCH   9  11
ATOM     11  C   UNL     1       3.258   6.656  18.264  0.00  0.00    +0.000 A 
ATOM     12  C   UNL     1       4.631   6.450  18.101  0.00  0.00    +0.000 A 
ATOM     13  C   UNL     1       5.250   5.286  18.568  0.00  0.00    +0.000 A 
ATOM     14  C   UNL     1       4.502   4.308  19.209  0.00  0.00    +0.000 A 
ATOM     15  C   UNL     1       3.134   4.503  19.408  0.00  0.00    +0.000 A 
ATOM     16  C   UNL     1       2.511   5.669  18.933  0.00  0.00    +0.000 A 
ATOM     17  O   UNL     1       2.340   3.584  20.052  0.00  0.00    +0.000 OA
ATOM     18  C   UNL     1       3.126   2.631  20.785  0.00  0.00    +0.000 C 
ATOM     19  C   UNL     1       4.295   2.125  19.957  0.00  0.00    +0.000 C 
ATOM     20  O   UNL     1       5.184   3.195  19.628  0.00  0.00    +0.000 OA
ENDBRANCH   9  11
ENDBRANCH   4   7
BRANCH   1  21
ATOM     21  S   UNL     1       0.165  12.469  21.413  0.00  0.00    +0.000 S 
ATOM     22  O   UNL     1       1.253  13.398  21.638  0.00  0.00    +0.000 OA
ATOM     23  O   UNL     1      -0.039  11.327  22.279  0.00  0.00    +0.000 OA
BRANCH  21  31
ATOM     24  C   UNL     1      -2.666  11.975  23.335  0.00  0.00    +0.000 C 
ATOM     25  C   UNL     1      -2.412  13.089  22.384  0.00  0.00    +0.000 A 
ATOM     26  N   UNL     1      -3.370  14.013  22.221  0.00  0.00    +0.000 NA
ATOM     27  N   UNL     1      -2.882  14.847  21.288  0.00  0.00    +0.000 N 
ATOM     28  C   UNL     1      -3.725  15.919  20.811  0.00  0.00    +0.000 C 
ATOM     29  C   UNL     1      -1.608  14.541  20.891  0.00  0.00    +0.000 A 
ATOM     30  C   UNL     1      -0.826  15.317  19.897  0.00  0.00    +0.000 C 
ATOM     31  C   UNL     1      -1.287  13.382  21.578  0.00  0.00    +0.000 A 
ENDBRANCH  21  31
ENDBRANCH   1  21
TORSDOF 4
ENDMDL
MODEL 9
REMARK VINA RESULT:      -7.7      6.063      9.810
REMARK  Name = 
REMARK  7 active torsions:
REMARK  status: ('A' for Active; 'I' for Inactive)
REMARK    1  A    between atoms: C_1  and  C_2
REMARK    2  A    between atoms: N_4  and  C_5
REMARK    3  A    between atoms: C_6  and  C_7
REMARK    4  A    between atoms: C_8  and  S_9
REMARK    5  A    between atoms: S_9  and  N_12
REMARK    6  A    between atoms: C_15  and  C_16
REMARK    7  A    between atoms: N_18  and  C_19
REMARK                            x       y       z     vdW  Elec       q    Type
REMARK                         _______ _______ _______ _____ _____    ______ ____
ROOT
ATOM      1  N   UNL     1      -0.430  12.014  21.076  0.00  0.00    +0.000 NA
ATOM      2  C   UNL     1      -1.367  11.005  21.651  0.00  0.00    +0.000 C 
ATOM      3  C   UNL     1      -0.748  10.237  22.819  0.00  0.00    +0.000 C 
ATOM      4  C   UNL     1       0.627   9.631  22.500  0.00  0.00    +0.000 C 
ATOM      5  C   UNL     1       1.535  10.746  21.987  0.00  0.00    +0.000 C 
ATOM      6  C   UNL     1       0.937  11.485  20.793  0.00  0.00    +0.000 C 
ENDROOT
BRANCH   4   7
ATOM      7  C   UNL     1       0.529   8.439  21.538  0.00  0.00    +0.000 C 
ATOM      8  O   UNL     1      -0.567   8.009  21.189  0.00  0.00    +0.000 OA
ATOM      9  N   UNL     1       1.759   7.900  21.164  0.00  0.00    +0.000 N 
ATOM     10  H   UNL     1       2.576   8.202  21.682  0.00  0.00    +0.000 HD
BRANCH   9  11
ATOM     11  C   UNL     1       1.965   6.867  20.213  0.00  0.00    +0.000 A 
ATOM     12  C   UNL     1       2.346   7.117  18.892  0.00  0.00    +0.000 A 
ATOM     13  C   UNL     1       2.558   6.072  17.988  0.00  0.00    +0.000 A 
ATOM     14  C   UNL     1       2.394   4.755  18.395  0.00  0.00    +0.000 A 
ATOM     15  C   UNL     1       2.039   4.478  19.716  0.00  0.00    +0.000 A 
ATOM     16  C   UNL     1       1.820   5.528  20.622  0.00  0.00    +0.000 A 
ATOM     17  O   UNL     1       1.880   3.197  20.188  0.00  0.00    +0.000 OA
ATOM     18  C   UNL     1       2.461   2.231  19.298  0.00  0.00    +0.000 C 
ATOM     19  C   UNL     1       2.097   2.522  17.851  0.00  0.00    +0.000 C 
ATOM     20  O   UNL     1       2.613   3.792  17.444  0.00  0.00    +0.000 OA
ENDBRANCH   9  11
ENDBRANCH   4   7
BRANCH   1  21
ATOM     21  S   UNL     1      -1.087  12.783  19.657  0.00  0.00    +0.000 S 
ATOM     22  O   UNL     1      -0.060  12.771  18.636  0.00  0.00    +0.000 OA
ATOM     23  O   UNL     1      -1.713  14.018  20.078  0.00  0.00    +0.000 OA
BRANCH  21  31
ATOM     24  C   UNL     1      -1.155  10.028  17.571  0.00  0.00    +0.000 C 
ATOM     25  C   UNL     1      -2.322  10.730  18.165  0.00  0.00    +0.000 A 
ATOM     26  N   UNL     1      -3.550  10.280  17.869  0.00  0.00    +0.000 NA
ATOM     27  N   UNL     1      -4.383  11.124  18.501  0.00  0.00    +0.000 N 
ATOM     28  C   UNL     1      -5.806  10.966  18.305  0.00  0.00    +0.000 C 
ATOM     29  C   UNL     1      -3.739  12.065  19.259  0.00  0.00    +0.000 A 
ATOM     30  C   UNL     1      -4.421  13.097  20.079  0.00  0.00    +0.000 C 
ATOM     31  C   UNL     1      -2.390  11.842  19.038  0.00  0.00    +0.000 A 
ENDBRANCH  21  31
ENDBRANCH   1  21
TORSDOF 4
ENDMDL
