MODEL 1
REMARK VINA RESULT:      -8.0      0.000      0.000
REMARK  Name = 
REMARK  6 active torsions:
REMARK  status: ('A' for Active; 'I' for Inactive)
REMARK    1  A    between atoms: C_1  and  O_2
REMARK    2  A    between atoms: O_2  and  C_3
REMARK    3  A    between atoms: C_7  and  N_8
REMARK    4  A    between atoms: C_9  and  C_11
REMARK    5  A    between atoms: C_11  and  N_12
REMARK    6  A    between atoms: C_20  and  C_21
REMARK                            x       y       z     vdW  Elec       q    Type
REMARK                         _______ _______ _______ _____ _____    ______ ____
ROOT
ATOM      1  N   UNL     1       5.186   5.552  18.246  0.00  0.00    +0.000 N 
ATOM      2  C   UNL     1       5.141   6.846  17.703  0.00  0.00    +0.000 A 
ATOM      3  O   UNL     1       6.187   7.369  17.313  0.00  0.00    +0.000 OA
ATOM      4  N   UNL     1       3.950   7.544  17.618  0.00  0.00    +0.000 NA
ATOM      5  C   UNL     1       2.869   7.088  18.144  0.00  0.00    +0.000 A 
ATOM      6  N   UNL     1       1.678   7.756  18.112  0.00  0.00    +0.000 N 
ATOM      7  C   UNL     1       2.837   5.810  18.802  0.00  0.00    +0.000 A 
ATOM      8  C   UNL     1       1.824   5.146  19.560  0.00  0.00    +0.000 A 
ATOM      9  C   UNL     1       2.267   3.935  20.060  0.00  0.00    +0.000 A 
ATOM     10  C   UNL     1       1.583   3.005  20.999  0.00  0.00    +0.000 C 
ATOM     11  S   UNL     1       3.853   3.575  19.517  0.00  0.00    +0.000 S 
ATOM     12  C   UNL     1       3.998   5.088  18.786  0.00  0.00    +0.000 A 
ATOM     13  H   UNL     1       1.666   8.512  17.435  0.00  0.00    +0.000 HD
ATOM     14  H   UNL     1       0.830   7.207  18.117  0.00  0.00    +0.000 HD
ENDROOT
BRANCH   1  15
ATOM     15  C   UNL     1       6.490   4.902  18.354  0.00  0.00    +0.000 C 
BRANCH  15  17
ATOM     16  N   UNL     1       6.254   4.902  15.902  0.00  0.00    +0.000 N 
ATOM     17  C   UNL     1       7.083   4.592  16.974  0.00  0.00    +0.000 C 
ATOM     18  O   UNL     1       8.231   4.163  16.878  0.00  0.00    +0.000 OA
ATOM     19  H   UNL     1       5.440   5.479  16.101  0.00  0.00    +0.000 HD
BRANCH  16  24
ATOM     20  C   UNL     1       5.986   3.431  12.494  0.00  0.00    +0.000 A 
ATOM     21  C   UNL     1       7.009   4.098  11.818  0.00  0.00    +0.000 A 
ATOM     22  C   UNL     1       7.807   5.018  12.490  0.00  0.00    +0.000 A 
ATOM     23  C   UNL     1       7.575   5.288  13.840  0.00  0.00    +0.000 A 
ATOM     24  C   UNL     1       6.544   4.646  14.535  0.00  0.00    +0.000 A 
ATOM     25  C   UNL     1       5.765   3.696  13.854  0.00  0.00    +0.000 A 
BRANCH  20  27
ATOM     26  C   UNL     1       4.083   3.030  11.125  0.00  0.00    +0.000 C 
ATOM     27  O   UNL     1       5.282   2.552  11.716  0.00  0.00    +0.000 OA
ENDBRANCH  20  27
ENDBRANCH  16  24
ENDBRANCH  15  17
ENDBRANCH   1  15
TORSDOF 4
ENDMDL
MODEL 2
REMARK VINA RESULT:      -7.6      4.363      7.806
REMARK  Name = 
REMARK  6 active torsions:
REMARK  status: ('A' for Active; 'I' for Inactive)
REMARK    1  A    between atoms: C_1  and  O_2
REMARK    2  A    between atoms: O_2  and  C_3
REMARK    3  A    between atoms: C_7  and  N_8
REMARK    4  A    between atoms: C_9  and  C_11
REMARK    5  A    between atoms: C_11  and  N_12
REMARK    6  A    between atoms: C_20  and  C_21
REMARK                            x       y       z     vdW  Elec       q    Type
REMARK                         _______ _______ _______ _____ _____    ______ ____
ROOT
ATOM      1  N   UNL     1       2.776   6.006  18.788  0.00  0.00    +0.000 N 
ATOM      2  C   UNL     1       1.896   5.133  19.446  0.00  0.00    +0.000 A 
ATOM      3  O   UNL     1       1.261   5.543  20.421  0.00  0.00    +0.000 OA
ATOM      4  N   UNL     1       1.745   3.822  19.031  0.00  0.00    +0.000 NA
ATOM      5  C   UNL     1       2.493   3.322  18.112  0.00  0.00    +0.000 A 
ATOM      6  N   UNL     1       2.402   2.026  17.692  0.00  0.00    +0.000 N 
ATOM      7  C   UNL     1       3.487   4.115  17.441  0.00  0.00    +0.000 A 
ATOM      8  C   UNL     1       4.508   3.779  16.499  0.00  0.00    +0.000 A 
ATOM      9  C   UNL     1       5.281   4.877  16.166  0.00  0.00    +0.000 A 
ATOM     10  C   UNL     1       6.514   4.934  15.334  0.00  0.00    +0.000 C 
ATOM     11  S   UNL     1       4.694   6.306  16.908  0.00  0.00    +0.000 S 
ATOM     12  C   UNL     1       3.551   5.435  17.792  0.00  0.00    +0.000 A 
ATOM     13  H   UNL     1       1.544   1.573  17.988  0.00  0.00    +0.000 HD
ATOM     14  H   UNL     1       2.655   1.822  16.735  0.00  0.00    +0.000 HD
ENDROOT
BRANCH   1  15
ATOM     15  C   UNL     1       2.922   7.358  19.321  0.00  0.00    +0.000 C 
BRANCH  15  17
ATOM     16  N   UNL     1       1.202   9.122  19.307  0.00  0.00    +0.000 N 
ATOM     17  C   UNL     1       2.079   8.370  18.534  0.00  0.00    +0.000 C 
ATOM     18  O   UNL     1       2.252   8.509  17.325  0.00  0.00    +0.000 OA
ATOM     19  H   UNL     1       1.334   9.089  20.316  0.00  0.00    +0.000 HD
BRANCH  16  24
ATOM     20  C   UNL     1      -1.773  10.497  17.544  0.00  0.00    +0.000 A 
ATOM     21  C   UNL     1      -1.654  11.861  17.813  0.00  0.00    +0.000 A 
ATOM     22  C   UNL     1      -0.579  12.336  18.557  0.00  0.00    +0.000 A 
ATOM     23  C   UNL     1       0.376  11.444  19.050  0.00  0.00    +0.000 A 
ATOM     24  C   UNL     1       0.269  10.070  18.809  0.00  0.00    +0.000 A 
ATOM     25  C   UNL     1      -0.803   9.606  18.030  0.00  0.00    +0.000 A 
BRANCH  20  27
ATOM     26  C   UNL     1      -2.800  10.399  15.401  0.00  0.00    +0.000 C 
ATOM     27  O   UNL     1      -2.873  10.167  16.800  0.00  0.00    +0.000 OA
ENDBRANCH  20  27
ENDBRANCH  16  24
ENDBRANCH  15  17
ENDBRANCH   1  15
TORSDOF 4
ENDMDL
MODEL 3
REMARK VINA RESULT:      -7.4      4.292      8.188
REMARK  Name = 
REMARK  6 active torsions:
REMARK  status: ('A' for Active; 'I' for Inactive)
REMARK    1  A    between atoms: C_1  and  O_2
REMARK    2  A    between atoms: O_2  and  C_3
REMARK    3  A    between atoms: C_7  and  N_8
REMARK    4  A    between atoms: C_9  and  C_11
REMARK    5  A    between atoms: C_11  and  N_12
REMARK    6  A    between atoms: C_20  and  C_21
REMARK                            x       y       z     vdW  Elec       q    Type
REMARK                         _______ _______ _______ _____ _____    ______ ____
ROOT
ATOM      1  N   UNL     1       2.690   5.728  19.018  0.00  0.00    +0.000 N 
ATOM      2  C   UNL     1       1.772   4.814  19.561  0.00  0.00    +0.000 A 
ATOM      3  O   UNL     1       1.076   5.161  20.518  0.00  0.00    +0.000 OA
ATOM      4  N   UNL     1       1.653   3.534  19.053  0.00  0.00    +0.000 NA
ATOM      5  C   UNL     1       2.459   3.094  18.152  0.00  0.00    +0.000 A 
ATOM      6  N   UNL     1       2.400   1.828  17.644  0.00  0.00    +0.000 N 
ATOM      7  C   UNL     1       3.491   3.928  17.599  0.00  0.00    +0.000 A 
ATOM      8  C   UNL     1       4.571   3.654  16.704  0.00  0.00    +0.000 A 
ATOM      9  C   UNL     1       5.360   4.770  16.492  0.00  0.00    +0.000 A 
ATOM     10  C   UNL     1       6.643   4.880  15.746  0.00  0.00    +0.000 C 
ATOM     11  S   UNL     1       4.722   6.149  17.287  0.00  0.00    +0.000 S 
ATOM     12  C   UNL     1       3.529   5.223  18.039  0.00  0.00    +0.000 A 
ATOM     13  H   UNL     1       1.526   1.357  17.855  0.00  0.00    +0.000 HD
ATOM     14  H   UNL     1       2.714   1.687  16.694  0.00  0.00    +0.000 HD
ENDROOT
BRANCH   1  15
ATOM     15  C   UNL     1       2.797   7.042  19.646  0.00  0.00    +0.000 C 
BRANCH  15  17
ATOM     16  N   UNL     1       1.352   9.037  19.720  0.00  0.00    +0.000 N 
ATOM     17  C   UNL     1       1.965   8.095  18.902  0.00  0.00    +0.000 C 
ATOM     18  O   UNL     1       1.929   8.096  17.673  0.00  0.00    +0.000 OA
ATOM     19  H   UNL     1       1.662   9.076  20.689  0.00  0.00    +0.000 HD
BRANCH  16  24
ATOM     20  C   UNL     1       0.181  12.409  18.669  0.00  0.00    +0.000 A 
ATOM     21  C   UNL     1      -1.161  12.162  18.376  0.00  0.00    +0.000 A 
ATOM     22  C   UNL     1      -1.691  10.887  18.546  0.00  0.00    +0.000 A 
ATOM     23  C   UNL     1      -0.875   9.847  18.997  0.00  0.00    +0.000 A 
ATOM     24  C   UNL     1       0.477  10.066  19.281  0.00  0.00    +0.000 A 
ATOM     25  C   UNL     1       0.993  11.364  19.135  0.00  0.00    +0.000 A 
BRANCH  20  27
ATOM     26  C   UNL     1       1.961  13.980  18.534  0.00  0.00    +0.000 C 
ATOM     27  O   UNL     1       0.570  13.705  18.461  0.00  0.00    +0.000 OA
ENDBRANCH  20  27
ENDBRANCH  16  24
ENDBRANCH  15  17
ENDBRANCH   1  15
TORSDOF 4
ENDMDL
MODEL 4
REMARK VINA RESULT:      -7.3      4.314      7.415
REMARK  Name = 
REMARK  6 active torsions:
REMARK  status: ('A' for Active; 'I' for Inactive)
REMARK    1  A    between atoms: C_1  and  O_2
REMARK    2  A    between atoms: O_2  and  C_3
REMARK    3  A    between atoms: C_7  and  N_8
REMARK    4  A    between atoms: C_9  and  C_11
REMARK    5  A    between atoms: C_11  and  N_12
REMARK    6  A    between atoms: C_20  and  C_21
REMARK                            x       y       z     vdW  Elec       q    Type
REMARK                         _______ _______ _______ _____ _____    ______ ____
ROOT
ATOM      1  N   UNL     1       6.515   5.449  17.726  0.00  0.00    +0.000 N 
ATOM      2  C   UNL     1       5.602   5.181  18.758  0.00  0.00    +0.000 A 
ATOM      3  O   UNL     1       5.907   5.466  19.918  0.00  0.00    +0.000 OA
ATOM      4  N   UNL     1       4.380   4.589  18.494  0.00  0.00    +0.000 NA
ATOM      5  C   UNL     1       4.088   4.150  17.321  0.00  0.00    +0.000 A 
ATOM      6  N   UNL     1       2.909   3.531  17.022  0.00  0.00    +0.000 N 
ATOM      7  C   UNL     1       4.999   4.297  16.219  0.00  0.00    +0.000 A 
ATOM      8  C   UNL     1       4.975   3.799  14.880  0.00  0.00    +0.000 A 
ATOM      9  C   UNL     1       6.114   4.152  14.179  0.00  0.00    +0.000 A 
ATOM     10  C   UNL     1       6.542   3.729  12.818  0.00  0.00    +0.000 C 
ATOM     11  S   UNL     1       7.135   5.165  15.111  0.00  0.00    +0.000 S 
ATOM     12  C   UNL     1       6.159   4.977  16.474  0.00  0.00    +0.000 A 
ATOM     13  H   UNL     1       2.198   3.668  17.734  0.00  0.00    +0.000 HD
ATOM     14  H   UNL     1       2.557   3.618  16.079  0.00  0.00    +0.000 HD
ENDROOT
BRANCH   1  15
ATOM     15  C   UNL     1       7.807   6.024  18.091  0.00  0.00    +0.000 C 
BRANCH  15  17
ATOM     16  N   UNL     1       8.730   8.217  18.731  0.00  0.00    +0.000 N 
ATOM     17  C   UNL     1       7.814   7.549  17.926  0.00  0.00    +0.000 C 
ATOM     18  O   UNL     1       7.091   8.083  17.087  0.00  0.00    +0.000 OA
ATOM     19  H   UNL     1       9.438   7.648  19.192  0.00  0.00    +0.000 HD
BRANCH  16  24
ATOM     20  C   UNL     1       9.552  11.561  20.142  0.00  0.00    +0.000 A 
ATOM     21  C   UNL     1       9.254  12.401  19.067  0.00  0.00    +0.000 A 
ATOM     22  C   UNL     1       8.759  11.869  17.881  0.00  0.00    +0.000 A 
ATOM     23  C   UNL     1       8.573  10.491  17.758  0.00  0.00    +0.000 A 
ATOM     24  C   UNL     1       8.881   9.627  18.815  0.00  0.00    +0.000 A 
ATOM     25  C   UNL     1       9.351  10.178  20.018  0.00  0.00    +0.000 A 
BRANCH  20  27
ATOM     26  C   UNL     1       9.121  13.067  21.932  0.00  0.00    +0.000 C 
ATOM     27  O   UNL     1      10.027  12.214  21.247  0.00  0.00    +0.000 OA
ENDBRANCH  20  27
ENDBRANCH  16  24
ENDBRANCH  15  17
ENDBRANCH   1  15
TORSDOF 4
ENDMDL
MODEL 5
REMARK VINA RESULT:      -7.3      2.037      2.928
REMARK  Name = 
REMARK  6 active torsions:
REMARK  status: ('A' for Active; 'I' for Inactive)
REMARK    1  A    between atoms: C_1  and  O_2
REMARK    2  A    between atoms: O_2  and  C_3
REMARK    3  A    between atoms: C_7  and  N_8
REMARK    4  A    between atoms: C_9  and  C_11
REMARK    5  A    between atoms: C_11  and  N_12
REMARK    6  A    between atoms: C_20  and  C_21
REMARK                            x       y       z     vdW  Elec       q    Type
REMARK                         _______ _______ _______ _____ _____    ______ ____
ROOT
ATOM      1  N   UNL     1       4.799   4.663  18.923  0.00  0.00    +0.000 N 
ATOM      2  C   UNL     1       4.367   3.507  19.593  0.00  0.00    +0.000 A 
ATOM      3  O   UNL     1       5.081   2.502  19.576  0.00  0.00    +0.000 OA
ATOM      4  N   UNL     1       3.152   3.475  20.252  0.00  0.00    +0.000 NA
ATOM      5  C   UNL     1       2.321   4.454  20.171  0.00  0.00    +0.000 A 
ATOM      6  N   UNL     1       1.098   4.453  20.778  0.00  0.00    +0.000 N 
ATOM      7  C   UNL     1       2.637   5.645  19.431  0.00  0.00    +0.000 A 
ATOM      8  C   UNL     1       1.862   6.794  19.085  0.00  0.00    +0.000 A 
ATOM      9  C   UNL     1       2.577   7.679  18.299  0.00  0.00    +0.000 A 
ATOM     10  C   UNL     1       2.107   8.918  17.620  0.00  0.00    +0.000 C 
ATOM     11  S   UNL     1       4.197   7.160  18.084  0.00  0.00    +0.000 S 
ATOM     12  C   UNL     1       3.885   5.702  18.872  0.00  0.00    +0.000 A 
ATOM     13  H   UNL     1       1.008   3.733  21.487  0.00  0.00    +0.000 HD
ATOM     14  H   UNL     1       0.710   5.344  21.057  0.00  0.00    +0.000 HD
ENDROOT
BRANCH   1  15
ATOM     15  C   UNL     1       6.068   4.600  18.204  0.00  0.00    +0.000 C 
BRANCH  15  17
ATOM     16  N   UNL     1       6.955   4.618  15.905  0.00  0.00    +0.000 N 
ATOM     17  C   UNL     1       5.858   4.328  16.709  0.00  0.00    +0.000 C 
ATOM     18  O   UNL     1       4.804   3.833  16.314  0.00  0.00    +0.000 OA
ATOM     19  H   UNL     1       7.841   4.782  16.378  0.00  0.00    +0.000 HD
BRANCH  16  24
ATOM     20  C   UNL     1       6.195   3.395  12.473  0.00  0.00    +0.000 A 
ATOM     21  C   UNL     1       6.951   4.269  11.689  0.00  0.00    +0.000 A 
ATOM     22  C   UNL     1       7.732   5.250  12.291  0.00  0.00    +0.000 A 
ATOM     23  C   UNL     1       7.750   5.372  13.682  0.00  0.00    +0.000 A 
ATOM     24  C   UNL     1       6.987   4.520  14.488  0.00  0.00    +0.000 A 
ATOM     25  C   UNL     1       6.227   3.513  13.871  0.00  0.00    +0.000 A 
BRANCH  20  27
ATOM     26  C   UNL     1       6.204   1.419  11.150  0.00  0.00    +0.000 C 
ATOM     27  O   UNL     1       5.477   2.478  11.755  0.00  0.00    +0.000 OA
ENDBRANCH  20  27
ENDBRANCH  16  24
ENDBRANCH  15  17
ENDBRANCH   1  15
TORSDOF 4
ENDMDL
MODEL 6
REMARK VINA RESULT:      -7.3      1.127      1.139
REMARK  Name = 
REMARK  6 active torsions:
REMARK  status: ('A' for Active; 'I' for Inactive)
REMARK    1  A    between atoms: C_1  and  O_2
REMARK    2  A    between atoms: O_2  and  C_3
REMARK    3  A    between atoms: C_7  and  N_8
REMARK    4  A    between atoms: C_9  and  C_11
REMARK    5  A    between atoms: C_11  and  N_12
REMARK    6  A    between atoms: C_20  and  C_21
REMARK                            x       y       z     vdW  Elec       q    Type
REMARK                         _______ _______ _______ _____ _____    ______ ____
ROOT
ATOM      1  N   UNL     1       4.438   5.322  18.501  0.00  0.00    +0.000 N 
ATOM      2  C   UNL     1       4.406   6.684  18.162  0.00  0.00    +0.000 A 
ATOM      3  O   UNL     1       5.344   7.167  17.525  0.00  0.00    +0.000 OA
ATOM      4  N   UNL     1       3.350   7.491  18.548  0.00  0.00    +0.000 NA
ATOM      5  C   UNL     1       2.428   7.056  19.332  0.00  0.00    +0.000 A 
ATOM      6  N   UNL     1       1.386   7.825  19.764  0.00  0.00    +0.000 N 
ATOM      7  C   UNL     1       2.426   5.699  19.805  0.00  0.00    +0.000 A 
ATOM      8  C   UNL     1       1.611   5.017  20.760  0.00  0.00    +0.000 A 
ATOM      9  C   UNL     1       2.018   3.708  20.942  0.00  0.00    +0.000 A 
ATOM     10  C   UNL     1       1.532   2.706  21.930  0.00  0.00    +0.000 C 
ATOM     11  S   UNL     1       3.300   3.297  19.881  0.00  0.00    +0.000 S 
ATOM     12  C   UNL     1       3.420   4.887  19.332  0.00  0.00    +0.000 A 
ATOM     13  H   UNL     1       1.271   8.677  19.224  0.00  0.00    +0.000 HD
ATOM     14  H   UNL     1       0.513   7.360  19.973  0.00  0.00    +0.000 HD
ENDROOT
BRANCH   1  15
ATOM     15  C   UNL     1       5.613   4.549  18.106  0.00  0.00    +0.000 C 
BRANCH  15  17
ATOM     16  N   UNL     1       6.631   4.685  15.867  0.00  0.00    +0.000 N 
ATOM     17  C   UNL     1       5.575   4.181  16.618  0.00  0.00    +0.000 C 
ATOM     18  O   UNL     1       4.691   3.443  16.187  0.00  0.00    +0.000 OA
ATOM     19  H   UNL     1       7.422   5.065  16.383  0.00  0.00    +0.000 HD
BRANCH  16  24
ATOM     20  C   UNL     1       6.074   3.445  12.402  0.00  0.00    +0.000 A 
ATOM     21  C   UNL     1       6.981   4.220  11.677  0.00  0.00    +0.000 A 
ATOM     22  C   UNL     1       7.797   5.137  12.331  0.00  0.00    +0.000 A 
ATOM     23  C   UNL     1       7.698   5.296  13.715  0.00  0.00    +0.000 A 
ATOM     24  C   UNL     1       6.784   4.544  14.462  0.00  0.00    +0.000 A 
ATOM     25  C   UNL     1       5.988   3.599  13.795  0.00  0.00    +0.000 A 
BRANCH  20  27
ATOM     26  C   UNL     1       4.088   3.052  11.155  0.00  0.00    +0.000 C 
ATOM     27  O   UNL     1       5.338   2.582  11.637  0.00  0.00    +0.000 OA
ENDBRANCH  20  27
ENDBRANCH  16  24
ENDBRANCH  15  17
ENDBRANCH   1  15
TORSDOF 4
ENDMDL
MODEL 7
REMARK VINA RESULT:      -7.2      3.015      7.294
REMARK  Name = 
REMARK  6 active torsions:
REMARK  status: ('A' for Active; 'I' for Inactive)
REMARK    1  A    between atoms: C_1  and  O_2
REMARK    2  A    between atoms: O_2  and  C_3
REMARK    3  A    between atoms: C_7  and  N_8
REMARK    4  A    between atoms: C_9  and  C_11
REMARK    5  A    between atoms: C_11  and  N_12
REMARK    6  A    between atoms: C_20  and  C_21
REMARK                            x       y       z     vdW  Elec       q    Type
REMARK                         _______ _______ _______ _____ _____    ______ ____
ROOT
ATOM      1  N   UNL     1       4.517   4.084  18.082  0.00  0.00    +0.000 N 
ATOM      2  C   UNL     1       4.851   4.373  19.415  0.00  0.00    +0.000 A 
ATOM      3  O   UNL     1       3.970   4.334  20.277  0.00  0.00    +0.000 OA
ATOM      4  N   UNL     1       6.143   4.716  19.769  0.00  0.00    +0.000 NA
ATOM      5  C   UNL     1       7.053   4.905  18.879  0.00  0.00    +0.000 A 
ATOM      6  N   UNL     1       8.332   5.275  19.180  0.00  0.00    +0.000 N 
ATOM      7  C   UNL     1       6.780   4.722  17.480  0.00  0.00    +0.000 A 
ATOM      8  C   UNL     1       7.556   4.983  16.309  0.00  0.00    +0.000 A 
ATOM      9  C   UNL     1       6.853   4.701  15.152  0.00  0.00    +0.000 A 
ATOM     10  C   UNL     1       7.239   4.956  13.737  0.00  0.00    +0.000 C 
ATOM     11  S   UNL     1       5.316   4.027  15.501  0.00  0.00    +0.000 S 
ATOM     12  C   UNL     1       5.526   4.283  17.155  0.00  0.00    +0.000 A 
ATOM     13  H   UNL     1       8.562   5.148  20.160  0.00  0.00    +0.000 HD
ATOM     14  H   UNL     1       9.068   4.979  18.552  0.00  0.00    +0.000 HD
ENDROOT
BRANCH   1  15
ATOM     15  C   UNL     1       3.120   3.786  17.779  0.00  0.00    +0.000 C 
BRANCH  15  17
ATOM     16  N   UNL     1       2.889   6.168  18.361  0.00  0.00    +0.000 N 
ATOM     17  C   UNL     1       2.238   5.037  17.884  0.00  0.00    +0.000 C 
ATOM     18  O   UNL     1       1.069   5.002  17.503  0.00  0.00    +0.000 OA
ATOM     19  H   UNL     1       3.905   6.132  18.401  0.00  0.00    +0.000 HD
BRANCH  16  24
ATOM     20  C   UNL     1       1.245   8.937  20.227  0.00  0.00    +0.000 A 
ATOM     21  C   UNL     1       1.095   9.900  19.228  0.00  0.00    +0.000 A 
ATOM     22  C   UNL     1       1.514   9.631  17.929  0.00  0.00    +0.000 A 
ATOM     23  C   UNL     1       2.101   8.400  17.626  0.00  0.00    +0.000 A 
ATOM     24  C   UNL     1       2.278   7.425  18.614  0.00  0.00    +0.000 A 
ATOM     25  C   UNL     1       1.823   7.697  19.915  0.00  0.00    +0.000 A 
BRANCH  20  27
ATOM     26  C   UNL     1      -0.343   8.645  21.974  0.00  0.00    +0.000 C 
ATOM     27  O   UNL     1       0.789   9.330  21.456  0.00  0.00    +0.000 OA
ENDBRANCH  20  27
ENDBRANCH  16  24
ENDBRANCH  15  17
ENDBRANCH   1  15
TORSDOF 4
ENDMDL
MODEL 8
REMARK VINA RESULT:      -7.1      5.478      8.056
REMARK  Name = 
REMARK  6 active torsions:
REMARK  status: ('A' for Active; 'I' for Inactive)
REMARK    1  A    between atoms: C_1  and  O_2
REMARK    2  A    between atoms: O_2  and  C_3
REMARK    3  A    between atoms: C_7  and  N_8
REMARK    4  A    between atoms: C_9  and  C_11
REMARK    5  A    between atoms: C_11  and  N_12
REMARK    6  A    between atoms: C_20  and  C_21
REMARK                            x       y       z     vdW  Elec       q    Type
REMARK                         _______ _______ _______ _____ _____    ______ ____
ROOT
ATOM      1  N   UNL     1       0.424  10.204  21.689  0.00  0.00    +0.000 N 
ATOM      2  C   UNL     1      -0.061  10.285  23.004  0.00  0.00    +0.000 A 
ATOM      3  O   UNL     1       0.500   9.638  23.892  0.00  0.00    +0.000 OA
ATOM      4  N   UNL     1      -1.164  11.061  23.311  0.00  0.00    +0.000 NA
ATOM      5  C   UNL     1      -1.857  11.633  22.391  0.00  0.00    +0.000 A 
ATOM      6  N   UNL     1      -2.970  12.382  22.645  0.00  0.00    +0.000 N 
ATOM      7  C   UNL     1      -1.490  11.532  21.005  0.00  0.00    +0.000 A 
ATOM      8  C   UNL     1      -2.142  11.954  19.806  0.00  0.00    +0.000 A 
ATOM      9  C   UNL     1      -1.432  11.586  18.678  0.00  0.00    +0.000 A 
ATOM     10  C   UNL     1      -1.821  11.711  17.246  0.00  0.00    +0.000 C 
ATOM     11  S   UNL     1       0.055  10.838  19.088  0.00  0.00    +0.000 S 
ATOM     12  C   UNL     1      -0.338  10.847  20.729  0.00  0.00    +0.000 A 
ATOM     13  H   UNL     1      -3.056  12.646  23.622  0.00  0.00    +0.000 HD
ATOM     14  H   UNL     1      -3.189  13.132  22.005  0.00  0.00    +0.000 HD
ENDROOT
BRANCH   1  15
ATOM     15  C   UNL     1       1.558   9.319  21.434  0.00  0.00    +0.000 C 
BRANCH  15  17
ATOM     16  N   UNL     1       2.116   7.084  20.561  0.00  0.00    +0.000 N 
ATOM     17  C   UNL     1       1.099   7.918  21.010  0.00  0.00    +0.000 C 
ATOM     18  O   UNL     1      -0.080   7.590  21.139  0.00  0.00    +0.000 OA
ATOM     19  H   UNL     1       3.071   7.386  20.740  0.00  0.00    +0.000 HD
BRANCH  16  24
ATOM     20  C   UNL     1       2.375   4.170  18.260  0.00  0.00    +0.000 A 
ATOM     21  C   UNL     1       1.682   3.188  18.970  0.00  0.00    +0.000 A 
ATOM     22  C   UNL     1       1.106   3.490  20.200  0.00  0.00    +0.000 A 
ATOM     23  C   UNL     1       1.234   4.774  20.734  0.00  0.00    +0.000 A 
ATOM     24  C   UNL     1       1.939   5.770  20.050  0.00  0.00    +0.000 A 
ATOM     25  C   UNL     1       2.489   5.463  18.795  0.00  0.00    +0.000 A 
BRANCH  20  27
ATOM     26  C   UNL     1       4.250   4.039  16.803  0.00  0.00    +0.000 C 
ATOM     27  O   UNL     1       2.887   3.741  17.066  0.00  0.00    +0.000 OA
ENDBRANCH  20  27
ENDBRANCH  16  24
ENDBRANCH  15  17
ENDBRANCH   1  15
TORSDOF 4
ENDMDL
MODEL 9
REMARK VINA RESULT:      -7.1      4.642      8.595
REMARK  Name = 
REMARK  6 active torsions:
REMARK  status: ('A' for Active; 'I' for Inactive)
REMARK    1  A    between atoms: C_1  and  O_2
REMARK    2  A    between atoms: O_2  and  C_3
REMARK    3  A    between atoms: C_7  and  N_8
REMARK    4  A    between atoms: C_9  and  C_11
REMARK    5  A    between atoms: C_11  and  N_12
REMARK    6  A    between atoms: C_20  and  C_21
REMARK                            x       y       z     vdW  Elec       q    Type
REMARK                         _______ _______ _______ _____ _____    ______ ____
ROOT
ATOM      1  N   UNL     1       2.714   5.851  18.944  0.00  0.00    +0.000 N 
ATOM      2  C   UNL     1       1.866   4.929  19.580  0.00  0.00    +0.000 A 
ATOM      3  O   UNL     1       1.246   5.279  20.586  0.00  0.00    +0.000 OA
ATOM      4  N   UNL     1       1.733   3.637  19.105  0.00  0.00    +0.000 NA
ATOM      5  C   UNL     1       2.469   3.197  18.147  0.00  0.00    +0.000 A 
ATOM      6  N   UNL     1       2.395   1.920  17.668  0.00  0.00    +0.000 N 
ATOM      7  C   UNL     1       3.432   4.041  17.494  0.00  0.00    +0.000 A 
ATOM      8  C   UNL     1       4.437   3.772  16.515  0.00  0.00    +0.000 A 
ATOM      9  C   UNL     1       5.180   4.900  16.218  0.00  0.00    +0.000 A 
ATOM     10  C   UNL     1       6.393   5.023  15.363  0.00  0.00    +0.000 C 
ATOM     11  S   UNL     1       4.582   6.280  17.040  0.00  0.00    +0.000 S 
ATOM     12  C   UNL     1       3.478   5.345  17.906  0.00  0.00    +0.000 A 
ATOM     13  H   UNL     1       1.553   1.435  17.961  0.00  0.00    +0.000 HD
ATOM     14  H   UNL     1       2.630   1.768  16.696  0.00  0.00    +0.000 HD
ENDROOT
BRANCH   1  15
ATOM     15  C   UNL     1       2.845   7.179  19.539  0.00  0.00    +0.000 C 
BRANCH  15  17
ATOM     16  N   UNL     1       1.141   8.937  19.813  0.00  0.00    +0.000 N 
ATOM     17  C   UNL     1       1.872   8.181  18.904  0.00  0.00    +0.000 C 
ATOM     18  O   UNL     1       1.828   8.309  17.682  0.00  0.00    +0.000 OA
ATOM     19  H   UNL     1       1.449   8.914  20.783  0.00  0.00    +0.000 HD
BRANCH  16  24
ATOM     20  C   UNL     1      -1.260  11.757  20.177  0.00  0.00    +0.000 A 
ATOM     21  C   UNL     1      -1.831  11.806  18.904  0.00  0.00    +0.000 A 
ATOM     22  C   UNL     1      -1.444  10.895  17.928  0.00  0.00    +0.000 A 
ATOM     23  C   UNL     1      -0.469   9.936  18.216  0.00  0.00    +0.000 A 
ATOM     24  C   UNL     1       0.131   9.878  19.479  0.00  0.00    +0.000 A 
ATOM     25  C   UNL     1      -0.291  10.784  20.465  0.00  0.00    +0.000 A 
BRANCH  20  27
ATOM     26  C   UNL     1      -3.108  13.047  20.936  0.00  0.00    +0.000 C 
ATOM     27  O   UNL     1      -1.733  12.708  21.040  0.00  0.00    +0.000 OA
ENDBRANCH  20  27
ENDBRANCH  16  24
ENDBRANCH  15  17
ENDBRANCH   1  15
TORSDOF 4
ENDMDL
