MODEL 1
REMARK VINA RESULT:      -8.0      0.000      0.000
REMARK  Name = 
REMARK  6 active torsions:
REMARK  status: ('A' for Active; 'I' for Inactive)
REMARK    1  A    between atoms: C_1  and  C_2
REMARK    2  A    between atoms: C_6  and  N_7
REMARK    3  A    between atoms: C_8  and  S_9
REMARK    4  A    between atoms: N_10  and  N_11
REMARK    5  A    between atoms: N_11  and  C_12
REMARK    6  A    between atoms: C_15  and  C_16
REMARK                            x       y       z     vdW  Elec       q    Type
REMARK                         _______ _______ _______ _____ _____    ______ ____
ROOT
ATOM      1  N   UNL     1       7.310   5.220  14.987  0.00  0.00    +0.000 N 
ATOM      2  C   UNL     1       7.018   5.187  16.329  0.00  0.00    +0.000 C 
ATOM      3  N   UNL     1       6.531   4.175  16.983  0.00  0.00    +0.000 NA
ATOM      4  H   UNL     1       7.715   6.085  14.657  0.00  0.00    +0.000 HD
ENDROOT
BRANCH   1  10
ATOM      5  C   UNL     1       7.542   2.276  10.976  0.00  0.00    +0.000 C 
ATOM      6  C   UNL     1       6.728   3.054  11.965  0.00  0.00    +0.000 A 
ATOM      7  C   UNL     1       5.334   3.052  11.933  0.00  0.00    +0.000 A 
ATOM      8  C   UNL     1       4.613   3.775  12.881  0.00  0.00    +0.000 A 
ATOM      9  C   UNL     1       5.284   4.491  13.878  0.00  0.00    +0.000 A 
ATOM     10  C   UNL     1       6.684   4.486  13.958  0.00  0.00    +0.000 A 
ATOM     11  C   UNL     1       7.386   3.787  12.967  0.00  0.00    +0.000 A 
ENDBRANCH   1  10
BRANCH   2  12
ATOM     12  S   UNL     1       7.379   6.726  17.127  0.00  0.00    +0.000 S 
ATOM     13  H   UNL     1       6.120   7.173  17.169  0.00  0.00    +0.000 HD
ENDBRANCH   2  12
BRANCH   3  14
ATOM     14  N   UNL     1       6.321   4.293  18.320  0.00  0.00    +0.000 N 
ATOM     15  H   UNL     1       6.810   5.034  18.826  0.00  0.00    +0.000 HD
BRANCH  14  16
ATOM     16  C   UNL     1       5.026   4.172  18.840  0.00  0.00    +0.000 A 
ATOM     17  N   UNL     1       4.833   3.031  19.557  0.00  0.00    +0.000 NA
ATOM     18  C   UNL     1       3.615   2.801  20.101  0.00  0.00    +0.000 A 
ATOM     19  C   UNL     1       2.540   3.660  19.978  0.00  0.00    +0.000 A 
ATOM     20  C   UNL     1       2.737   4.827  19.236  0.00  0.00    +0.000 A 
ATOM     21  C   UNL     1       3.980   5.088  18.647  0.00  0.00    +0.000 A 
ATOM     22 CL   UNL     1       4.089   6.518  17.683  0.00  0.00    +0.000 Cl
BRANCH  19  23
ATOM     23  C   UNL     1       1.218   3.345  20.603  0.00  0.00    +0.000 C 
ATOM     24  F   UNL     1       0.513   2.391  19.934  0.00  0.00    +0.000 F 
ATOM     25  F   UNL     1       1.341   2.891  21.881  0.00  0.00    +0.000 F 
ATOM     26  F   UNL     1       0.402   4.432  20.670  0.00  0.00    +0.000 F 
ENDBRANCH  19  23
ENDBRANCH  14  16
ENDBRANCH   3  14
TORSDOF 5
ENDMDL
MODEL 2
REMARK VINA RESULT:      -7.8      1.436      1.842
REMARK  Name = 
REMARK  6 active torsions:
REMARK  status: ('A' for Active; 'I' for Inactive)
REMARK    1  A    between atoms: C_1  and  C_2
REMARK    2  A    between atoms: C_6  and  N_7
REMARK    3  A    between atoms: C_8  and  S_9
REMARK    4  A    between atoms: N_10  and  N_11
REMARK    5  A    between atoms: N_11  and  C_12
REMARK    6  A    between atoms: C_15  and  C_16
REMARK                            x       y       z     vdW  Elec       q    Type
REMARK                         _______ _______ _______ _____ _____    ______ ____
ROOT
ATOM      1  N   UNL     1       7.440   5.173  15.537  0.00  0.00    +0.000 N 
ATOM      2  C   UNL     1       6.534   5.774  16.376  0.00  0.00    +0.000 C 
ATOM      3  N   UNL     1       5.240   5.728  16.268  0.00  0.00    +0.000 NA
ATOM      4  H   UNL     1       8.409   5.290  15.797  0.00  0.00    +0.000 HD
ENDROOT
BRANCH   1  10
ATOM      5  C   UNL     1       5.341   2.565  11.848  0.00  0.00    +0.000 C 
ATOM      6  C   UNL     1       6.296   3.628  12.302  0.00  0.00    +0.000 A 
ATOM      7  C   UNL     1       7.023   4.397  11.395  0.00  0.00    +0.000 A 
ATOM      8  C   UNL     1       7.889   5.387  11.856  0.00  0.00    +0.000 A 
ATOM      9  C   UNL     1       8.018   5.624  13.228  0.00  0.00    +0.000 A 
ATOM     10  C   UNL     1       7.276   4.890  14.164  0.00  0.00    +0.000 A 
ATOM     11  C   UNL     1       6.446   3.871  13.677  0.00  0.00    +0.000 A 
ENDBRANCH   1  10
BRANCH   2  12
ATOM     12  S   UNL     1       7.328   6.666  17.684  0.00  0.00    +0.000 S 
ATOM     13  H   UNL     1       7.992   7.522  16.901  0.00  0.00    +0.000 HD
ENDBRANCH   2  12
BRANCH   3  14
ATOM     14  N   UNL     1       4.477   6.357  17.200  0.00  0.00    +0.000 N 
ATOM     15  H   UNL     1       3.879   7.129  16.899  0.00  0.00    +0.000 HD
BRANCH  14  16
ATOM     16  C   UNL     1       3.793   5.609  18.167  0.00  0.00    +0.000 A 
ATOM     17  N   UNL     1       4.126   4.289  18.168  0.00  0.00    +0.000 NA
ATOM     18  C   UNL     1       3.522   3.465  19.056  0.00  0.00    +0.000 A 
ATOM     19  C   UNL     1       2.577   3.880  19.975  0.00  0.00    +0.000 A 
ATOM     20  C   UNL     1       2.232   5.233  19.968  0.00  0.00    +0.000 A 
ATOM     21  C   UNL     1       2.826   6.109  19.053  0.00  0.00    +0.000 A 
ATOM     22 CL   UNL     1       2.264   7.743  19.077  0.00  0.00    +0.000 Cl
BRANCH  19  23
ATOM     23  C   UNL     1       1.945   2.916  20.929  0.00  0.00    +0.000 C 
ATOM     24  F   UNL     1       1.547   1.753  20.343  0.00  0.00    +0.000 F 
ATOM     25  F   UNL     1       2.784   2.557  21.939  0.00  0.00    +0.000 F 
ATOM     26  F   UNL     1       0.836   3.429  21.528  0.00  0.00    +0.000 F 
ENDBRANCH  19  23
ENDBRANCH  14  16
ENDBRANCH   3  14
TORSDOF 5
ENDMDL
MODEL 3
REMARK VINA RESULT:      -7.5      4.614      7.760
REMARK  Name = 
REMARK  6 active torsions:
REMARK  status: ('A' for Active; 'I' for Inactive)
REMARK    1  A    between atoms: C_1  and  C_2
REMARK    2  A    between atoms: C_6  and  N_7
REMARK    3  A    between atoms: C_8  and  S_9
REMARK    4  A    between atoms: N_10  and  N_11
REMARK    5  A    between atoms: N_11  and  C_12
REMARK    6  A    between atoms: C_15  and  C_16
REMARK                            x       y       z     vdW  Elec       q    Type
REMARK                         _______ _______ _______ _____ _____    ______ ____
ROOT
ATOM      1  N   UNL     1       2.589   5.877  20.191  0.00  0.00    +0.000 N 
ATOM      2  C   UNL     1       3.621   5.147  19.654  0.00  0.00    +0.000 C 
ATOM      3  N   UNL     1       4.675   5.627  19.066  0.00  0.00    +0.000 NA
ATOM      4  H   UNL     1       1.866   5.332  20.641  0.00  0.00    +0.000 HD
ENDROOT
BRANCH   1  10
ATOM      5  C   UNL     1       0.447  10.268  21.163  0.00  0.00    +0.000 C 
ATOM      6  C   UNL     1       1.066   9.318  20.182  0.00  0.00    +0.000 A 
ATOM      7  C   UNL     1       1.249   9.661  18.843  0.00  0.00    +0.000 A 
ATOM      8  C   UNL     1       1.843   8.756  17.966  0.00  0.00    +0.000 A 
ATOM      9  C   UNL     1       2.273   7.508  18.428  0.00  0.00    +0.000 A 
ATOM     10  C   UNL     1       2.133   7.146  19.776  0.00  0.00    +0.000 A 
ATOM     11  C   UNL     1       1.493   8.056  20.627  0.00  0.00    +0.000 A 
ENDBRANCH   1  10
BRANCH   2  12
ATOM     12  S   UNL     1       3.373   3.404  19.844  0.00  0.00    +0.000 S 
ATOM     13  H   UNL     1       2.568   3.251  18.787  0.00  0.00    +0.000 HD
ENDBRANCH   2  12
BRANCH   3  14
ATOM     14  N   UNL     1       5.625   4.770  18.609  0.00  0.00    +0.000 N 
ATOM     15  H   UNL     1       5.689   3.843  19.034  0.00  0.00    +0.000 HD
BRANCH  14  16
ATOM     16  C   UNL     1       5.859   4.651  17.233  0.00  0.00    +0.000 A 
ATOM     17  N   UNL     1       5.228   3.588  16.664  0.00  0.00    +0.000 NA
ATOM     18  C   UNL     1       5.389   3.366  15.338  0.00  0.00    +0.000 A 
ATOM     19  C   UNL     1       6.161   4.160  14.511  0.00  0.00    +0.000 A 
ATOM     20  C   UNL     1       6.813   5.247  15.098  0.00  0.00    +0.000 A 
ATOM     21  C   UNL     1       6.681   5.495  16.469  0.00  0.00    +0.000 A 
ATOM     22 CL   UNL     1       7.598   6.815  17.104  0.00  0.00    +0.000 Cl
BRANCH  19  23
ATOM     23  C   UNL     1       6.298   3.859  13.053  0.00  0.00    +0.000 C 
ATOM     24  F   UNL     1       7.218   4.640  12.421  0.00  0.00    +0.000 F 
ATOM     25  F   UNL     1       6.677   2.572  12.820  0.00  0.00    +0.000 F 
ATOM     26  F   UNL     1       5.132   4.035  12.373  0.00  0.00    +0.000 F 
ENDBRANCH  19  23
ENDBRANCH  14  16
ENDBRANCH   3  14
TORSDOF 5
ENDMDL
MODEL 4
REMARK VINA RESULT:      -7.4      0.822      1.450
REMARK  Name = 
REMARK  6 active torsions:
REMARK  status: ('A' for Active; 'I' for Inactive)
REMARK    1  A    between atoms: C_1  and  C_2
REMARK    2  A    between atoms: C_6  and  N_7
REMARK    3  A    between atoms: C_8  and  S_9
REMARK    4  A    between atoms: N_10  and  N_11
REMARK    5  A    between atoms: N_11  and  C_12
REMARK    6  A    between atoms: C_15  and  C_16
REMARK                            x       y       z     vdW  Elec       q    Type
REMARK                         _______ _______ _______ _____ _____    ______ ____
ROOT
ATOM      1  N   UNL     1       7.670   5.783  15.393  0.00  0.00    +0.000 N 
ATOM      2  C   UNL     1       7.225   5.545  16.671  0.00  0.00    +0.000 C 
ATOM      3  N   UNL     1       6.752   4.422  17.122  0.00  0.00    +0.000 NA
ATOM      4  H   UNL     1       8.037   6.711  15.232  0.00  0.00    +0.000 HD
ENDROOT
BRANCH   1  10
ATOM      5  C   UNL     1       4.322   3.105  12.857  0.00  0.00    +0.000 C 
ATOM      6  C   UNL     1       5.638   3.823  12.906  0.00  0.00    +0.000 A 
ATOM      7  C   UNL     1       6.455   3.934  11.782  0.00  0.00    +0.000 A 
ATOM      8  C   UNL     1       7.663   4.625  11.864  0.00  0.00    +0.000 A 
ATOM      9  C   UNL     1       8.051   5.222  13.068  0.00  0.00    +0.000 A 
ATOM     10  C   UNL     1       7.234   5.157  14.206  0.00  0.00    +0.000 A 
ATOM     11  C   UNL     1       6.047   4.420  14.109  0.00  0.00    +0.000 A 
ENDBRANCH   1  10
BRANCH   2  12
ATOM     12  S   UNL     1       7.359   6.980  17.700  0.00  0.00    +0.000 S 
ATOM     13  H   UNL     1       7.603   7.850  16.714  0.00  0.00    +0.000 HD
ENDBRANCH   2  12
BRANCH   3  14
ATOM     14  N   UNL     1       6.377   4.340  18.425  0.00  0.00    +0.000 N 
ATOM     15  H   UNL     1       6.775   5.005  19.089  0.00  0.00    +0.000 HD
BRANCH  14  16
ATOM     16  C   UNL     1       5.032   4.124  18.755  0.00  0.00    +0.000 A 
ATOM     17  N   UNL     1       4.834   3.028  19.537  0.00  0.00    +0.000 NA
ATOM     18  C   UNL     1       3.572   2.715  19.913  0.00  0.00    +0.000 A 
ATOM     19  C   UNL     1       2.455   3.444  19.552  0.00  0.00    +0.000 A 
ATOM     20  C   UNL     1       2.660   4.565  18.743  0.00  0.00    +0.000 A 
ATOM     21  C   UNL     1       3.950   4.908  18.324  0.00  0.00    +0.000 A 
ATOM     22 CL   UNL     1       4.078   6.263  17.259  0.00  0.00    +0.000 Cl
BRANCH  19  23
ATOM     23  C   UNL     1       1.086   3.042  20.000  0.00  0.00    +0.000 C 
ATOM     24  F   UNL     1       0.422   2.271  19.095  0.00  0.00    +0.000 F 
ATOM     25  F   UNL     1       1.106   2.325  21.157  0.00  0.00    +0.000 F 
ATOM     26  F   UNL     1       0.281   4.113  20.237  0.00  0.00    +0.000 F 
ENDBRANCH  19  23
ENDBRANCH  14  16
ENDBRANCH   3  14
TORSDOF 5
ENDMDL
MODEL 5
REMARK VINA RESULT:      -7.4      4.741      6.144
REMARK  Name = 
REMARK  6 active torsions:
REMARK  status: ('A' for Active; 'I' for Inactive)
REMARK    1  A    between atoms: C_1  and  C_2
REMARK    2  A    between atoms: C_6  and  N_7
REMARK    3  A    between atoms: C_8  and  S_9
REMARK    4  A    between atoms: N_10  and  N_11
REMARK    5  A    between atoms: N_11  and  C_12
REMARK    6  A    between atoms: C_15  and  C_16
REMARK                            x       y       z     vdW  Elec       q    Type
REMARK                         _______ _______ _______ _____ _____    ______ ____
ROOT
ATOM      1  N   UNL     1       3.549   4.034  18.747  0.00  0.00    +0.000 N 
ATOM      2  C   UNL     1       2.995   4.925  19.634  0.00  0.00    +0.000 C 
ATOM      3  N   UNL     1       3.041   6.220  19.549  0.00  0.00    +0.000 NA
ATOM      4  H   UNL     1       3.384   3.059  18.958  0.00  0.00    +0.000 HD
ENDROOT
BRANCH   1  10
ATOM      5  C   UNL     1       5.746   4.208  14.280  0.00  0.00    +0.000 C 
ATOM      6  C   UNL     1       5.838   4.309  15.773  0.00  0.00    +0.000 A 
ATOM      7  C   UNL     1       7.032   4.634  16.414  0.00  0.00    +0.000 A 
ATOM      8  C   UNL     1       7.073   4.734  17.804  0.00  0.00    +0.000 A 
ATOM      9  C   UNL     1       5.914   4.525  18.558  0.00  0.00    +0.000 A 
ATOM     10  C   UNL     1       4.690   4.229  17.940  0.00  0.00    +0.000 A 
ATOM     11  C   UNL     1       4.686   4.092  16.546  0.00  0.00    +0.000 A 
ENDBRANCH   1  10
BRANCH   2  12
ATOM     12  S   UNL     1       2.173   4.108  20.973  0.00  0.00    +0.000 S 
ATOM     13  H   UNL     1       1.025   3.879  20.327  0.00  0.00    +0.000 HD
ENDBRANCH   2  12
BRANCH   3  14
ATOM     14  N   UNL     1       2.417   6.967  20.497  0.00  0.00    +0.000 N 
ATOM     15  H   UNL     1       2.935   7.212  21.342  0.00  0.00    +0.000 HD
BRANCH  14  16
ATOM     16  C   UNL     1       1.626   8.060  20.121  0.00  0.00    +0.000 A 
ATOM     17  N   UNL     1       0.725   8.432  21.072  0.00  0.00    +0.000 NA
ATOM     18  C   UNL     1      -0.101   9.472  20.816  0.00  0.00    +0.000 A 
ATOM     19  C   UNL     1      -0.092  10.194  19.638  0.00  0.00    +0.000 A 
ATOM     20  C   UNL     1       0.828   9.807  18.660  0.00  0.00    +0.000 A 
ATOM     21  C   UNL     1       1.686   8.725  18.886  0.00  0.00    +0.000 A 
ATOM     22 CL   UNL     1       2.725   8.280  17.579  0.00  0.00    +0.000 Cl
BRANCH  19  23
ATOM     23  C   UNL     1      -1.035  11.334  19.417  0.00  0.00    +0.000 C 
ATOM     24  F   UNL     1      -1.407  11.963  20.566  0.00  0.00    +0.000 F 
ATOM     25  F   UNL     1      -0.505  12.300  18.617  0.00  0.00    +0.000 F 
ATOM     26  F   UNL     1      -2.191  10.943  18.816  0.00  0.00    +0.000 F 
ENDBRANCH  19  23
ENDBRANCH  14  16
ENDBRANCH   3  14
TORSDOF 5
ENDMDL
MODEL 6
REMARK VINA RESULT:      -7.3      4.619      7.782
REMARK  Name = 
REMARK  6 active torsions:
REMARK  status: ('A' for Active; 'I' for Inactive)
REMARK    1  A    between atoms: C_1  and  C_2
REMARK    2  A    between atoms: C_6  and  N_7
REMARK    3  A    between atoms: C_8  and  S_9
REMARK    4  A    between atoms: N_10  and  N_11
REMARK    5  A    between atoms: N_11  and  C_12
REMARK    6  A    between atoms: C_15  and  C_16
REMARK                            x       y       z     vdW  Elec       q    Type
REMARK                         _______ _______ _______ _____ _____    ______ ____
ROOT
ATOM      1  N   UNL     1       3.260   5.795  20.052  0.00  0.00    +0.000 N 
ATOM      2  C   UNL     1       4.277   5.130  19.411  0.00  0.00    +0.000 C 
ATOM      3  N   UNL     1       5.153   5.658  18.610  0.00  0.00    +0.000 NA
ATOM      4  H   UNL     1       2.693   5.226  20.665  0.00  0.00    +0.000 HD
ENDROOT
BRANCH   1  10
ATOM      5  C   UNL     1       0.377   9.759  20.943  0.00  0.00    +0.000 C 
ATOM      6  C   UNL     1       1.154   8.913  19.979  0.00  0.00    +0.000 A 
ATOM      7  C   UNL     1       1.274   9.256  18.633  0.00  0.00    +0.000 A 
ATOM      8  C   UNL     1       2.018   8.452  17.772  0.00  0.00    +0.000 A 
ATOM      9  C   UNL     1       2.661   7.309  18.258  0.00  0.00    +0.000 A 
ATOM     10  C   UNL     1       2.587   6.956  19.613  0.00  0.00    +0.000 A 
ATOM     11  C   UNL     1       1.797   7.756  20.448  0.00  0.00    +0.000 A 
ENDBRANCH   1  10
BRANCH   2  12
ATOM     12  S   UNL     1       4.284   3.401  19.791  0.00  0.00    +0.000 S 
ATOM     13  H   UNL     1       5.452   3.395  20.441  0.00  0.00    +0.000 HD
ENDBRANCH   2  12
BRANCH   3  14
ATOM     14  N   UNL     1       6.118   4.866  18.073  0.00  0.00    +0.000 N 
ATOM     15  H   UNL     1       6.385   4.017  18.574  0.00  0.00    +0.000 HD
BRANCH  14  16
ATOM     16  C   UNL     1       6.120   4.597  16.699  0.00  0.00    +0.000 A 
ATOM     17  N   UNL     1       7.274   4.960  16.075  0.00  0.00    +0.000 NA
ATOM     18  C   UNL     1       7.388   4.756  14.742  0.00  0.00    +0.000 A 
ATOM     19  C   UNL     1       6.396   4.195  13.960  0.00  0.00    +0.000 A 
ATOM     20  C   UNL     1       5.209   3.830  14.599  0.00  0.00    +0.000 A 
ATOM     21  C   UNL     1       5.053   4.042  15.974  0.00  0.00    +0.000 A 
ATOM     22 CL   UNL     1       3.515   3.631  16.646  0.00  0.00    +0.000 Cl
BRANCH  19  23
ATOM     23  C   UNL     1       6.585   3.998  12.489  0.00  0.00    +0.000 C 
ATOM     24  F   UNL     1       7.117   2.788  12.166  0.00  0.00    +0.000 F 
ATOM     25  F   UNL     1       5.415   4.089  11.797  0.00  0.00    +0.000 F 
ATOM     26  F   UNL     1       7.416   4.928  11.943  0.00  0.00    +0.000 F 
ENDBRANCH  19  23
ENDBRANCH  14  16
ENDBRANCH   3  14
TORSDOF 5
ENDMDL
MODEL 7
REMARK VINA RESULT:      -7.3      5.120      6.526
REMARK  Name = 
REMARK  6 active torsions:
REMARK  status: ('A' for Active; 'I' for Inactive)
REMARK    1  A    between atoms: C_1  and  C_2
REMARK    2  A    between atoms: C_6  and  N_7
REMARK    3  A    between atoms: C_8  and  S_9
REMARK    4  A    between atoms: N_10  and  N_11
REMARK    5  A    between atoms: N_11  and  C_12
REMARK    6  A    between atoms: C_15  and  C_16
REMARK                            x       y       z     vdW  Elec       q    Type
REMARK                         _______ _______ _______ _____ _____    ______ ____
ROOT
ATOM      1  N   UNL     1       3.271   4.424  18.688  0.00  0.00    +0.000 N 
ATOM      2  C   UNL     1       2.740   5.339  19.564  0.00  0.00    +0.000 C 
ATOM      3  N   UNL     1       2.927   6.625  19.536  0.00  0.00    +0.000 NA
ATOM      4  H   UNL     1       2.989   3.466  18.844  0.00  0.00    +0.000 HD
ENDROOT
BRANCH   1  10
ATOM      5  C   UNL     1       5.861   4.328  14.433  0.00  0.00    +0.000 C 
ATOM      6  C   UNL     1       5.827   4.466  15.926  0.00  0.00    +0.000 A 
ATOM      7  C   UNL     1       6.979   4.734  16.664  0.00  0.00    +0.000 A 
ATOM      8  C   UNL     1       6.903   4.872  18.049  0.00  0.00    +0.000 A 
ATOM      9  C   UNL     1       5.670   4.759  18.701  0.00  0.00    +0.000 A 
ATOM     10  C   UNL     1       4.489   4.523  17.982  0.00  0.00    +0.000 A 
ATOM     11  C   UNL     1       4.599   4.345  16.597  0.00  0.00    +0.000 A 
ENDBRANCH   1  10
BRANCH   2  12
ATOM     12  S   UNL     1       1.730   4.571  20.798  0.00  0.00    +0.000 S 
ATOM     13  H   UNL     1       0.553   4.905  20.259  0.00  0.00    +0.000 HD
ENDBRANCH   2  12
BRANCH   3  14
ATOM     14  N   UNL     1       2.307   7.402  20.462  0.00  0.00    +0.000 N 
ATOM     15  H   UNL     1       2.849   7.734  21.261  0.00  0.00    +0.000 HD
BRANCH  14  16
ATOM     16  C   UNL     1       1.437   8.421  20.053  0.00  0.00    +0.000 A 
ATOM     17  N   UNL     1       1.510   8.696  18.722  0.00  0.00    +0.000 NA
ATOM     18  C   UNL     1       0.721   9.671  18.213  0.00  0.00    +0.000 A 
ATOM     19  C   UNL     1      -0.168  10.416  18.964  0.00  0.00    +0.000 A 
ATOM     20  C   UNL     1      -0.237  10.137  20.331  0.00  0.00    +0.000 A 
ATOM     21  C   UNL     1       0.577   9.147  20.892  0.00  0.00    +0.000 A 
ATOM     22 CL   UNL     1       0.471   8.943  22.605  0.00  0.00    +0.000 Cl
BRANCH  19  23
ATOM     23  C   UNL     1      -1.011  11.482  18.339  0.00  0.00    +0.000 C 
ATOM     24  F   UNL     1      -2.021  11.917  19.142  0.00  0.00    +0.000 F 
ATOM     25  F   UNL     1      -0.291  12.589  18.010  0.00  0.00    +0.000 F 
ATOM     26  F   UNL     1      -1.605  11.066  17.187  0.00  0.00    +0.000 F 
ENDBRANCH  19  23
ENDBRANCH  14  16
ENDBRANCH   3  14
TORSDOF 5
ENDMDL
MODEL 8
REMARK VINA RESULT:      -7.2      5.608      7.202
REMARK  Name = 
REMARK  6 active torsions:
REMARK  status: ('A' for Active; 'I' for Inactive)
REMARK    1  A    between atoms: C_1  and  C_2
REMARK    2  A    between atoms: C_6  and  N_7
REMARK    3  A    between atoms: C_8  and  S_9
REMARK    4  A    between atoms: N_10  and  N_11
REMARK    5  A    between atoms: N_11  and  C_12
REMARK    6  A    between atoms: C_15  and  C_16
REMARK                            x       y       z     vdW  Elec       q    Type
REMARK                         _______ _______ _______ _____ _____    ______ ____
ROOT
ATOM      1  N   UNL     1       3.243   4.975  18.722  0.00  0.00    +0.000 N 
ATOM      2  C   UNL     1       2.509   5.747  19.589  0.00  0.00    +0.000 C 
ATOM      3  N   UNL     1       2.540   7.043  19.677  0.00  0.00    +0.000 NA
ATOM      4  H   UNL     1       3.064   3.982  18.773  0.00  0.00    +0.000 HD
ENDROOT
BRANCH   1  10
ATOM      5  C   UNL     1       8.134   5.758  19.258  0.00  0.00    +0.000 C 
ATOM      6  C   UNL     1       6.922   5.688  18.378  0.00  0.00    +0.000 A 
ATOM      7  C   UNL     1       7.006   5.871  16.998  0.00  0.00    +0.000 A 
ATOM      8  C   UNL     1       5.859   5.783  16.211  0.00  0.00    +0.000 A 
ATOM      9  C   UNL     1       4.624   5.493  16.800  0.00  0.00    +0.000 A 
ATOM     10  C   UNL     1       4.512   5.270  18.180  0.00  0.00    +0.000 A 
ATOM     11  C   UNL     1       5.672   5.409  18.954  0.00  0.00    +0.000 A 
ENDBRANCH   1  10
BRANCH   2  12
ATOM     12  S   UNL     1       1.465   4.767  20.632  0.00  0.00    +0.000 S 
ATOM     13  H   UNL     1       1.865   3.578  20.169  0.00  0.00    +0.000 HD
ENDBRANCH   2  12
BRANCH   3  14
ATOM     14  N   UNL     1       1.728   7.663  20.573  0.00  0.00    +0.000 N 
ATOM     15  H   UNL     1       2.055   7.769  21.534  0.00  0.00    +0.000 HD
BRANCH  14  16
ATOM     16  C   UNL     1       1.034   8.823  20.204  0.00  0.00    +0.000 A 
ATOM     17  N   UNL     1       1.390   9.304  18.982  0.00  0.00    +0.000 NA
ATOM     18  C   UNL     1       0.791  10.428  18.523  0.00  0.00    +0.000 A 
ATOM     19  C   UNL     1      -0.173  11.129  19.222  0.00  0.00    +0.000 A 
ATOM     20  C   UNL     1      -0.532  10.638  20.479  0.00  0.00    +0.000 A 
ATOM     21  C   UNL     1       0.079   9.487  20.990  0.00  0.00    +0.000 A 
ATOM     22 CL   UNL     1      -0.380   9.017  22.588  0.00  0.00    +0.000 Cl
BRANCH  19  23
ATOM     23  C   UNL     1      -0.796  12.367  18.658  0.00  0.00    +0.000 C 
ATOM     24  F   UNL     1      -1.677  12.122  17.650  0.00  0.00    +0.000 F 
ATOM     25  F   UNL     1      -1.486  13.075  19.594  0.00  0.00    +0.000 F 
ATOM     26  F   UNL     1       0.127  13.225  18.144  0.00  0.00    +0.000 F 
ENDBRANCH  19  23
ENDBRANCH  14  16
ENDBRANCH   3  14
TORSDOF 5
ENDMDL
MODEL 9
REMARK VINA RESULT:      -7.2      5.423      6.882
REMARK  Name = 
REMARK  6 active torsions:
REMARK  status: ('A' for Active; 'I' for Inactive)
REMARK    1  A    between atoms: C_1  and  C_2
REMARK    2  A    between atoms: C_6  and  N_7
REMARK    3  A    between atoms: C_8  and  S_9
REMARK    4  A    between atoms: N_10  and  N_11
REMARK    5  A    between atoms: N_11  and  C_12
REMARK    6  A    between atoms: C_15  and  C_16
REMARK                            x       y       z     vdW  Elec       q    Type
REMARK                         _______ _______ _______ _____ _____    ______ ____
ROOT
ATOM      1  N   UNL     1       3.276   4.736  18.576  0.00  0.00    +0.000 N 
ATOM      2  C   UNL     1       2.694   5.595  19.476  0.00  0.00    +0.000 C 
ATOM      3  N   UNL     1       2.664   6.891  19.389  0.00  0.00    +0.000 NA
ATOM      4  H   UNL     1       3.171   3.754  18.791  0.00  0.00    +0.000 HD
ENDROOT
BRANCH   1  10
ATOM      5  C   UNL     1       7.445   7.251  17.523  0.00  0.00    +0.000 C 
ATOM      6  C   UNL     1       6.431   6.210  17.152  0.00  0.00    +0.000 A 
ATOM      7  C   UNL     1       6.562   5.437  15.999  0.00  0.00    +0.000 A 
ATOM      8  C   UNL     1       5.607   4.468  15.697  0.00  0.00    +0.000 A 
ATOM      9  C   UNL     1       4.525   4.256  16.557  0.00  0.00    +0.000 A 
ATOM     10  C   UNL     1       4.383   4.994  17.741  0.00  0.00    +0.000 A 
ATOM     11  C   UNL     1       5.332   5.992  17.999  0.00  0.00    +0.000 A 
ENDBRANCH   1  10
BRANCH   2  12
ATOM     12  S   UNL     1       1.953   4.735  20.835  0.00  0.00    +0.000 S 
ATOM     13  H   UNL     1       1.832   5.798  21.637  0.00  0.00    +0.000 HD
ENDBRANCH   2  12
BRANCH   3  14
ATOM     14  N   UNL     1       2.022   7.603  20.353  0.00  0.00    +0.000 N 
ATOM     15  H   UNL     1       2.525   7.819  21.215  0.00  0.00    +0.000 HD
BRANCH  14  16
ATOM     16  C   UNL     1       1.235   8.707  20.002  0.00  0.00    +0.000 A 
ATOM     17  N   UNL     1       1.460   9.154  18.736  0.00  0.00    +0.000 NA
ATOM     18  C   UNL     1       0.762  10.224  18.288  0.00  0.00    +0.000 A 
ATOM     19  C   UNL     1      -0.178  10.902  19.041  0.00  0.00    +0.000 A 
ATOM     20  C   UNL     1      -0.402  10.447  20.342  0.00  0.00    +0.000 A 
ATOM     21  C   UNL     1       0.314   9.353  20.841  0.00  0.00    +0.000 A 
ATOM     22 CL   UNL     1       0.018   8.928  22.490  0.00  0.00    +0.000 Cl
BRANCH  19  23
ATOM     23  C   UNL     1      -0.914  12.081  18.486  0.00  0.00    +0.000 C 
ATOM     24  F   UNL     1      -1.772  12.653  19.374  0.00  0.00    +0.000 F 
ATOM     25  F   UNL     1      -0.076  13.075  18.082  0.00  0.00    +0.000 F 
ATOM     26  F   UNL     1      -1.665  11.759  17.398  0.00  0.00    +0.000 F 
ENDBRANCH  19  23
ENDBRANCH  14  16
ENDBRANCH   3  14
TORSDOF 5
ENDMDL
