MODEL 1
REMARK VINA RESULT:      -7.5      0.000      0.000
REMARK  Name = 
REMARK  8 active torsions:
REMARK  status: ('A' for Active; 'I' for Inactive)
REMARK    1  A    between atoms: C_1  and  O_2
REMARK    2  A    between atoms: O_2  and  C_3
REMARK    3  A    between atoms: C_6  and  N_7
REMARK    4  A    between atoms: C_11  and  N_12
REMARK    5  A    between atoms: C_13  and  C_15
REMARK    6  A    between atoms: C_15  and  S_16
REMARK    7  A    between atoms: S_16  and  C_17
REMARK    8  A    between atoms: C_21  and  C_22
REMARK                            x       y       z     vdW  Elec       q    Type
REMARK                         _______ _______ _______ _____ _____    ______ ____
ROOT
ATOM      1  N   UNL     1       3.935   5.782  17.187  0.00  0.00    +0.000 N 
ATOM      2  C   UNL     1       4.370   4.644  16.509  0.00  0.00    +0.000 C 
ATOM      3  O   UNL     1       4.116   3.484  16.836  0.00  0.00    +0.000 OA
ATOM      4  H   UNL     1       3.997   6.677  16.710  0.00  0.00    +0.000 HD
ENDROOT
BRANCH   1  10
ATOM      5  C   UNL     1       2.605   6.965  18.901  0.00  0.00    +0.000 A 
ATOM      6  C   UNL     1       1.901   6.935  20.119  0.00  0.00    +0.000 A 
ATOM      7  C   UNL     1       1.718   5.746  20.818  0.00  0.00    +0.000 A 
ATOM      8  C   UNL     1       2.282   4.574  20.320  0.00  0.00    +0.000 A 
ATOM      9  C   UNL     1       3.035   4.592  19.145  0.00  0.00    +0.000 A 
ATOM     10  C   UNL     1       3.196   5.776  18.405  0.00  0.00    +0.000 A 
BRANCH   8  11
ATOM     11  N   UNL     1       2.081   3.310  21.042  0.00  0.00    +0.000 N 
ATOM     12  O   UNL     1       1.801   2.313  20.372  0.00  0.00    +0.000 OA
ATOM     13  O   UNL     1       2.203   3.319  22.274  0.00  0.00    +0.000 OA
ENDBRANCH   8  11
BRANCH   5  15
ATOM     14  C   UNL     1       1.693   9.087  18.395  0.00  0.00    +0.000 C 
ATOM     15  O   UNL     1       2.730   8.120  18.160  0.00  0.00    +0.000 OA
ENDBRANCH   5  15
ENDBRANCH   1  10
BRANCH   2  16
ATOM     16  C   UNL     1       5.223   4.900  15.274  0.00  0.00    +0.000 C 
BRANCH  16  17
ATOM     17  S   UNL     1       6.881   4.187  15.494  0.00  0.00    +0.000 S 
BRANCH  17  18
ATOM     18  C   UNL     1       7.422   5.146  16.880  0.00  0.00    +0.000 A 
ATOM     19  N   UNL     1       7.622   4.497  18.037  0.00  0.00    +0.000 NA
ATOM     20  C   UNL     1       7.923   5.259  19.102  0.00  0.00    +0.000 A 
ATOM     21  C   UNL     1       8.012   6.630  19.052  0.00  0.00    +0.000 A 
ATOM     22  C   UNL     1       7.798   7.207  17.818  0.00  0.00    +0.000 A 
ATOM     23  C   UNL     1       7.824   8.694  17.640  0.00  0.00    +0.000 C 
ATOM     24  N   UNL     1       7.511   6.479  16.718  0.00  0.00    +0.000 NA
ENDBRANCH  17  18
ENDBRANCH  16  17
ENDBRANCH   2  16
TORSDOF 6
ENDMDL
MODEL 2
REMARK VINA RESULT:      -7.4      1.729      3.621
REMARK  Name = 
REMARK  8 active torsions:
REMARK  status: ('A' for Active; 'I' for Inactive)
REMARK    1  A    between atoms: C_1  and  O_2
REMARK    2  A    between atoms: O_2  and  C_3
REMARK    3  A    between atoms: C_6  and  N_7
REMARK    4  A    between atoms: C_11  and  N_12
REMARK    5  A    between atoms: C_13  and  C_15
REMARK    6  A    between atoms: C_15  and  S_16
REMARK    7  A    between atoms: S_16  and  C_17
REMARK    8  A    between atoms: C_21  and  C_22
REMARK                            x       y       z     vdW  Elec       q    Type
REMARK                         _______ _______ _______ _____ _____    ______ ____
ROOT
ATOM      1  N   UNL     1       3.738   5.624  18.172  0.00  0.00    +0.000 N 
ATOM      2  C   UNL     1       3.296   4.490  17.493  0.00  0.00    +0.000 C 
ATOM      3  O   UNL     1       2.117   4.171  17.337  0.00  0.00    +0.000 OA
ATOM      4  H   UNL     1       4.702   5.916  18.041  0.00  0.00    +0.000 HD
ENDROOT
BRANCH   1  10
ATOM      5  C   UNL     1       2.350   6.223  20.128  0.00  0.00    +0.000 A 
ATOM      6  C   UNL     1       1.502   7.142  20.772  0.00  0.00    +0.000 A 
ATOM      7  C   UNL     1       1.235   8.391  20.218  0.00  0.00    +0.000 A 
ATOM      8  C   UNL     1       1.787   8.714  18.981  0.00  0.00    +0.000 A 
ATOM      9  C   UNL     1       2.583   7.794  18.297  0.00  0.00    +0.000 A 
ATOM     10  C   UNL     1       2.895   6.545  18.859  0.00  0.00    +0.000 A 
BRANCH   8  11
ATOM     11  N   UNL     1       1.526  10.036  18.395  0.00  0.00    +0.000 N 
ATOM     12  O   UNL     1       2.309  10.439  17.532  0.00  0.00    +0.000 OA
ATOM     13  O   UNL     1       0.540  10.665  18.800  0.00  0.00    +0.000 OA
ENDBRANCH   8  11
BRANCH   5  15
ATOM     14  C   UNL     1       1.577   4.110  20.855  0.00  0.00    +0.000 C 
ATOM     15  O   UNL     1       2.683   5.014  20.699  0.00  0.00    +0.000 OA
ENDBRANCH   5  15
ENDBRANCH   1  10
BRANCH   2  16
ATOM     16  C   UNL     1       4.389   3.604  16.911  0.00  0.00    +0.000 C 
BRANCH  16  17
ATOM     17  S   UNL     1       5.432   4.556  15.766  0.00  0.00    +0.000 S 
BRANCH  17  18
ATOM     18  C   UNL     1       6.534   5.299  16.934  0.00  0.00    +0.000 A 
ATOM     19  N   UNL     1       6.941   4.541  17.964  0.00  0.00    +0.000 NA
ATOM     20  C   UNL     1       7.686   5.156  18.897  0.00  0.00    +0.000 A 
ATOM     21  C   UNL     1       8.019   6.489  18.844  0.00  0.00    +0.000 A 
ATOM     22  C   UNL     1       7.561   7.184  17.744  0.00  0.00    +0.000 A 
ATOM     23  C   UNL     1       7.819   8.652  17.591  0.00  0.00    +0.000 C 
ATOM     24  N   UNL     1       6.825   6.603  16.774  0.00  0.00    +0.000 NA
ENDBRANCH  17  18
ENDBRANCH  16  17
ENDBRANCH   2  16
TORSDOF 6
ENDMDL
MODEL 3
REMARK VINA RESULT:      -7.2      1.490      3.240
REMARK  Name = 
REMARK  8 active torsions:
REMARK  status: ('A' for Active; 'I' for Inactive)
REMARK    1  A    between atoms: C_1  and  O_2
REMARK    2  A    between atoms: O_2  and  C_3
REMARK    3  A    between atoms: C_6  and  N_7
REMARK    4  A    between atoms: C_11  and  N_12
REMARK    5  A    between atoms: C_13  and  C_15
REMARK    6  A    between atoms: C_15  and  S_16
REMARK    7  A    between atoms: S_16  and  C_17
REMARK    8  A    between atoms: C_21  and  C_22
REMARK                            x       y       z     vdW  Elec       q    Type
REMARK                         _______ _______ _______ _____ _____    ______ ____
ROOT
ATOM      1  N   UNL     1       4.320   4.887  18.089  0.00  0.00    +0.000 N 
ATOM      2  C   UNL     1       4.042   4.069  16.994  0.00  0.00    +0.000 C 
ATOM      3  O   UNL     1       2.915   3.764  16.605  0.00  0.00    +0.000 OA
ATOM      4  H   UNL     1       5.259   5.264  18.179  0.00  0.00    +0.000 HD
ENDROOT
BRANCH   1  10
ATOM      5  C   UNL     1       2.790   4.643  20.015  0.00  0.00    +0.000 A 
ATOM      6  C   UNL     1       1.810   5.197  20.857  0.00  0.00    +0.000 A 
ATOM      7  C   UNL     1       1.413   6.525  20.728  0.00  0.00    +0.000 A 
ATOM      8  C   UNL     1       1.969   7.303  19.716  0.00  0.00    +0.000 A 
ATOM      9  C   UNL     1       2.901   6.756  18.832  0.00  0.00    +0.000 A 
ATOM     10  C   UNL     1       3.342   5.430  18.972  0.00  0.00    +0.000 A 
BRANCH   8  11
ATOM     11  N   UNL     1       1.570   8.711  19.582  0.00  0.00    +0.000 N 
ATOM     12  O   UNL     1       1.090   9.261  20.576  0.00  0.00    +0.000 OA
ATOM     13  O   UNL     1       1.739   9.260  18.485  0.00  0.00    +0.000 OA
ENDBRANCH   8  11
BRANCH   5  15
ATOM     14  C   UNL     1       2.715   2.680  21.330  0.00  0.00    +0.000 C 
ATOM     15  O   UNL     1       3.248   3.354  20.178  0.00  0.00    +0.000 OA
ENDBRANCH   5  15
ENDBRANCH   1  10
BRANCH   2  16
ATOM     16  C   UNL     1       5.257   3.534  16.248  0.00  0.00    +0.000 C 
BRANCH  16  17
ATOM     17  S   UNL     1       6.086   4.878  15.345  0.00  0.00    +0.000 S 
BRANCH  17  18
ATOM     18  C   UNL     1       6.992   5.602  16.682  0.00  0.00    +0.000 A 
ATOM     19  N   UNL     1       7.351   4.794  17.691  0.00  0.00    +0.000 NA
ATOM     20  C   UNL     1       7.939   5.385  18.745  0.00  0.00    +0.000 A 
ATOM     21  C   UNL     1       8.161   6.739  18.829  0.00  0.00    +0.000 A 
ATOM     22  C   UNL     1       7.764   7.486  17.740  0.00  0.00    +0.000 A 
ATOM     23  C   UNL     1       7.911   8.977  17.726  0.00  0.00    +0.000 C 
ATOM     24  N   UNL     1       7.187   6.933  16.652  0.00  0.00    +0.000 NA
ENDBRANCH  17  18
ENDBRANCH  16  17
ENDBRANCH   2  16
TORSDOF 6
ENDMDL
MODEL 4
REMARK VINA RESULT:      -7.2      2.615      4.723
REMARK  Name = 
REMARK  8 active torsions:
REMARK  status: ('A' for Active; 'I' for Inactive)
REMARK    1  A    between atoms: C_1  and  O_2
REMARK    2  A    between atoms: O_2  and  C_3
REMARK    3  A    between atoms: C_6  and  N_7
REMARK    4  A    between atoms: C_11  and  N_12
REMARK    5  A    between atoms: C_13  and  C_15
REMARK    6  A    between atoms: C_15  and  S_16
REMARK    7  A    between atoms: S_16  and  C_17
REMARK    8  A    between atoms: C_21  and  C_22
REMARK                            x       y       z     vdW  Elec       q    Type
REMARK                         _______ _______ _______ _____ _____    ______ ____
ROOT
ATOM      1  N   UNL     1       4.366   5.408  17.912  0.00  0.00    +0.000 N 
ATOM      2  C   UNL     1       4.094   4.267  17.158  0.00  0.00    +0.000 C 
ATOM      3  O   UNL     1       2.978   3.772  16.999  0.00  0.00    +0.000 OA
ATOM      4  H   UNL     1       5.266   5.862  17.786  0.00  0.00    +0.000 HD
ENDROOT
BRANCH   1  10
ATOM      5  C   UNL     1       2.895   5.594  19.889  0.00  0.00    +0.000 A 
ATOM      6  C   UNL     1       1.930   6.317  20.614  0.00  0.00    +0.000 A 
ATOM      7  C   UNL     1       1.511   7.578  20.201  0.00  0.00    +0.000 A 
ATOM      8  C   UNL     1       2.028   8.111  19.022  0.00  0.00    +0.000 A 
ATOM      9  C   UNL     1       2.942   7.386  18.256  0.00  0.00    +0.000 A 
ATOM     10  C   UNL     1       3.406   6.129  18.679  0.00  0.00    +0.000 A 
BRANCH   8  11
ATOM     11  N   UNL     1       1.605   9.449  18.586  0.00  0.00    +0.000 N 
ATOM     12  O   UNL     1       1.965   9.820  17.466  0.00  0.00    +0.000 OA
ATOM     13  O   UNL     1       0.915  10.121  19.363  0.00  0.00    +0.000 OA
ENDBRANCH   8  11
BRANCH   5  15
ATOM     14  C   UNL     1       2.365   3.494  20.835  0.00  0.00    +0.000 C 
ATOM     15  O   UNL     1       3.375   4.379  20.326  0.00  0.00    +0.000 OA
ENDBRANCH   5  15
ENDBRANCH   1  10
BRANCH   2  16
ATOM     16  C   UNL     1       5.299   3.614  16.494  0.00  0.00    +0.000 C 
BRANCH  16  17
ATOM     17  S   UNL     1       6.650   4.819  16.314  0.00  0.00    +0.000 S 
BRANCH  17  18
ATOM     18  C   UNL     1       6.965   4.636  14.582  0.00  0.00    +0.000 A 
ATOM     19  N   UNL     1       7.861   5.467  14.029  0.00  0.00    +0.000 NA
ATOM     20  C   UNL     1       8.003   5.386  12.695  0.00  0.00    +0.000 A 
ATOM     21  C   UNL     1       7.276   4.526  11.907  0.00  0.00    +0.000 A 
ATOM     22  C   UNL     1       6.385   3.706  12.566  0.00  0.00    +0.000 A 
ATOM     23  C   UNL     1       5.504   2.755  11.816  0.00  0.00    +0.000 C 
ATOM     24  N   UNL     1       6.223   3.740  13.906  0.00  0.00    +0.000 NA
ENDBRANCH  17  18
ENDBRANCH  16  17
ENDBRANCH   2  16
TORSDOF 6
ENDMDL
MODEL 5
REMARK VINA RESULT:      -7.2      2.956      4.570
REMARK  Name = 
REMARK  8 active torsions:
REMARK  status: ('A' for Active; 'I' for Inactive)
REMARK    1  A    between atoms: C_1  and  O_2
REMARK    2  A    between atoms: O_2  and  C_3
REMARK    3  A    between atoms: C_6  and  N_7
REMARK    4  A    between atoms: C_11  and  N_12
REMARK    5  A    between atoms: C_13  and  C_15
REMARK    6  A    between atoms: C_15  and  S_16
REMARK    7  A    between atoms: S_16  and  C_17
REMARK    8  A    between atoms: C_21  and  C_22
REMARK                            x       y       z     vdW  Elec       q    Type
REMARK                         _______ _______ _______ _____ _____    ______ ____
ROOT
ATOM      1  N   UNL     1       2.661   5.933  20.317  0.00  0.00    +0.000 N 
ATOM      2  C   UNL     1       1.954   4.737  20.426  0.00  0.00    +0.000 C 
ATOM      3  O   UNL     1       0.738   4.616  20.277  0.00  0.00    +0.000 OA
ATOM      4  H   UNL     1       3.672   5.886  20.222  0.00  0.00    +0.000 HD
ENDROOT
BRANCH   1  10
ATOM      5  C   UNL     1       2.085   7.801  18.804  0.00  0.00    +0.000 A 
ATOM      6  C   UNL     1       1.519   9.075  18.618  0.00  0.00    +0.000 A 
ATOM      7  C   UNL     1       0.892   9.747  19.663  0.00  0.00    +0.000 A 
ATOM      8  C   UNL     1       0.865   9.160  20.925  0.00  0.00    +0.000 A 
ATOM      9  C   UNL     1       1.472   7.922  21.146  0.00  0.00    +0.000 A 
ATOM     10  C   UNL     1       2.074   7.212  20.094  0.00  0.00    +0.000 A 
BRANCH   8  11
ATOM     11  N   UNL     1       0.190   9.853  22.032  0.00  0.00    +0.000 N 
ATOM     12  O   UNL     1      -0.511   9.172  22.784  0.00  0.00    +0.000 OA
ATOM     13  O   UNL     1       0.364  11.074  22.144  0.00  0.00    +0.000 OA
ENDBRANCH   8  11
BRANCH   5  15
ATOM     14  C   UNL     1       3.951   7.542  17.375  0.00  0.00    +0.000 C 
ATOM     15  O   UNL     1       2.643   7.091  17.762  0.00  0.00    +0.000 OA
ENDBRANCH   5  15
ENDBRANCH   1  10
BRANCH   2  16
ATOM     16  C   UNL     1       2.789   3.507  20.755  0.00  0.00    +0.000 C 
BRANCH  16  17
ATOM     17  S   UNL     1       3.029   2.490  19.267  0.00  0.00    +0.000 S 
BRANCH  17  18
ATOM     18  C   UNL     1       4.386   3.363  18.541  0.00  0.00    +0.000 A 
ATOM     19  N   UNL     1       5.220   4.006  19.372  0.00  0.00    +0.000 NA
ATOM     20  C   UNL     1       6.176   4.753  18.796  0.00  0.00    +0.000 A 
ATOM     21  C   UNL     1       6.313   4.891  17.435  0.00  0.00    +0.000 A 
ATOM     22  C   UNL     1       5.414   4.187  16.661  0.00  0.00    +0.000 A 
ATOM     23  C   UNL     1       5.430   4.286  15.167  0.00  0.00    +0.000 C 
ATOM     24  N   UNL     1       4.449   3.409  17.197  0.00  0.00    +0.000 NA
ENDBRANCH  17  18
ENDBRANCH  16  17
ENDBRANCH   2  16
TORSDOF 6
ENDMDL
MODEL 6
REMARK VINA RESULT:      -7.1      3.782      7.399
REMARK  Name = 
REMARK  8 active torsions:
REMARK  status: ('A' for Active; 'I' for Inactive)
REMARK    1  A    between atoms: C_1  and  O_2
REMARK    2  A    between atoms: O_2  and  C_3
REMARK    3  A    between atoms: C_6  and  N_7
REMARK    4  A    between atoms: C_11  and  N_12
REMARK    5  A    between atoms: C_13  and  C_15
REMARK    6  A    between atoms: C_15  and  S_16
REMARK    7  A    between atoms: S_16  and  C_17
REMARK    8  A    between atoms: C_21  and  C_22
REMARK                            x       y       z     vdW  Elec       q    Type
REMARK                         _______ _______ _______ _____ _____    ______ ____
ROOT
ATOM      1  N   UNL     1       2.876   7.153  18.197  0.00  0.00    +0.000 N 
ATOM      2  C   UNL     1       2.321   7.275  19.470  0.00  0.00    +0.000 C 
ATOM      3  O   UNL     1       2.476   6.472  20.391  0.00  0.00    +0.000 OA
ATOM      4  H   UNL     1       2.884   7.972  17.597  0.00  0.00    +0.000 HD
ENDROOT
BRANCH   1  10
ATOM      5  C   UNL     1       3.032   4.782  17.517  0.00  0.00    +0.000 A 
ATOM      6  C   UNL     1       3.817   3.695  17.092  0.00  0.00    +0.000 A 
ATOM      7  C   UNL     1       5.176   3.845  16.827  0.00  0.00    +0.000 A 
ATOM      8  C   UNL     1       5.771   5.088  17.031  0.00  0.00    +0.000 A 
ATOM      9  C   UNL     1       5.023   6.164  17.508  0.00  0.00    +0.000 A 
ATOM     10  C   UNL     1       3.643   6.041  17.743  0.00  0.00    +0.000 A 
BRANCH   8  11
ATOM     11  N   UNL     1       7.201   5.261  16.737  0.00  0.00    +0.000 N 
ATOM     12  O   UNL     1       7.542   6.306  16.177  0.00  0.00    +0.000 OA
ATOM     13  O   UNL     1       7.975   4.354  17.068  0.00  0.00    +0.000 OA
ENDBRANCH   8  11
BRANCH   5  15
ATOM     14  C   UNL     1       1.284   3.534  18.505  0.00  0.00    +0.000 C 
ATOM     15  O   UNL     1       1.672   4.666  17.711  0.00  0.00    +0.000 OA
ENDBRANCH   5  15
ENDBRANCH   1  10
BRANCH   2  16
ATOM     16  C   UNL     1       1.463   8.512  19.697  0.00  0.00    +0.000 C 
BRANCH  16  17
ATOM     17  S   UNL     1       1.550   9.615  18.254  0.00  0.00    +0.000 S 
BRANCH  17  18
ATOM     18  C   UNL     1      -0.014  10.426  18.420  0.00  0.00    +0.000 A 
ATOM     19  N   UNL     1      -0.121  11.367  19.371  0.00  0.00    +0.000 NA
ATOM     20  C   UNL     1      -1.345  11.890  19.554  0.00  0.00    +0.000 A 
ATOM     21  C   UNL     1      -2.452  11.496  18.842  0.00  0.00    +0.000 A 
ATOM     22  C   UNL     1      -2.243  10.528  17.882  0.00  0.00    +0.000 A 
ATOM     23  C   UNL     1      -3.376   9.982  17.069  0.00  0.00    +0.000 C 
ATOM     24  N   UNL     1      -1.027   9.988  17.651  0.00  0.00    +0.000 NA
ENDBRANCH  17  18
ENDBRANCH  16  17
ENDBRANCH   2  16
TORSDOF 6
ENDMDL
MODEL 7
REMARK VINA RESULT:      -7.1      3.997      5.797
REMARK  Name = 
REMARK  8 active torsions:
REMARK  status: ('A' for Active; 'I' for Inactive)
REMARK    1  A    between atoms: C_1  and  O_2
REMARK    2  A    between atoms: O_2  and  C_3
REMARK    3  A    between atoms: C_6  and  N_7
REMARK    4  A    between atoms: C_11  and  N_12
REMARK    5  A    between atoms: C_13  and  C_15
REMARK    6  A    between atoms: C_15  and  S_16
REMARK    7  A    between atoms: S_16  and  C_17
REMARK    8  A    between atoms: C_21  and  C_22
REMARK                            x       y       z     vdW  Elec       q    Type
REMARK                         _______ _______ _______ _____ _____    ______ ____
ROOT
ATOM      1  N   UNL     1       6.620   7.579  16.894  0.00  0.00    +0.000 N 
ATOM      2  C   UNL     1       7.671   7.955  17.729  0.00  0.00    +0.000 C 
ATOM      3  O   UNL     1       8.195   7.235  18.579  0.00  0.00    +0.000 OA
ATOM      4  H   UNL     1       6.424   8.155  16.080  0.00  0.00    +0.000 HD
ENDROOT
BRANCH   1  10
ATOM      5  C   UNL     1       6.347   5.242  16.136  0.00  0.00    +0.000 A 
ATOM      6  C   UNL     1       5.641   4.026  16.196  0.00  0.00    +0.000 A 
ATOM      7  C   UNL     1       4.586   3.847  17.085  0.00  0.00    +0.000 A 
ATOM      8  C   UNL     1       4.197   4.908  17.898  0.00  0.00    +0.000 A 
ATOM      9  C   UNL     1       4.846   6.141  17.814  0.00  0.00    +0.000 A 
ATOM     10  C   UNL     1       5.939   6.328  16.951  0.00  0.00    +0.000 A 
BRANCH   8  11
ATOM     11  N   UNL     1       3.095   4.723  18.852  0.00  0.00    +0.000 N 
ATOM     12  O   UNL     1       3.346   4.894  20.048  0.00  0.00    +0.000 OA
ATOM     13  O   UNL     1       1.985   4.409  18.403  0.00  0.00    +0.000 OA
ENDBRANCH   8  11
BRANCH   5  15
ATOM     14  C   UNL     1       7.255   4.923  13.977  0.00  0.00    +0.000 C 
ATOM     15  O   UNL     1       7.441   5.410  15.316  0.00  0.00    +0.000 OA
ENDBRANCH   5  15
ENDBRANCH   1  10
BRANCH   2  16
ATOM     16  C   UNL     1       8.182   9.377  17.541  0.00  0.00    +0.000 C 
BRANCH  16  17
ATOM     17  S   UNL     1       9.124   9.907  19.004  0.00  0.00    +0.000 S 
BRANCH  17  18
ATOM     18  C   UNL     1       9.738  11.454  18.403  0.00  0.00    +0.000 A 
ATOM     19  N   UNL     1      10.966  11.461  17.863  0.00  0.00    +0.000 NA
ATOM     20  C   UNL     1      11.456  12.662  17.515  0.00  0.00    +0.000 A 
ATOM     21  C   UNL     1      10.776  13.842  17.703  0.00  0.00    +0.000 A 
ATOM     22  C   UNL     1       9.518  13.734  18.258  0.00  0.00    +0.000 A 
ATOM     23  C   UNL     1       8.692  14.948  18.553  0.00  0.00    +0.000 C 
ATOM     24  N   UNL     1       8.978  12.546  18.605  0.00  0.00    +0.000 NA
ENDBRANCH  17  18
ENDBRANCH  16  17
ENDBRANCH   2  16
TORSDOF 6
ENDMDL
MODEL 8
REMARK VINA RESULT:      -7.1      1.549      3.197
REMARK  Name = 
REMARK  8 active torsions:
REMARK  status: ('A' for Active; 'I' for Inactive)
REMARK    1  A    between atoms: C_1  and  O_2
REMARK    2  A    between atoms: O_2  and  C_3
REMARK    3  A    between atoms: C_6  and  N_7
REMARK    4  A    between atoms: C_11  and  N_12
REMARK    5  A    between atoms: C_13  and  C_15
REMARK    6  A    between atoms: C_15  and  S_16
REMARK    7  A    between atoms: S_16  and  C_17
REMARK    8  A    between atoms: C_21  and  C_22
REMARK                            x       y       z     vdW  Elec       q    Type
REMARK                         _______ _______ _______ _____ _____    ______ ____
ROOT
ATOM      1  N   UNL     1       4.317   3.877  17.680  0.00  0.00    +0.000 N 
ATOM      2  C   UNL     1       4.680   4.564  16.522  0.00  0.00    +0.000 C 
ATOM      3  O   UNL     1       4.380   5.730  16.267  0.00  0.00    +0.000 OA
ATOM      4  H   UNL     1       4.807   3.014  17.899  0.00  0.00    +0.000 HD
ENDROOT
BRANCH   1  10
ATOM      5  C   UNL     1       2.983   3.550  19.734  0.00  0.00    +0.000 A 
ATOM      6  C   UNL     1       2.136   4.082  20.723  0.00  0.00    +0.000 A 
ATOM      7  C   UNL     1       1.822   5.438  20.752  0.00  0.00    +0.000 A 
ATOM      8  C   UNL     1       2.323   6.270  19.754  0.00  0.00    +0.000 A 
ATOM      9  C   UNL     1       3.117   5.752  18.730  0.00  0.00    +0.000 A 
ATOM     10  C   UNL     1       3.477   4.394  18.708  0.00  0.00    +0.000 A 
BRANCH   8  11
ATOM     11  N   UNL     1       2.011   7.706  19.785  0.00  0.00    +0.000 N 
ATOM     12  O   UNL     1       1.614   8.177  20.854  0.00  0.00    +0.000 OA
ATOM     13  O   UNL     1       2.165   8.356  18.743  0.00  0.00    +0.000 OA
ENDBRANCH   8  11
BRANCH   5  15
ATOM     14  C   UNL     1       4.579   1.962  20.456  0.00  0.00    +0.000 C 
ATOM     15  O   UNL     1       3.364   2.226  19.736  0.00  0.00    +0.000 OA
ENDBRANCH   5  15
ENDBRANCH   1  10
BRANCH   2  16
ATOM     16  C   UNL     1       5.513   3.774  15.522  0.00  0.00    +0.000 C 
BRANCH  16  17
ATOM     17  S   UNL     1       6.905   4.780  14.926  0.00  0.00    +0.000 S 
BRANCH  17  18
ATOM     18  C   UNL     1       7.430   5.481  16.464  0.00  0.00    +0.000 A 
ATOM     19  N   UNL     1       7.586   4.643  17.501  0.00  0.00    +0.000 NA
ATOM     20  C   UNL     1       7.875   5.209  18.684  0.00  0.00    +0.000 A 
ATOM     21  C   UNL     1       7.995   6.566  18.866  0.00  0.00    +0.000 A 
ATOM     22  C   UNL     1       7.825   7.346  17.742  0.00  0.00    +0.000 A 
ATOM     23  C   UNL     1       7.887   8.840  17.816  0.00  0.00    +0.000 C 
ATOM     24  N   UNL     1       7.551   6.819  16.529  0.00  0.00    +0.000 NA
ENDBRANCH  17  18
ENDBRANCH  16  17
ENDBRANCH   2  16
TORSDOF 6
ENDMDL
MODEL 9
REMARK VINA RESULT:      -7.1      4.025      7.634
REMARK  Name = 
REMARK  8 active torsions:
REMARK  status: ('A' for Active; 'I' for Inactive)
REMARK    1  A    between atoms: C_1  and  O_2
REMARK    2  A    between atoms: O_2  and  C_3
REMARK    3  A    between atoms: C_6  and  N_7
REMARK    4  A    between atoms: C_11  and  N_12
REMARK    5  A    between atoms: C_13  and  C_15
REMARK    6  A    between atoms: C_15  and  S_16
REMARK    7  A    between atoms: S_16  and  C_17
REMARK    8  A    between atoms: C_21  and  C_22
REMARK                            x       y       z     vdW  Elec       q    Type
REMARK                         _______ _______ _______ _____ _____    ______ ____
ROOT
ATOM      1  N   UNL     1       2.699   6.885  18.931  0.00  0.00    +0.000 N 
ATOM      2  C   UNL     1       2.205   8.088  18.429  0.00  0.00    +0.000 C 
ATOM      3  O   UNL     1       2.317   8.468  17.263  0.00  0.00    +0.000 OA
ATOM      4  H   UNL     1       2.353   6.562  19.830  0.00  0.00    +0.000 HD
ENDROOT
BRANCH   1  10
ATOM      5  C   UNL     1       2.897   4.756  17.692  0.00  0.00    +0.000 A 
ATOM      6  C   UNL     1       3.695   3.837  16.986  0.00  0.00    +0.000 A 
ATOM      7  C   UNL     1       5.033   4.104  16.711  0.00  0.00    +0.000 A 
ATOM      8  C   UNL     1       5.598   5.285  17.186  0.00  0.00    +0.000 A 
ATOM      9  C   UNL     1       4.840   6.183  17.939  0.00  0.00    +0.000 A 
ATOM     10  C   UNL     1       3.478   5.949  18.191  0.00  0.00    +0.000 A 
BRANCH   8  11
ATOM     11  N   UNL     1       7.006   5.585  16.887  0.00  0.00    +0.000 N 
ATOM     12  O   UNL     1       7.794   4.637  16.863  0.00  0.00    +0.000 OA
ATOM     13  O   UNL     1       7.316   6.765  16.678  0.00  0.00    +0.000 OA
ENDBRANCH   8  11
BRANCH   5  15
ATOM     14  C   UNL     1       1.264   3.437  18.781  0.00  0.00    +0.000 C 
ATOM     15  O   UNL     1       1.552   4.540  17.906  0.00  0.00    +0.000 OA
ENDBRANCH   5  15
ENDBRANCH   1  10
BRANCH   2  16
ATOM     16  C   UNL     1       1.476   8.970  19.433  0.00  0.00    +0.000 C 
BRANCH  16  17
ATOM     17  S   UNL     1       1.274  10.650  18.767  0.00  0.00    +0.000 S 
BRANCH  17  18
ATOM     18  C   UNL     1      -0.480  10.655  18.533  0.00  0.00    +0.000 A 
ATOM     19  N   UNL     1      -0.973   9.883  17.552  0.00  0.00    +0.000 NA
ATOM     20  C   UNL     1      -2.291   9.987  17.319  0.00  0.00    +0.000 A 
ATOM     21  C   UNL     1      -3.119  10.837  18.013  0.00  0.00    +0.000 A 
ATOM     22  C   UNL     1      -2.524  11.585  19.006  0.00  0.00    +0.000 A 
ATOM     23  C   UNL     1      -3.308  12.581  19.804  0.00  0.00    +0.000 C 
ATOM     24  N   UNL     1      -1.206  11.500  19.287  0.00  0.00    +0.000 NA
ENDBRANCH  17  18
ENDBRANCH  16  17
ENDBRANCH   2  16
TORSDOF 6
ENDMDL
