MODEL 1
REMARK VINA RESULT:      -6.0      0.000      0.000
REMARK  Name = 
REMARK  6 active torsions:
REMARK  status: ('A' for Active; 'I' for Inactive)
REMARK    1  A    between atoms: C_1  and  C_2
REMARK    2  A    between atoms: C_4  and  C_5
REMARK    3  A    between atoms: N_10  and  C_11
REMARK    4  A    between atoms: C_11  and  C_12
REMARK    5  A    between atoms: C_19  and  C_20
REMARK    6  A    between atoms: N_21  and  C_22
REMARK                            x       y       z     vdW  Elec       q    Type
REMARK                         _______ _______ _______ _____ _____    ______ ____
ROOT
ATOM      1  C   UNL     1       2.760   6.444  19.505  0.00  0.00    +0.000 C 
ATOM      2  O   UNL     1       2.548   5.748  20.493  0.00  0.00    +0.000 OA
ATOM      3  N   UNL     1       2.023   7.625  19.282  0.00  0.00    +0.000 N 
ATOM      4  C   UNL     1       2.155   8.464  18.091  0.00  0.00    +0.000 C 
ATOM      5  C   UNL     1       1.006   9.455  17.854  0.00  0.00    +0.000 C 
ATOM      6  N   UNL     1       0.645  10.243  19.052  0.00  0.00    +0.000 NA
ATOM      7  C   UNL     1       0.314   9.270  20.120  0.00  0.00    +0.000 C 
ATOM      8  C   UNL     1       1.441   8.274  20.463  0.00  0.00    +0.000 C 
ENDROOT
BRANCH   1  12
ATOM      9  C   UNL     1       7.198   6.400  16.956  0.00  0.00    +0.000 C 
ATOM     10  C   UNL     1       5.825   6.046  17.396  0.00  0.00    +0.000 A 
ATOM     11  C   UNL     1       5.145   6.635  18.437  0.00  0.00    +0.000 A 
ATOM     12  C   UNL     1       3.838   6.092  18.547  0.00  0.00    +0.000 A 
ATOM     13  C   UNL     1       3.795   5.066  17.599  0.00  0.00    +0.000 A 
ATOM     14  C   UNL     1       2.690   4.114  17.278  0.00  0.00    +0.000 C 
ATOM     15  N   UNL     1       5.019   5.035  16.929  0.00  0.00    +0.000 N 
BRANCH  15  16
ATOM     16  C   UNL     1       5.320   4.035  15.919  0.00  0.00    +0.000 C 
ATOM     17  C   UNL     1       5.319   4.379  14.442  0.00  0.00    +0.000 C 
ATOM     18  C   UNL     1       6.585   3.930  15.094  0.00  0.00    +0.000 C 
ENDBRANCH  15  16
ENDBRANCH   1  12
BRANCH   6  19
ATOM     19  C   UNL     1       1.749  11.159  19.398  0.00  0.00    +0.000 C 
BRANCH  19  20
ATOM     20  C   UNL     1       1.391  12.597  19.159  0.00  0.00    +0.000 A 
ATOM     21  C   UNL     1       0.057  13.064  18.895  0.00  0.00    +0.000 A 
ATOM     22  C   UNL     1      -0.008  14.431  18.754  0.00  0.00    +0.000 A 
ATOM     23  S   UNL     1       1.522  15.167  18.948  0.00  0.00    +0.000 S 
ATOM     24  C   UNL     1       2.275  13.657  19.221  0.00  0.00    +0.000 A 
ENDBRANCH  19  20
ENDBRANCH   6  19
TORSDOF 4
ENDMDL
MODEL 2
REMARK VINA RESULT:      -5.9      1.801      2.570
REMARK  Name = 
REMARK  6 active torsions:
REMARK  status: ('A' for Active; 'I' for Inactive)
REMARK    1  A    between atoms: C_1  and  C_2
REMARK    2  A    between atoms: C_4  and  C_5
REMARK    3  A    between atoms: N_10  and  C_11
REMARK    4  A    between atoms: C_11  and  C_12
REMARK    5  A    between atoms: C_19  and  C_20
REMARK    6  A    between atoms: N_21  and  C_22
REMARK                            x       y       z     vdW  Elec       q    Type
REMARK                         _______ _______ _______ _____ _____    ______ ____
ROOT
ATOM      1  C   UNL     1       1.519   8.172  20.521  0.00  0.00    +0.000 C 
ATOM      2  O   UNL     1       1.495   7.924  21.722  0.00  0.00    +0.000 OA
ATOM      3  N   UNL     1       0.899   9.331  20.011  0.00  0.00    +0.000 N 
ATOM      4  C   UNL     1       0.809   9.657  18.588  0.00  0.00    +0.000 C 
ATOM      5  C   UNL     1      -0.232  10.725  18.222  0.00  0.00    +0.000 C 
ATOM      6  N   UNL     1      -0.159  11.937  19.066  0.00  0.00    +0.000 NA
ATOM      7  C   UNL     1      -0.309  11.489  20.471  0.00  0.00    +0.000 C 
ATOM      8  C   UNL     1       0.738  10.458  20.939  0.00  0.00    +0.000 C 
ENDROOT
BRANCH   1  12
ATOM      9  C   UNL     1       4.492   6.513  16.700  0.00  0.00    +0.000 C 
ATOM     10  C   UNL     1       3.588   6.520  17.877  0.00  0.00    +0.000 A 
ATOM     11  C   UNL     1       3.141   7.645  18.533  0.00  0.00    +0.000 A 
ATOM     12  C   UNL     1       2.249   7.288  19.578  0.00  0.00    +0.000 A 
ATOM     13  C   UNL     1       2.263   5.891  19.602  0.00  0.00    +0.000 A 
ATOM     14  C   UNL     1       1.548   4.948  20.513  0.00  0.00    +0.000 C 
ATOM     15  N   UNL     1       3.102   5.442  18.580  0.00  0.00    +0.000 N 
BRANCH  15  16
ATOM     16  C   UNL     1       3.382   4.032  18.375  0.00  0.00    +0.000 C 
ATOM     17  C   UNL     1       2.605   3.211  17.365  0.00  0.00    +0.000 C 
ATOM     18  C   UNL     1       4.074   3.408  17.183  0.00  0.00    +0.000 C 
ENDBRANCH  15  16
ENDBRANCH   1  12
BRANCH   6  19
ATOM     19  C   UNL     1       1.100  12.658  18.798  0.00  0.00    +0.000 C 
BRANCH  19  20
ATOM     20  C   UNL     1       0.913  14.147  18.787  0.00  0.00    +0.000 A 
ATOM     21  C   UNL     1       1.987  15.095  18.677  0.00  0.00    +0.000 A 
ATOM     22  C   UNL     1       1.544  16.397  18.647  0.00  0.00    +0.000 A 
ATOM     23  S   UNL     1      -0.159  16.496  18.739  0.00  0.00    +0.000 S 
ATOM     24  C   UNL     1      -0.307  14.795  18.818  0.00  0.00    +0.000 A 
ENDBRANCH  19  20
ENDBRANCH   6  19
TORSDOF 4
ENDMDL
MODEL 3
REMARK VINA RESULT:      -5.8      3.735      8.351
REMARK  Name = 
REMARK  6 active torsions:
REMARK  status: ('A' for Active; 'I' for Inactive)
REMARK    1  A    between atoms: C_1  and  C_2
REMARK    2  A    between atoms: C_4  and  C_5
REMARK    3  A    between atoms: N_10  and  C_11
REMARK    4  A    between atoms: C_11  and  C_12
REMARK    5  A    between atoms: C_19  and  C_20
REMARK    6  A    between atoms: N_21  and  C_22
REMARK                            x       y       z     vdW  Elec       q    Type
REMARK                         _______ _______ _______ _____ _____    ______ ____
ROOT
ATOM      1  C   UNL     1       3.072   5.069  18.160  0.00  0.00    +0.000 C 
ATOM      2  O   UNL     1       2.400   4.079  18.431  0.00  0.00    +0.000 OA
ATOM      3  N   UNL     1       4.278   4.949  17.440  0.00  0.00    +0.000 N 
ATOM      4  C   UNL     1       5.178   6.065  17.150  0.00  0.00    +0.000 C 
ATOM      5  C   UNL     1       6.599   5.670  16.722  0.00  0.00    +0.000 C 
ATOM      6  N   UNL     1       6.633   4.638  15.663  0.00  0.00    +0.000 NA
ATOM      7  C   UNL     1       5.876   3.473  16.176  0.00  0.00    +0.000 C 
ATOM      8  C   UNL     1       4.415   3.772  16.573  0.00  0.00    +0.000 C 
ENDROOT
BRANCH   1  12
ATOM      9  C   UNL     1       1.844  10.033  17.956  0.00  0.00    +0.000 C 
ATOM     10  C   UNL     1       2.037   8.653  18.465  0.00  0.00    +0.000 A 
ATOM     11  C   UNL     1       2.489   7.586  17.721  0.00  0.00    +0.000 A 
ATOM     12  C   UNL     1       2.606   6.428  18.535  0.00  0.00    +0.000 A 
ATOM     13  C   UNL     1       2.095   6.810  19.779  0.00  0.00    +0.000 A 
ATOM     14  C   UNL     1       1.926   6.005  21.025  0.00  0.00    +0.000 C 
ATOM     15  N   UNL     1       1.730   8.155  19.709  0.00  0.00    +0.000 N 
BRANCH  15  16
ATOM     16  C   UNL     1       1.104   8.844  20.825  0.00  0.00    +0.000 C 
ATOM     17  C   UNL     1      -0.158   9.663  20.641  0.00  0.00    +0.000 C 
ATOM     18  C   UNL     1      -0.181   8.460  21.524  0.00  0.00    +0.000 C 
ENDBRANCH  15  16
ENDBRANCH   1  12
BRANCH   6  19
ATOM     19  C   UNL     1       6.097   5.195  14.406  0.00  0.00    +0.000 C 
BRANCH  19  20
ATOM     20  C   UNL     1       6.099   4.190  13.291  0.00  0.00    +0.000 A 
ATOM     21  C   UNL     1       4.914   3.586  12.747  0.00  0.00    +0.000 A 
ATOM     22  C   UNL     1       5.186   2.730  11.704  0.00  0.00    +0.000 A 
ATOM     23  S   UNL     1       6.858   2.651  11.361  0.00  0.00    +0.000 S 
ATOM     24  C   UNL     1       7.222   3.763  12.608  0.00  0.00    +0.000 A 
ENDBRANCH  19  20
ENDBRANCH   6  19
TORSDOF 4
ENDMDL
MODEL 4
REMARK VINA RESULT:      -5.7      3.567      8.456
REMARK  Name = 
REMARK  6 active torsions:
REMARK  status: ('A' for Active; 'I' for Inactive)
REMARK    1  A    between atoms: C_1  and  C_2
REMARK    2  A    between atoms: C_4  and  C_5
REMARK    3  A    between atoms: N_10  and  C_11
REMARK    4  A    between atoms: C_11  and  C_12
REMARK    5  A    between atoms: C_19  and  C_20
REMARK    6  A    between atoms: N_21  and  C_22
REMARK                            x       y       z     vdW  Elec       q    Type
REMARK                         _______ _______ _______ _____ _____    ______ ____
ROOT
ATOM      1  C   UNL     1       0.947   9.242  20.440  0.00  0.00    +0.000 C 
ATOM      2  O   UNL     1       0.813   9.140  21.655  0.00  0.00    +0.000 OA
ATOM      3  N   UNL     1       1.788   8.362  19.730  0.00  0.00    +0.000 N 
ATOM      4  C   UNL     1       2.068   8.468  18.298  0.00  0.00    +0.000 C 
ATOM      5  C   UNL     1       3.294   7.683  17.807  0.00  0.00    +0.000 C 
ATOM      6  N   UNL     1       3.328   6.282  18.278  0.00  0.00    +0.000 NA
ATOM      7  C   UNL     1       3.267   6.327  19.758  0.00  0.00    +0.000 C 
ATOM      8  C   UNL     1       2.031   7.046  20.335  0.00  0.00    +0.000 C 
ENDROOT
BRANCH   1  12
ATOM      9  C   UNL     1      -2.675  11.551  17.658  0.00  0.00    +0.000 C 
ATOM     10  C   UNL     1      -1.433  11.323  18.438  0.00  0.00    +0.000 A 
ATOM     11  C   UNL     1      -1.095  10.149  19.072  0.00  0.00    +0.000 A 
ATOM     12  C   UNL     1       0.185  10.262  19.677  0.00  0.00    +0.000 A 
ATOM     13  C   UNL     1       0.559  11.594  19.479  0.00  0.00    +0.000 A 
ATOM     14  C   UNL     1       1.790  12.312  19.925  0.00  0.00    +0.000 C 
ATOM     15  N   UNL     1      -0.447  12.229  18.749  0.00  0.00    +0.000 N 
BRANCH  15  16
ATOM     16  C   UNL     1      -0.391  13.645  18.429  0.00  0.00    +0.000 C 
ATOM     17  C   UNL     1      -0.938  14.692  19.379  0.00  0.00    +0.000 C 
ATOM     18  C   UNL     1       0.518  14.682  19.051  0.00  0.00    +0.000 C 
ENDBRANCH  15  16
ENDBRANCH   1  12
BRANCH   6  19
ATOM     19  C   UNL     1       2.229   5.519  17.656  0.00  0.00    +0.000 C 
BRANCH  19  20
ATOM     20  C   UNL     1       2.266   4.065  18.025  0.00  0.00    +0.000 A 
ATOM     21  C   UNL     1       1.167   3.355  18.622  0.00  0.00    +0.000 A 
ATOM     22  C   UNL     1       1.443   2.022  18.822  0.00  0.00    +0.000 A 
ATOM     23  S   UNL     1       3.012   1.606  18.288  0.00  0.00    +0.000 S 
ATOM     24  C   UNL     1       3.325   3.210  17.787  0.00  0.00    +0.000 A 
ENDBRANCH  19  20
ENDBRANCH   6  19
TORSDOF 4
ENDMDL
MODEL 5
REMARK VINA RESULT:      -5.7      2.533      3.760
REMARK  Name = 
REMARK  6 active torsions:
REMARK  status: ('A' for Active; 'I' for Inactive)
REMARK    1  A    between atoms: C_1  and  C_2
REMARK    2  A    between atoms: C_4  and  C_5
REMARK    3  A    between atoms: N_10  and  C_11
REMARK    4  A    between atoms: C_11  and  C_12
REMARK    5  A    between atoms: C_19  and  C_20
REMARK    6  A    between atoms: N_21  and  C_22
REMARK                            x       y       z     vdW  Elec       q    Type
REMARK                         _______ _______ _______ _____ _____    ______ ____
ROOT
ATOM      1  C   UNL     1       3.067   7.617  17.747  0.00  0.00    +0.000 C 
ATOM      2  O   UNL     1       3.769   7.980  16.808  0.00  0.00    +0.000 OA
ATOM      3  N   UNL     1       2.326   8.553  18.497  0.00  0.00    +0.000 N 
ATOM      4  C   UNL     1       1.534   8.216  19.680  0.00  0.00    +0.000 C 
ATOM      5  C   UNL     1       1.143   9.405  20.570  0.00  0.00    +0.000 C 
ATOM      6  N   UNL     1       0.567  10.542  19.821  0.00  0.00    +0.000 NA
ATOM      7  C   UNL     1       1.567  10.932  18.800  0.00  0.00    +0.000 C 
ATOM      8  C   UNL     1       1.971   9.808  17.824  0.00  0.00    +0.000 C 
ENDROOT
BRANCH   1  12
ATOM      9  C   UNL     1       1.119   2.953  18.547  0.00  0.00    +0.000 C 
ATOM     10  C   UNL     1       2.087   4.073  18.439  0.00  0.00    +0.000 A 
ATOM     11  C   UNL     1       1.787   5.347  18.012  0.00  0.00    +0.000 A 
ATOM     12  C   UNL     1       2.936   6.178  18.085  0.00  0.00    +0.000 A 
ATOM     13  C   UNL     1       3.974   5.323  18.466  0.00  0.00    +0.000 A 
ATOM     14  C   UNL     1       5.423   5.619  18.669  0.00  0.00    +0.000 C 
ATOM     15  N   UNL     1       3.445   4.044  18.650  0.00  0.00    +0.000 N 
BRANCH  15  16
ATOM     16  C   UNL     1       4.280   2.905  18.992  0.00  0.00    +0.000 C 
ATOM     17  C   UNL     1       4.190   2.239  20.350  0.00  0.00    +0.000 C 
ATOM     18  C   UNL     1       3.840   1.464  19.123  0.00  0.00    +0.000 C 
ENDBRANCH  15  16
ENDBRANCH   1  12
BRANCH   6  19
ATOM     19  C   UNL     1      -0.743  10.158  19.260  0.00  0.00    +0.000 C 
BRANCH  19  20
ATOM     20  C   UNL     1      -1.797  11.195  19.514  0.00  0.00    +0.000 A 
ATOM     21  C   UNL     1      -2.991  11.343  18.727  0.00  0.00    +0.000 A 
ATOM     22  C   UNL     1      -3.814  12.342  19.195  0.00  0.00    +0.000 A 
ATOM     23  S   UNL     1      -3.173  13.101  20.584  0.00  0.00    +0.000 S 
ATOM     24  C   UNL     1      -1.791  12.095  20.563  0.00  0.00    +0.000 A 
ENDBRANCH  19  20
ENDBRANCH   6  19
TORSDOF 4
ENDMDL
MODEL 6
REMARK VINA RESULT:      -5.7      5.272      9.763
REMARK  Name = 
REMARK  6 active torsions:
REMARK  status: ('A' for Active; 'I' for Inactive)
REMARK    1  A    between atoms: C_1  and  C_2
REMARK    2  A    between atoms: C_4  and  C_5
REMARK    3  A    between atoms: N_10  and  C_11
REMARK    4  A    between atoms: C_11  and  C_12
REMARK    5  A    between atoms: C_19  and  C_20
REMARK    6  A    between atoms: N_21  and  C_22
REMARK                            x       y       z     vdW  Elec       q    Type
REMARK                         _______ _______ _______ _____ _____    ______ ____
ROOT
ATOM      1  C   UNL     1      -0.398  11.101  22.406  0.00  0.00    +0.000 C 
ATOM      2  O   UNL     1       0.363  10.495  23.153  0.00  0.00    +0.000 OA
ATOM      3  N   UNL     1      -0.310  10.951  21.007  0.00  0.00    +0.000 N 
ATOM      4  C   UNL     1      -1.121  11.699  20.046  0.00  0.00    +0.000 C 
ATOM      5  C   UNL     1      -0.602  11.689  18.600  0.00  0.00    +0.000 C 
ATOM      6  N   UNL     1      -0.256  10.340  18.104  0.00  0.00    +0.000 NA
ATOM      7  C   UNL     1       0.745   9.783  19.044  0.00  0.00    +0.000 C 
ATOM      8  C   UNL     1       0.280   9.700  20.513  0.00  0.00    +0.000 C 
ENDROOT
BRANCH   1  12
ATOM      9  C   UNL     1      -4.792  12.696  24.490  0.00  0.00    +0.000 C 
ATOM     10  C   UNL     1      -3.430  12.707  23.901  0.00  0.00    +0.000 A 
ATOM     11  C   UNL     1      -2.711  11.591  23.535  0.00  0.00    +0.000 A 
ATOM     12  C   UNL     1      -1.470  11.968  22.957  0.00  0.00    +0.000 A 
ATOM     13  C   UNL     1      -1.418  13.358  23.092  0.00  0.00    +0.000 A 
ATOM     14  C   UNL     1      -0.338  14.312  22.700  0.00  0.00    +0.000 C 
ATOM     15  N   UNL     1      -2.604  13.786  23.692  0.00  0.00    +0.000 N 
BRANCH  15  16
ATOM     16  C   UNL     1      -2.838  15.179  24.031  0.00  0.00    +0.000 C 
ATOM     17  C   UNL     1      -3.611  16.098  23.105  0.00  0.00    +0.000 C 
ATOM     18  C   UNL     1      -4.148  15.800  24.465  0.00  0.00    +0.000 C 
ENDBRANCH  15  16
ENDBRANCH   1  12
BRANCH   6  19
ATOM     19  C   UNL     1      -1.479   9.525  17.977  0.00  0.00    +0.000 C 
BRANCH  19  20
ATOM     20  C   UNL     1      -2.563  10.238  17.224  0.00  0.00    +0.000 A 
ATOM     21  C   UNL     1      -2.569  10.421  15.798  0.00  0.00    +0.000 A 
ATOM     22  C   UNL     1      -3.697  11.070  15.351  0.00  0.00    +0.000 A 
ATOM     23  S   UNL     1      -4.762  11.454  16.630  0.00  0.00    +0.000 S 
ATOM     24  C   UNL     1      -3.715  10.753  17.785  0.00  0.00    +0.000 A 
ENDBRANCH  19  20
ENDBRANCH   6  19
TORSDOF 4
ENDMDL
MODEL 7
REMARK VINA RESULT:      -5.7      3.528      8.226
REMARK  Name = 
REMARK  6 active torsions:
REMARK  status: ('A' for Active; 'I' for Inactive)
REMARK    1  A    between atoms: C_1  and  C_2
REMARK    2  A    between atoms: C_4  and  C_5
REMARK    3  A    between atoms: N_10  and  C_11
REMARK    4  A    between atoms: C_11  and  C_12
REMARK    5  A    between atoms: C_19  and  C_20
REMARK    6  A    between atoms: N_21  and  C_22
REMARK                            x       y       z     vdW  Elec       q    Type
REMARK                         _______ _______ _______ _____ _____    ______ ____
ROOT
ATOM      1  C   UNL     1       2.685   5.351  17.994  0.00  0.00    +0.000 C 
ATOM      2  O   UNL     1       1.844   4.465  17.878  0.00  0.00    +0.000 OA
ATOM      3  N   UNL     1       4.014   5.145  17.571  0.00  0.00    +0.000 N 
ATOM      4  C   UNL     1       5.093   6.116  17.749  0.00  0.00    +0.000 C 
ATOM      5  C   UNL     1       6.514   5.554  17.593  0.00  0.00    +0.000 C 
ATOM      6  N   UNL     1       6.698   4.736  16.375  0.00  0.00    +0.000 NA
ATOM      7  C   UNL     1       5.689   3.653  16.432  0.00  0.00    +0.000 C 
ATOM      8  C   UNL     1       4.226   4.133  16.528  0.00  0.00    +0.000 C 
ENDROOT
BRANCH   1  12
ATOM      9  C   UNL     1       1.714  10.362  18.368  0.00  0.00    +0.000 C 
ATOM     10  C   UNL     1       1.861   8.928  18.722  0.00  0.00    +0.000 A 
ATOM     11  C   UNL     1       2.213   7.924  17.848  0.00  0.00    +0.000 A 
ATOM     12  C   UNL     1       2.313   6.684  18.532  0.00  0.00    +0.000 A 
ATOM     13  C   UNL     1       1.894   6.958  19.837  0.00  0.00    +0.000 A 
ATOM     14  C   UNL     1       1.751   6.036  21.003  0.00  0.00    +0.000 C 
ATOM     15  N   UNL     1       1.597   8.319  19.926  0.00  0.00    +0.000 N 
BRANCH  15  16
ATOM     16  C   UNL     1       1.072   8.916  21.142  0.00  0.00    +0.000 C 
ATOM     17  C   UNL     1      -0.081   9.900  21.105  0.00  0.00    +0.000 C 
ATOM     18  C   UNL     1      -0.245   8.597  21.815  0.00  0.00    +0.000 C 
ENDBRANCH  15  16
ENDBRANCH   1  12
BRANCH   6  19
ATOM     19  C   UNL     1       6.593   5.592  15.178  0.00  0.00    +0.000 C 
BRANCH  19  20
ATOM     20  C   UNL     1       6.619   4.796  13.906  0.00  0.00    +0.000 A 
ATOM     21  C   UNL     1       7.638   4.917  12.898  0.00  0.00    +0.000 A 
ATOM     22  C   UNL     1       7.453   4.045  11.850  0.00  0.00    +0.000 A 
ATOM     23  S   UNL     1       6.068   3.069  12.067  0.00  0.00    +0.000 S 
ATOM     24  C   UNL     1       5.713   3.811  13.566  0.00  0.00    +0.000 A 
ENDBRANCH  19  20
ENDBRANCH   6  19
TORSDOF 4
ENDMDL
MODEL 8
REMARK VINA RESULT:      -5.6      3.816      8.721
REMARK  Name = 
REMARK  6 active torsions:
REMARK  status: ('A' for Active; 'I' for Inactive)
REMARK    1  A    between atoms: C_1  and  C_2
REMARK    2  A    between atoms: C_4  and  C_5
REMARK    3  A    between atoms: N_10  and  C_11
REMARK    4  A    between atoms: C_11  and  C_12
REMARK    5  A    between atoms: C_19  and  C_20
REMARK    6  A    between atoms: N_21  and  C_22
REMARK                            x       y       z     vdW  Elec       q    Type
REMARK                         _______ _______ _______ _____ _____    ______ ____
ROOT
ATOM      1  C   UNL     1       0.793   9.040  20.836  0.00  0.00    +0.000 C 
ATOM      2  O   UNL     1       0.803   8.844  22.047  0.00  0.00    +0.000 OA
ATOM      3  N   UNL     1       1.629   8.297  19.978  0.00  0.00    +0.000 N 
ATOM      4  C   UNL     1       1.740   8.525  18.537  0.00  0.00    +0.000 C 
ATOM      5  C   UNL     1       2.972   7.901  17.866  0.00  0.00    +0.000 C 
ATOM      6  N   UNL     1       3.188   6.483  18.222  0.00  0.00    +0.000 NA
ATOM      7  C   UNL     1       3.285   6.423  19.699  0.00  0.00    +0.000 C 
ATOM      8  C   UNL     1       2.058   6.975  20.453  0.00  0.00    +0.000 C 
ENDROOT
BRANCH   1  12
ATOM      9  C   UNL     1      -2.188  11.530  17.504  0.00  0.00    +0.000 C 
ATOM     10  C   UNL     1      -1.493  11.154  18.760  0.00  0.00    +0.000 A 
ATOM     11  C   UNL     1      -0.684  10.051  18.924  0.00  0.00    +0.000 A 
ATOM     12  C   UNL     1      -0.140  10.025  20.234  0.00  0.00    +0.000 A 
ATOM     13  C   UNL     1      -0.744  11.099  20.896  0.00  0.00    +0.000 A 
ATOM     14  C   UNL     1      -0.591  11.551  22.311  0.00  0.00    +0.000 C 
ATOM     15  N   UNL     1      -1.582  11.755  19.993  0.00  0.00    +0.000 N 
BRANCH  15  16
ATOM     16  C   UNL     1      -2.408  12.883  20.388  0.00  0.00    +0.000 C 
ATOM     17  C   UNL     1      -3.917  12.845  20.248  0.00  0.00    +0.000 C 
ATOM     18  C   UNL     1      -3.304  12.972  21.603  0.00  0.00    +0.000 C 
ENDBRANCH  15  16
ENDBRANCH   1  12
BRANCH   6  19
ATOM     19  C   UNL     1       2.104   5.655  17.659  0.00  0.00    +0.000 C 
BRANCH  19  20
ATOM     20  C   UNL     1       2.256   4.204  18.005  0.00  0.00    +0.000 A 
ATOM     21  C   UNL     1       1.250   3.422  18.671  0.00  0.00    +0.000 A 
ATOM     22  C   UNL     1       1.621   2.107  18.833  0.00  0.00    +0.000 A 
ATOM     23  S   UNL     1       3.169   1.794  18.182  0.00  0.00    +0.000 S 
ATOM     24  C   UNL     1       3.346   3.419  17.681  0.00  0.00    +0.000 A 
ENDBRANCH  19  20
ENDBRANCH   6  19
TORSDOF 4
ENDMDL
MODEL 9
REMARK VINA RESULT:      -5.5      5.018      8.208
REMARK  Name = 
REMARK  6 active torsions:
REMARK  status: ('A' for Active; 'I' for Inactive)
REMARK    1  A    between atoms: C_1  and  C_2
REMARK    2  A    between atoms: C_4  and  C_5
REMARK    3  A    between atoms: N_10  and  C_11
REMARK    4  A    between atoms: C_11  and  C_12
REMARK    5  A    between atoms: C_19  and  C_20
REMARK    6  A    between atoms: N_21  and  C_22
REMARK                            x       y       z     vdW  Elec       q    Type
REMARK                         _______ _______ _______ _____ _____    ______ ____
ROOT
ATOM      1  C   UNL     1       5.822   5.317  19.004  0.00  0.00    +0.000 C 
ATOM      2  O   UNL     1       6.762   5.394  19.789  0.00  0.00    +0.000 OA
ATOM      3  N   UNL     1       6.040   5.356  17.612  0.00  0.00    +0.000 N 
ATOM      4  C   UNL     1       4.971   5.355  16.612  0.00  0.00    +0.000 C 
ATOM      5  C   UNL     1       5.389   5.801  15.203  0.00  0.00    +0.000 C 
ATOM      6  N   UNL     1       6.613   5.134  14.709  0.00  0.00    +0.000 NA
ATOM      7  C   UNL     1       7.678   5.404  15.703  0.00  0.00    +0.000 C 
ATOM      8  C   UNL     1       7.363   4.931  17.137  0.00  0.00    +0.000 C 
ENDROOT
BRANCH   1  12
ATOM      9  C   UNL     1       1.088   6.228  20.722  0.00  0.00    +0.000 C 
ATOM     10  C   UNL     1       2.302   5.510  20.259  0.00  0.00    +0.000 A 
ATOM     11  C   UNL     1       3.457   6.108  19.808  0.00  0.00    +0.000 A 
ATOM     12  C   UNL     1       4.435   5.126  19.498  0.00  0.00    +0.000 A 
ATOM     13  C   UNL     1       3.783   3.902  19.671  0.00  0.00    +0.000 A 
ATOM     14  C   UNL     1       4.293   2.515  19.457  0.00  0.00    +0.000 C 
ATOM     15  N   UNL     1       2.482   4.155  20.107  0.00  0.00    +0.000 N 
BRANCH  15  16
ATOM     16  C   UNL     1       1.519   3.089  20.322  0.00  0.00    +0.000 C 
ATOM     17  C   UNL     1       0.345   2.884  19.385  0.00  0.00    +0.000 C 
ATOM     18  C   UNL     1       1.379   1.815  19.518  0.00  0.00    +0.000 C 
ENDBRANCH  15  16
ENDBRANCH   1  12
BRANCH   6  19
ATOM     19  C   UNL     1       6.347   3.699  14.491  0.00  0.00    +0.000 C 
BRANCH  19  20
ATOM     20  C   UNL     1       5.796   3.424  13.122  0.00  0.00    +0.000 A 
ATOM     21  C   UNL     1       6.537   2.790  12.066  0.00  0.00    +0.000 A 
ATOM     22  C   UNL     1       5.789   2.617  10.924  0.00  0.00    +0.000 A 
ATOM     23  S   UNL     1       4.194   3.199  11.110  0.00  0.00    +0.000 S 
ATOM     24  C   UNL     1       4.501   3.685  12.720  0.00  0.00    +0.000 A 
ENDBRANCH  19  20
ENDBRANCH   6  19
TORSDOF 4
ENDMDL
