MODEL 1
REMARK VINA RESULT:      -9.2      0.000      0.000
REMARK  Name = 
REMARK  4 active torsions:
REMARK  status: ('A' for Active; 'I' for Inactive)
REMARK    1  A    between atoms: C_1  and  C_2
REMARK    2  A    between atoms: N_14  and  C_15
REMARK    3  A    between atoms: C_23  and  C_24
REMARK    4  A    between atoms: C_26  and  C_27
REMARK                            x       y       z     vdW  Elec       q    Type
REMARK                         _______ _______ _______ _____ _____    ______ ____
ROOT
ATOM      1  C   UNL     1       2.996  14.065  20.888  0.00  0.00    +0.000 C 
ATOM      2  C   UNL     1       1.872  13.203  20.363  0.00  0.00    +0.000 C 
ATOM      3  O   UNL     1       1.528  12.123  21.253  0.00  0.00    +0.000 OA
ATOM      4  C   UNL     1       0.196  11.711  20.843  0.00  0.00    +0.000 C 
ATOM      5  C   UNL     1      -0.729  11.692  22.073  0.00  0.00    +0.000 C 
ATOM      6  C   UNL     1      -0.508  10.511  23.013  0.00  0.00    +0.000 C 
ATOM      7  C   UNL     1      -0.485   9.149  22.327  0.00  0.00    +0.000 C 
ATOM      8  C   UNL     1       0.328   9.083  21.057  0.00  0.00    +0.000 C 
ATOM      9  C   UNL     1       1.005   7.951  20.729  0.00  0.00    +0.000 C 
ATOM     10  C   UNL     1       1.673   7.926  19.480  0.00  0.00    +0.000 A 
ATOM     11  C   UNL     1       1.866   9.018  18.671  0.00  0.00    +0.000 A 
ATOM     12  C   UNL     1       2.788   8.617  17.701  0.00  0.00    +0.000 A 
ATOM     13  N   UNL     1       3.150   7.349  17.863  0.00  0.00    +0.000 NA
ATOM     14  N   UNL     1       2.369   6.884  18.889  0.00  0.00    +0.000 N 
ATOM     15  C   UNL     1       1.345  10.348  19.015  0.00  0.00    +0.000 C 
ATOM     16  C   UNL     1       0.206  10.314  20.093  0.00  0.00    +0.000 C 
ATOM     17  C   UNL     1      -1.148  10.105  19.361  0.00  0.00    +0.000 C 
ATOM     18  O   UNL     1      -0.320  12.745  19.960  0.00  0.00    +0.000 OA
ATOM     19  C   UNL     1       0.541  13.876  20.148  0.00  0.00    +0.000 C 
ATOM     20  C   UNL     1       0.490  14.778  18.931  0.00  0.00    +0.000 C 
ENDROOT
BRANCH  14  21
ATOM     21  C   UNL     1       2.313   5.485  19.102  0.00  0.00    +0.000 A 
ATOM     22  C   UNL     1       1.911   4.657  18.038  0.00  0.00    +0.000 A 
ATOM     23  C   UNL     1       1.749   3.287  18.237  0.00  0.00    +0.000 A 
ATOM     24  C   UNL     1       1.952   2.757  19.505  0.00  0.00    +0.000 A 
ATOM     25  F   UNL     1       1.761   1.448  19.707  0.00  0.00    +0.000 F 
ATOM     26  C   UNL     1       2.330   3.568  20.573  0.00  0.00    +0.000 A 
ATOM     27  C   UNL     1       2.527   4.938  20.373  0.00  0.00    +0.000 A 
ENDBRANCH  14  21
TORSDOF 1
ENDMDL
MODEL 2
REMARK VINA RESULT:      -9.0      0.492      1.009
REMARK  Name = 
REMARK  4 active torsions:
REMARK  status: ('A' for Active; 'I' for Inactive)
REMARK    1  A    between atoms: C_1  and  C_2
REMARK    2  A    between atoms: N_14  and  C_15
REMARK    3  A    between atoms: C_23  and  C_24
REMARK    4  A    between atoms: C_26  and  C_27
REMARK                            x       y       z     vdW  Elec       q    Type
REMARK                         _______ _______ _______ _____ _____    ______ ____
ROOT
ATOM      1  C   UNL     1       2.923  14.034  20.944  0.00  0.00    +0.000 C 
ATOM      2  C   UNL     1       1.816  13.153  20.414  0.00  0.00    +0.000 C 
ATOM      3  O   UNL     1       1.541  12.022  21.265  0.00  0.00    +0.000 OA
ATOM      4  C   UNL     1       0.214  11.576  20.876  0.00  0.00    +0.000 C 
ATOM      5  C   UNL     1      -0.671  11.468  22.130  0.00  0.00    +0.000 C 
ATOM      6  C   UNL     1      -0.377  10.257  23.011  0.00  0.00    +0.000 C 
ATOM      7  C   UNL     1      -0.323   8.928  22.264  0.00  0.00    +0.000 C 
ATOM      8  C   UNL     1       0.452   8.949  20.969  0.00  0.00    +0.000 C 
ATOM      9  C   UNL     1       1.160   7.859  20.572  0.00  0.00    +0.000 C 
ATOM     10  C   UNL     1       1.791   7.915  19.304  0.00  0.00    +0.000 A 
ATOM     11  C   UNL     1       1.916   9.047  18.539  0.00  0.00    +0.000 A 
ATOM     12  C   UNL     1       2.823   8.725  17.525  0.00  0.00    +0.000 A 
ATOM     13  N   UNL     1       3.237   7.466  17.620  0.00  0.00    +0.000 NA
ATOM     14  N   UNL     1       2.507   6.927  18.648  0.00  0.00    +0.000 N 
ATOM     15  C   UNL     1       1.356  10.339  18.957  0.00  0.00    +0.000 C 
ATOM     16  C   UNL     1       0.253  10.215  20.065  0.00  0.00    +0.000 C 
ATOM     17  C   UNL     1      -1.114   9.984  19.364  0.00  0.00    +0.000 C 
ATOM     18  O   UNL     1      -0.369  12.626  20.055  0.00  0.00    +0.000 OA
ATOM     19  C   UNL     1       0.454  13.782  20.268  0.00  0.00    +0.000 C 
ATOM     20  C   UNL     1       0.331  14.733  19.094  0.00  0.00    +0.000 C 
ENDROOT
BRANCH  14  21
ATOM     21  C   UNL     1       2.510   5.519  18.799  0.00  0.00    +0.000 A 
ATOM     22  C   UNL     1       3.385   4.944  19.740  0.00  0.00    +0.000 A 
ATOM     23  C   UNL     1       3.487   3.559  19.848  0.00  0.00    +0.000 A 
ATOM     24  C   UNL     1       2.745   2.755  18.993  0.00  0.00    +0.000 A 
ATOM     25  F   UNL     1       2.869   1.424  19.070  0.00  0.00    +0.000 F 
ATOM     26  C   UNL     1       1.890   3.310  18.043  0.00  0.00    +0.000 A 
ATOM     27  C   UNL     1       1.757   4.699  17.951  0.00  0.00    +0.000 A 
ENDBRANCH  14  21
TORSDOF 1
ENDMDL
MODEL 3
REMARK VINA RESULT:      -7.4      2.902      4.766
REMARK  Name = 
REMARK  4 active torsions:
REMARK  status: ('A' for Active; 'I' for Inactive)
REMARK    1  A    between atoms: C_1  and  C_2
REMARK    2  A    between atoms: N_14  and  C_15
REMARK    3  A    between atoms: C_23  and  C_24
REMARK    4  A    between atoms: C_26  and  C_27
REMARK                            x       y       z     vdW  Elec       q    Type
REMARK                         _______ _______ _______ _____ _____    ______ ____
ROOT
ATOM      1  C   UNL     1      -4.828  12.061  24.729  0.00  0.00    +0.000 C 
ATOM      2  C   UNL     1      -3.684  12.596  23.899  0.00  0.00    +0.000 C 
ATOM      3  O   UNL     1      -3.729  12.154  22.528  0.00  0.00    +0.000 OA
ATOM      4  C   UNL     1      -2.881  13.089  21.807  0.00  0.00    +0.000 C 
ATOM      5  C   UNL     1      -3.658  13.654  20.605  0.00  0.00    +0.000 C 
ATOM      6  C   UNL     1      -3.811  12.685  19.437  0.00  0.00    +0.000 C 
ATOM      7  C   UNL     1      -2.511  12.026  18.986  0.00  0.00    +0.000 C 
ATOM      8  C   UNL     1      -1.630  11.512  20.099  0.00  0.00    +0.000 C 
ATOM      9  C   UNL     1      -0.888  10.387  19.927  0.00  0.00    +0.000 C 
ATOM     10  C   UNL     1      -0.016  10.012  20.979  0.00  0.00    +0.000 A 
ATOM     11  C   UNL     1      -0.010  10.572  22.231  0.00  0.00    +0.000 A 
ATOM     12  C   UNL     1       0.791   9.740  23.019  0.00  0.00    +0.000 A 
ATOM     13  N   UNL     1       1.282   8.725  22.316  0.00  0.00    +0.000 NA
ATOM     14  N   UNL     1       0.883   8.959  21.025  0.00  0.00    +0.000 N 
ATOM     15  C   UNL     1      -0.908  11.675  22.599  0.00  0.00    +0.000 C 
ATOM     16  C   UNL     1      -1.508  12.431  21.363  0.00  0.00    +0.000 C 
ATOM     17  C   UNL     1      -0.508  13.544  20.944  0.00  0.00    +0.000 C 
ATOM     18  O   UNL     1      -2.628  14.213  22.695  0.00  0.00    +0.000 OA
ATOM     19  C   UNL     1      -3.593  14.093  23.750  0.00  0.00    +0.000 C 
ATOM     20  C   UNL     1      -3.100  14.812  24.991  0.00  0.00    +0.000 C 
ENDROOT
BRANCH  14  21
ATOM     21  C   UNL     1       1.497   8.209  19.992  0.00  0.00    +0.000 A 
ATOM     22  C   UNL     1       1.901   6.889  20.266  0.00  0.00    +0.000 A 
ATOM     23  C   UNL     1       2.596   6.154  19.307  0.00  0.00    +0.000 A 
ATOM     24  C   UNL     1       2.916   6.753  18.095  0.00  0.00    +0.000 A 
ATOM     25  F   UNL     1       3.616   6.062  17.187  0.00  0.00    +0.000 F 
ATOM     26  C   UNL     1       2.541   8.066  17.818  0.00  0.00    +0.000 A 
ATOM     27  C   UNL     1       1.814   8.798  18.762  0.00  0.00    +0.000 A 
ENDBRANCH  14  21
TORSDOF 1
ENDMDL
MODEL 4
REMARK VINA RESULT:      -7.1      2.750      5.249
REMARK  Name = 
REMARK  4 active torsions:
REMARK  status: ('A' for Active; 'I' for Inactive)
REMARK    1  A    between atoms: C_1  and  C_2
REMARK    2  A    between atoms: N_14  and  C_15
REMARK    3  A    between atoms: C_23  and  C_24
REMARK    4  A    between atoms: C_26  and  C_27
REMARK                            x       y       z     vdW  Elec       q    Type
REMARK                         _______ _______ _______ _____ _____    ______ ____
ROOT
ATOM      1  C   UNL     1      -1.558  17.656  18.578  0.00  0.00    +0.000 C 
ATOM      2  C   UNL     1      -0.473  16.997  19.398  0.00  0.00    +0.000 C 
ATOM      3  O   UNL     1       0.491  16.290  18.592  0.00  0.00    +0.000 OA
ATOM      4  C   UNL     1       1.652  16.132  19.452  0.00  0.00    +0.000 C 
ATOM      5  C   UNL     1       2.901  16.648  18.715  0.00  0.00    +0.000 C 
ATOM      6  C   UNL     1       3.419  15.720  17.620  0.00  0.00    +0.000 C 
ATOM      7  C   UNL     1       3.600  14.268  18.053  0.00  0.00    +0.000 C 
ATOM      8  C   UNL     1       2.463  13.691  18.860  0.00  0.00    +0.000 C 
ATOM      9  C   UNL     1       2.122  12.381  18.732  0.00  0.00    +0.000 C 
ATOM     10  C   UNL     1       1.106  11.884  19.585  0.00  0.00    +0.000 A 
ATOM     11  C   UNL     1       0.299  12.658  20.380  0.00  0.00    +0.000 A 
ATOM     12  C   UNL     1      -0.721  11.815  20.828  0.00  0.00    +0.000 A 
ATOM     13  N   UNL     1      -0.570  10.577  20.368  0.00  0.00    +0.000 NA
ATOM     14  N   UNL     1       0.626  10.589  19.698  0.00  0.00    +0.000 N 
ATOM     15  C   UNL     1       0.446  14.118  20.456  0.00  0.00    +0.000 C 
ATOM     16  C   UNL     1       1.834  14.635  19.942  0.00  0.00    +0.000 C 
ATOM     17  C   UNL     1       2.836  14.593  21.129  0.00  0.00    +0.000 C 
ATOM     18  O   UNL     1       1.461  17.009  20.596  0.00  0.00    +0.000 OA
ATOM     19  C   UNL     1       0.403  17.903  20.223  0.00  0.00    +0.000 C 
ATOM     20  C   UNL     1      -0.270  18.459  21.463  0.00  0.00    +0.000 C 
ENDROOT
BRANCH  14  21
ATOM     21  C   UNL     1       1.204   9.345  19.345  0.00  0.00    +0.000 A 
ATOM     22  C   UNL     1       1.457   8.407  20.363  0.00  0.00    +0.000 A 
ATOM     23  C   UNL     1       2.114   7.213  20.069  0.00  0.00    +0.000 A 
ATOM     24  C   UNL     1       2.547   6.979  18.770  0.00  0.00    +0.000 A 
ATOM     25  F   UNL     1       3.211   5.850  18.493  0.00  0.00    +0.000 F 
ATOM     26  C   UNL     1       2.321   7.908  17.756  0.00  0.00    +0.000 A 
ATOM     27  C   UNL     1       1.634   9.093  18.036  0.00  0.00    +0.000 A 
ENDBRANCH  14  21
TORSDOF 1
ENDMDL
MODEL 5
REMARK VINA RESULT:      -7.0      2.860      5.006
REMARK  Name = 
REMARK  4 active torsions:
REMARK  status: ('A' for Active; 'I' for Inactive)
REMARK    1  A    between atoms: C_1  and  C_2
REMARK    2  A    between atoms: N_14  and  C_15
REMARK    3  A    between atoms: C_23  and  C_24
REMARK    4  A    between atoms: C_26  and  C_27
REMARK                            x       y       z     vdW  Elec       q    Type
REMARK                         _______ _______ _______ _____ _____    ______ ____
ROOT
ATOM      1  C   UNL     1      -0.304  18.072  17.000  0.00  0.00    +0.000 C 
ATOM      2  C   UNL     1      -0.421  17.286  18.285  0.00  0.00    +0.000 C 
ATOM      3  O   UNL     1       0.815  16.651  18.670  0.00  0.00    +0.000 OA
ATOM      4  C   UNL     1       0.658  16.356  20.084  0.00  0.00    +0.000 C 
ATOM      5  C   UNL     1       1.865  16.917  20.856  0.00  0.00    +0.000 C 
ATOM      6  C   UNL     1       3.151  16.111  20.694  0.00  0.00    +0.000 C 
ATOM      7  C   UNL     1       2.995  14.613  20.937  0.00  0.00    +0.000 C 
ATOM      8  C   UNL     1       1.788  13.979  20.291  0.00  0.00    +0.000 C 
ATOM      9  C   UNL     1       1.847  12.706  19.819  0.00  0.00    +0.000 C 
ATOM     10  C   UNL     1       0.652  12.141  19.308  0.00  0.00    +0.000 A 
ATOM     11  C   UNL     1      -0.503  12.839  19.061  0.00  0.00    +0.000 A 
ATOM     12  C   UNL     1      -1.318  11.980  18.319  0.00  0.00    +0.000 A 
ATOM     13  N   UNL     1      -0.735  10.803  18.119  0.00  0.00    +0.000 NA
ATOM     14  N   UNL     1       0.433  10.858  18.834  0.00  0.00    +0.000 N 
ATOM     15  C   UNL     1      -0.626  14.274  19.351  0.00  0.00    +0.000 C 
ATOM     16  C   UNL     1       0.457  14.806  20.352  0.00  0.00    +0.000 C 
ATOM     17  C   UNL     1      -0.072  14.590  21.797  0.00  0.00    +0.000 C 
ATOM     18  O   UNL     1      -0.505  17.095  20.551  0.00  0.00    +0.000 OA
ATOM     19  C   UNL     1      -0.783  18.059  19.526  0.00  0.00    +0.000 C 
ATOM     20  C   UNL     1      -2.238  18.483  19.592  0.00  0.00    +0.000 C 
ENDROOT
BRANCH  14  21
ATOM     21  C   UNL     1       1.134   9.648  19.058  0.00  0.00    +0.000 A 
ATOM     22  C   UNL     1       1.753   9.014  17.964  0.00  0.00    +0.000 A 
ATOM     23  C   UNL     1       2.367   7.774  18.126  0.00  0.00    +0.000 A 
ATOM     24  C   UNL     1       2.329   7.156  19.370  0.00  0.00    +0.000 A 
ATOM     25  F   UNL     1       2.886   5.948  19.519  0.00  0.00    +0.000 F 
ATOM     26  C   UNL     1       1.702   7.761  20.457  0.00  0.00    +0.000 A 
ATOM     27  C   UNL     1       1.113   9.021  20.310  0.00  0.00    +0.000 A 
ENDBRANCH  14  21
TORSDOF 1
ENDMDL
MODEL 6
REMARK VINA RESULT:      -6.9      2.554      4.196
REMARK  Name = 
REMARK  4 active torsions:
REMARK  status: ('A' for Active; 'I' for Inactive)
REMARK    1  A    between atoms: C_1  and  C_2
REMARK    2  A    between atoms: N_14  and  C_15
REMARK    3  A    between atoms: C_23  and  C_24
REMARK    4  A    between atoms: C_26  and  C_27
REMARK                            x       y       z     vdW  Elec       q    Type
REMARK                         _______ _______ _______ _____ _____    ______ ____
ROOT
ATOM      1  C   UNL     1      -4.308  12.307  24.464  0.00  0.00    +0.000 C 
ATOM      2  C   UNL     1      -3.196  12.688  23.514  0.00  0.00    +0.000 C 
ATOM      3  O   UNL     1      -3.305  12.037  22.232  0.00  0.00    +0.000 OA
ATOM      4  C   UNL     1      -2.481  12.834  21.338  0.00  0.00    +0.000 C 
ATOM      5  C   UNL     1      -3.305  13.216  20.096  0.00  0.00    +0.000 C 
ATOM      6  C   UNL     1      -3.518  12.078  19.102  0.00  0.00    +0.000 C 
ATOM      7  C   UNL     1      -2.245  11.336  18.706  0.00  0.00    +0.000 C 
ATOM      8  C   UNL     1      -1.321  10.989  19.848  0.00  0.00    +0.000 C 
ATOM      9  C   UNL     1      -0.598   9.839  19.825  0.00  0.00    +0.000 C 
ATOM     10  C   UNL     1       0.316   9.619  20.885  0.00  0.00    +0.000 A 
ATOM     11  C   UNL     1       0.382  10.369  22.032  0.00  0.00    +0.000 A 
ATOM     12  C   UNL     1       1.209   9.658  22.907  0.00  0.00    +0.000 A 
ATOM     13  N   UNL     1       1.660   8.538  22.352  0.00  0.00    +0.000 NA
ATOM     14  N   UNL     1       1.207   8.573  21.059  0.00  0.00    +0.000 N 
ATOM     15  C   UNL     1      -0.488  11.530  22.259  0.00  0.00    +0.000 C 
ATOM     16  C   UNL     1      -1.135  12.093  20.946  0.00  0.00    +0.000 C 
ATOM     17  C   UNL     1      -0.144  13.110  20.315  0.00  0.00    +0.000 C 
ATOM     18  O   UNL     1      -2.179  14.079  22.027  0.00  0.00    +0.000 OA
ATOM     19  C   UNL     1      -3.098  14.141  23.127  0.00  0.00    +0.000 C 
ATOM     20  C   UNL     1      -2.545  15.038  24.218  0.00  0.00    +0.000 C 
ENDROOT
BRANCH  14  21
ATOM     21  C   UNL     1       1.768   7.660  20.132  0.00  0.00    +0.000 A 
ATOM     22  C   UNL     1       2.174   8.142  18.874  0.00  0.00    +0.000 A 
ATOM     23  C   UNL     1       2.639   7.258  17.901  0.00  0.00    +0.000 A 
ATOM     24  C   UNL     1       2.661   5.897  18.176  0.00  0.00    +0.000 A 
ATOM     25  F   UNL     1       3.072   5.043  17.230  0.00  0.00    +0.000 F 
ATOM     26  C   UNL     1       2.242   5.404  19.410  0.00  0.00    +0.000 A 
ATOM     27  C   UNL     1       1.806   6.287  20.403  0.00  0.00    +0.000 A 
ENDBRANCH  14  21
TORSDOF 1
ENDMDL
MODEL 7
REMARK VINA RESULT:      -6.9      2.984      5.300
REMARK  Name = 
REMARK  4 active torsions:
REMARK  status: ('A' for Active; 'I' for Inactive)
REMARK    1  A    between atoms: C_1  and  C_2
REMARK    2  A    between atoms: N_14  and  C_15
REMARK    3  A    between atoms: C_23  and  C_24
REMARK    4  A    between atoms: C_26  and  C_27
REMARK                            x       y       z     vdW  Elec       q    Type
REMARK                         _______ _______ _______ _____ _____    ______ ____
ROOT
ATOM      1  C   UNL     1      -0.886  18.173  17.468  0.00  0.00    +0.000 C 
ATOM      2  C   UNL     1      -0.583  17.386  18.722  0.00  0.00    +0.000 C 
ATOM      3  O   UNL     1       0.693  16.716  18.671  0.00  0.00    +0.000 OA
ATOM      4  C   UNL     1       1.014  16.420  20.057  0.00  0.00    +0.000 C 
ATOM      5  C   UNL     1       2.427  16.944  20.371  0.00  0.00    +0.000 C 
ATOM      6  C   UNL     1       3.559  16.104  19.789  0.00  0.00    +0.000 C 
ATOM      7  C   UNL     1       3.453  14.610  20.080  0.00  0.00    +0.000 C 
ATOM      8  C   UNL     1       2.081  14.012  19.885  0.00  0.00    +0.000 C 
ATOM      9  C   UNL     1       1.942  12.739  19.430  0.00  0.00    +0.000 C 
ATOM     10  C   UNL     1       0.630  12.210  19.356  0.00  0.00    +0.000 A 
ATOM     11  C   UNL     1      -0.521  12.941  19.509  0.00  0.00    +0.000 A 
ATOM     12  C   UNL     1      -1.563  12.108  19.093  0.00  0.00    +0.000 A 
ATOM     13  N   UNL     1      -1.115  10.915  18.716  0.00  0.00    +0.000 NA
ATOM     14  N   UNL     1       0.228  10.935  18.993  0.00  0.00    +0.000 N 
ATOM     15  C   UNL     1      -0.499  14.378  19.815  0.00  0.00    +0.000 C 
ATOM     16  C   UNL     1       0.873  14.876  20.387  0.00  0.00    +0.000 C 
ATOM     17  C   UNL     1       0.858  14.671  21.927  0.00  0.00    +0.000 C 
ATOM     18  O   UNL     1       0.099  17.190  20.884  0.00  0.00    +0.000 OA
ATOM     19  C   UNL     1      -0.483  18.166  20.008  0.00  0.00    +0.000 C 
ATOM     20  C   UNL     1      -1.817  18.631  20.558  0.00  0.00    +0.000 C 
ENDROOT
BRANCH  14  21
ATOM     21  C   UNL     1       0.930   9.705  18.975  0.00  0.00    +0.000 A 
ATOM     22  C   UNL     1       1.023   8.964  20.167  0.00  0.00    +0.000 A 
ATOM     23  C   UNL     1       1.787   7.799  20.212  0.00  0.00    +0.000 A 
ATOM     24  C   UNL     1       2.484   7.401  19.078  0.00  0.00    +0.000 A 
ATOM     25  F   UNL     1       3.248   6.303  19.129  0.00  0.00    +0.000 F 
ATOM     26  C   UNL     1       2.417   8.136  17.896  0.00  0.00    +0.000 A 
ATOM     27  C   UNL     1       1.626   9.287  17.834  0.00  0.00    +0.000 A 
ENDBRANCH  14  21
TORSDOF 1
ENDMDL
MODEL 8
REMARK VINA RESULT:      -6.7      2.430      4.038
REMARK  Name = 
REMARK  4 active torsions:
REMARK  status: ('A' for Active; 'I' for Inactive)
REMARK    1  A    between atoms: C_1  and  C_2
REMARK    2  A    between atoms: N_14  and  C_15
REMARK    3  A    between atoms: C_23  and  C_24
REMARK    4  A    between atoms: C_26  and  C_27
REMARK                            x       y       z     vdW  Elec       q    Type
REMARK                         _______ _______ _______ _____ _____    ______ ____
ROOT
ATOM      1  C   UNL     1      -4.041  12.518  24.164  0.00  0.00    +0.000 C 
ATOM      2  C   UNL     1      -2.931  12.835  23.188  0.00  0.00    +0.000 C 
ATOM      3  O   UNL     1      -3.085  12.159  21.923  0.00  0.00    +0.000 OA
ATOM      4  C   UNL     1      -2.246  12.903  20.999  0.00  0.00    +0.000 C 
ATOM      5  C   UNL     1      -3.074  13.288  19.761  0.00  0.00    +0.000 C 
ATOM      6  C   UNL     1      -3.346  12.137  18.797  0.00  0.00    +0.000 C 
ATOM      7  C   UNL     1      -2.109  11.338  18.399  0.00  0.00    +0.000 C 
ATOM      8  C   UNL     1      -1.180  10.982  19.535  0.00  0.00    +0.000 C 
ATOM      9  C   UNL     1      -0.501   9.805  19.528  0.00  0.00    +0.000 C 
ATOM     10  C   UNL     1       0.421   9.575  20.579  0.00  0.00    +0.000 A 
ATOM     11  C   UNL     1       0.534  10.348  21.707  0.00  0.00    +0.000 A 
ATOM     12  C   UNL     1       1.347   9.626  22.586  0.00  0.00    +0.000 A 
ATOM     13  N   UNL     1       1.746   8.477  22.051  0.00  0.00    +0.000 NA
ATOM     14  N   UNL     1       1.274   8.500  20.764  0.00  0.00    +0.000 N 
ATOM     15  C   UNL     1      -0.289  11.546  21.920  0.00  0.00    +0.000 C 
ATOM     16  C   UNL     1      -0.935  12.103  20.604  0.00  0.00    +0.000 C 
ATOM     17  C   UNL     1       0.083  13.067  19.935  0.00  0.00    +0.000 C 
ATOM     18  O   UNL     1      -1.886  14.151  21.654  0.00  0.00    +0.000 OA
ATOM     19  C   UNL     1      -2.784  14.274  22.766  0.00  0.00    +0.000 C 
ATOM     20  C   UNL     1      -2.180  15.174  23.827  0.00  0.00    +0.000 C 
ENDROOT
BRANCH  14  21
ATOM     21  C   UNL     1       1.786   7.546  19.850  0.00  0.00    +0.000 A 
ATOM     22  C   UNL     1       1.766   6.186  20.213  0.00  0.00    +0.000 A 
ATOM     23  C   UNL     1       2.349   5.230  19.384  0.00  0.00    +0.000 A 
ATOM     24  C   UNL     1       2.981   5.639  18.216  0.00  0.00    +0.000 A 
ATOM     25  F   UNL     1       3.573   4.727  17.436  0.00  0.00    +0.000 F 
ATOM     26  C   UNL     1       3.025   6.984  17.854  0.00  0.00    +0.000 A 
ATOM     27  C   UNL     1       2.414   7.946  18.664  0.00  0.00    +0.000 A 
ENDBRANCH  14  21
TORSDOF 1
ENDMDL
MODEL 9
REMARK VINA RESULT:      -6.6      2.155      4.070
REMARK  Name = 
REMARK  4 active torsions:
REMARK  status: ('A' for Active; 'I' for Inactive)
REMARK    1  A    between atoms: C_1  and  C_2
REMARK    2  A    between atoms: N_14  and  C_15
REMARK    3  A    between atoms: C_23  and  C_24
REMARK    4  A    between atoms: C_26  and  C_27
REMARK                            x       y       z     vdW  Elec       q    Type
REMARK                         _______ _______ _______ _____ _____    ______ ____
ROOT
ATOM      1  C   UNL     1      -4.096  12.822  22.200  0.00  0.00    +0.000 C 
ATOM      2  C   UNL     1      -2.593  12.951  22.118  0.00  0.00    +0.000 C 
ATOM      3  O   UNL     1      -2.090  12.821  20.773  0.00  0.00    +0.000 OA
ATOM      4  C   UNL     1      -0.763  13.411  20.812  0.00  0.00    +0.000 C 
ATOM      5  C   UNL     1      -0.641  14.458  19.690  0.00  0.00    +0.000 C 
ATOM      6  C   UNL     1      -0.485  13.872  18.291  0.00  0.00    +0.000 C 
ATOM      7  C   UNL     1       0.603  12.810  18.166  0.00  0.00    +0.000 C 
ATOM      8  C   UNL     1       0.625  11.780  19.269  0.00  0.00    +0.000 C 
ATOM      9  C   UNL     1       0.979  10.494  19.006  0.00  0.00    +0.000 C 
ATOM     10  C   UNL     1       1.067   9.602  20.103  0.00  0.00    +0.000 A 
ATOM     11  C   UNL     1       0.626   9.874  21.373  0.00  0.00    +0.000 A 
ATOM     12  C   UNL     1       0.647   8.654  22.055  0.00  0.00    +0.000 A 
ATOM     13  N   UNL     1       1.089   7.668  21.282  0.00  0.00    +0.000 NA
ATOM     14  N   UNL     1       1.465   8.275  20.111  0.00  0.00    +0.000 N 
ATOM     15  C   UNL     1       0.042  11.172  21.737  0.00  0.00    +0.000 C 
ATOM     16  C   UNL     1       0.382  12.318  20.722  0.00  0.00    +0.000 C 
ATOM     17  C   UNL     1       1.739  12.947  21.140  0.00  0.00    +0.000 C 
ATOM     18  O   UNL     1      -0.654  14.141  22.065  0.00  0.00    +0.000 OA
ATOM     19  C   UNL     1      -1.996  14.263  22.556  0.00  0.00    +0.000 C 
ATOM     20  C   UNL     1      -1.985  14.469  24.059  0.00  0.00    +0.000 C 
ENDROOT
BRANCH  14  21
ATOM     21  C   UNL     1       2.248   7.529  19.196  0.00  0.00    +0.000 A 
ATOM     22  C   UNL     1       2.562   6.194  19.509  0.00  0.00    +0.000 A 
ATOM     23  C   UNL     1       3.411   5.460  18.683  0.00  0.00    +0.000 A 
ATOM     24  C   UNL     1       3.972   6.074  17.571  0.00  0.00    +0.000 A 
ATOM     25  F   UNL     1       4.817   5.382  16.796  0.00  0.00    +0.000 F 
ATOM     26  C   UNL     1       3.687   7.402  17.260  0.00  0.00    +0.000 A 
ATOM     27  C   UNL     1       2.810   8.134  18.065  0.00  0.00    +0.000 A 
ENDBRANCH  14  21
TORSDOF 1
ENDMDL
