MODEL 1
REMARK VINA RESULT:      -8.5      0.000      0.000
REMARK  Name = 
REMARK  5 active torsions:
REMARK  status: ('A' for Active; 'I' for Inactive)
REMARK    1  A    between atoms: C_1  and  C_2
REMARK    2  A    between atoms: C_6  and  S_7
REMARK    3  A    between atoms: S_7  and  N_10
REMARK    4  A    between atoms: N_13  and  C_14
REMARK    5  A    between atoms: C_14  and  C_15
REMARK                            x       y       z     vdW  Elec       q    Type
REMARK                         _______ _______ _______ _____ _____    ______ ____
ROOT
ATOM      1  N   UNL     1       4.444   6.301  18.573  0.00  0.00    +0.000 NA
ATOM      2  C   UNL     1       5.081   6.551  17.264  0.00  0.00    +0.000 C 
ATOM      3  C   UNL     1       6.576   6.848  17.455  0.00  0.00    +0.000 C 
ATOM      4  N   UNL     1       7.299   5.802  18.189  0.00  0.00    +0.000 NA
ATOM      5  C   UNL     1       6.635   5.492  19.461  0.00  0.00    +0.000 C 
ATOM      6  C   UNL     1       5.107   5.273  19.408  0.00  0.00    +0.000 C 
ENDROOT
BRANCH   1   7
ATOM      7  S   UNL     1       2.788   6.534  18.718  0.00  0.00    +0.000 S 
ATOM      8  O   UNL     1       2.320   7.077  17.450  0.00  0.00    +0.000 OA
ATOM      9  O   UNL     1       2.534   7.247  19.953  0.00  0.00    +0.000 OA
BRANCH   7  15
ATOM     10  C   UNL     1       1.331   2.590  21.801  0.00  0.00    +0.000 C 
ATOM     11  C   UNL     1       1.466   3.096  20.393  0.00  0.00    +0.000 A 
ATOM     12  C   UNL     1       1.458   2.217  19.304  0.00  0.00    +0.000 A 
ATOM     13  C   UNL     1       1.715   2.681  18.009  0.00  0.00    +0.000 A 
ATOM     14  C   UNL     1       2.042   4.025  17.796  0.00  0.00    +0.000 A 
ATOM     15  C   UNL     1       2.063   4.906  18.883  0.00  0.00    +0.000 A 
ATOM     16  C   UNL     1       1.748   4.451  20.171  0.00  0.00    +0.000 A 
ENDBRANCH   7  15
ENDBRANCH   1   7
BRANCH   4  17
ATOM     17  C   UNL     1       7.635   4.636  17.375  0.00  0.00    +0.000 C 
BRANCH  17  18
ATOM     18  C   UNL     1       6.866   4.603  16.060  0.00  0.00    +0.000 A 
ATOM     19  C   UNL     1       5.681   3.833  15.943  0.00  0.00    +0.000 A 
ATOM     20  C   UNL     1       5.171   3.489  14.684  0.00  0.00    +0.000 A 
ATOM     21  C   UNL     1       5.891   3.892  13.581  0.00  0.00    +0.000 A 
ATOM     22  C   UNL     1       6.981   4.724  13.688  0.00  0.00    +0.000 A 
ATOM     23  C   UNL     1       7.466   5.129  14.902  0.00  0.00    +0.000 A 
ATOM     24  O   UNL     1       7.609   4.913  12.495  0.00  0.00    +0.000 OA
ATOM     25  C   UNL     1       7.045   3.796  11.786  0.00  0.00    +0.000 C 
ATOM     26  O   UNL     1       5.746   3.431  12.305  0.00  0.00    +0.000 OA
ENDBRANCH  17  18
ENDBRANCH   4  17
TORSDOF 4
ENDMDL
MODEL 2
REMARK VINA RESULT:      -8.2      4.090      5.577
REMARK  Name = 
REMARK  5 active torsions:
REMARK  status: ('A' for Active; 'I' for Inactive)
REMARK    1  A    between atoms: C_1  and  C_2
REMARK    2  A    between atoms: C_6  and  S_7
REMARK    3  A    between atoms: S_7  and  N_10
REMARK    4  A    between atoms: N_13  and  C_14
REMARK    5  A    between atoms: C_14  and  C_15
REMARK                            x       y       z     vdW  Elec       q    Type
REMARK                         _______ _______ _______ _____ _____    ______ ____
ROOT
ATOM      1  N   UNL     1       1.431   7.413  20.334  0.00  0.00    +0.000 NA
ATOM      2  C   UNL     1       1.573   6.072  20.937  0.00  0.00    +0.000 C 
ATOM      3  C   UNL     1       1.827   5.027  19.841  0.00  0.00    +0.000 C 
ATOM      4  N   UNL     1       2.982   5.333  18.986  0.00  0.00    +0.000 NA
ATOM      5  C   UNL     1       2.889   6.691  18.438  0.00  0.00    +0.000 C 
ATOM      6  C   UNL     1       2.536   7.817  19.434  0.00  0.00    +0.000 C 
ENDROOT
BRANCH   1   7
ATOM      7  S   UNL     1       0.591   8.592  21.185  0.00  0.00    +0.000 S 
ATOM      8  O   UNL     1       1.498   9.117  22.196  0.00  0.00    +0.000 OA
ATOM      9  O   UNL     1      -0.693   8.046  21.572  0.00  0.00    +0.000 OA
BRANCH   7  15
ATOM     10  C   UNL     1       1.253  13.587  19.844  0.00  0.00    +0.000 C 
ATOM     11  C   UNL     1       0.596  12.277  19.514  0.00  0.00    +0.000 A 
ATOM     12  C   UNL     1      -0.509  12.218  18.657  0.00  0.00    +0.000 A 
ATOM     13  C   UNL     1      -1.195  11.014  18.458  0.00  0.00    +0.000 A 
ATOM     14  C   UNL     1      -0.817   9.865  19.162  0.00  0.00    +0.000 A 
ATOM     15  C   UNL     1       0.280   9.922  20.029  0.00  0.00    +0.000 A 
ATOM     16  C   UNL     1       1.001  11.114  20.183  0.00  0.00    +0.000 A 
ENDBRANCH   7  15
ENDBRANCH   1   7
BRANCH   4  17
ATOM     17  C   UNL     1       4.269   5.006  19.596  0.00  0.00    +0.000 C 
BRANCH  17  18
ATOM     18  C   UNL     1       5.384   4.870  18.567  0.00  0.00    +0.000 A 
ATOM     19  C   UNL     1       6.510   5.730  18.614  0.00  0.00    +0.000 A 
ATOM     20  C   UNL     1       7.346   5.879  17.500  0.00  0.00    +0.000 A 
ATOM     21  C   UNL     1       6.999   5.193  16.357  0.00  0.00    +0.000 A 
ATOM     22  C   UNL     1       5.970   4.282  16.339  0.00  0.00    +0.000 A 
ATOM     23  C   UNL     1       5.174   4.067  17.433  0.00  0.00    +0.000 A 
ATOM     24  O   UNL     1       5.725   3.797  15.090  0.00  0.00    +0.000 OA
ATOM     25  C   UNL     1       6.413   4.812  14.338  0.00  0.00    +0.000 C 
ATOM     26  O   UNL     1       7.485   5.412  15.101  0.00  0.00    +0.000 OA
ENDBRANCH  17  18
ENDBRANCH   4  17
TORSDOF 4
ENDMDL
MODEL 3
REMARK VINA RESULT:      -8.2      4.049      5.519
REMARK  Name = 
REMARK  5 active torsions:
REMARK  status: ('A' for Active; 'I' for Inactive)
REMARK    1  A    between atoms: C_1  and  C_2
REMARK    2  A    between atoms: C_6  and  S_7
REMARK    3  A    between atoms: S_7  and  N_10
REMARK    4  A    between atoms: N_13  and  C_14
REMARK    5  A    between atoms: C_14  and  C_15
REMARK                            x       y       z     vdW  Elec       q    Type
REMARK                         _______ _______ _______ _____ _____    ______ ____
ROOT
ATOM      1  N   UNL     1       1.299   7.703  20.516  0.00  0.00    +0.000 NA
ATOM      2  C   UNL     1       1.623   6.378  21.083  0.00  0.00    +0.000 C 
ATOM      3  C   UNL     1       1.886   5.373  19.951  0.00  0.00    +0.000 C 
ATOM      4  N   UNL     1       2.928   5.800  19.009  0.00  0.00    +0.000 NA
ATOM      5  C   UNL     1       2.656   7.147  18.493  0.00  0.00    +0.000 C 
ATOM      6  C   UNL     1       2.279   8.223  19.535  0.00  0.00    +0.000 C 
ENDROOT
BRANCH   1   7
ATOM      7  S   UNL     1       0.422   8.785  21.454  0.00  0.00    +0.000 S 
ATOM      8  O   UNL     1       1.355   9.393  22.392  0.00  0.00    +0.000 OA
ATOM      9  O   UNL     1      -0.763   8.110  21.941  0.00  0.00    +0.000 OA
BRANCH   7  15
ATOM     10  C   UNL     1      -2.036  10.180  17.072  0.00  0.00    +0.000 C 
ATOM     11  C   UNL     1      -1.237  10.635  18.260  0.00  0.00    +0.000 A 
ATOM     12  C   UNL     1      -0.591  11.877  18.265  0.00  0.00    +0.000 A 
ATOM     13  C   UNL     1       0.257  12.237  19.319  0.00  0.00    +0.000 A 
ATOM     14  C   UNL     1       0.514  11.332  20.355  0.00  0.00    +0.000 A 
ATOM     15  C   UNL     1      -0.121  10.084  20.349  0.00  0.00    +0.000 A 
ATOM     16  C   UNL     1      -1.014   9.748  19.322  0.00  0.00    +0.000 A 
ENDBRANCH   7  15
ENDBRANCH   1   7
BRANCH   4  17
ATOM     17  C   UNL     1       4.288   5.598  19.505  0.00  0.00    +0.000 C 
BRANCH  17  18
ATOM     18  C   UNL     1       5.200   4.962  18.462  0.00  0.00    +0.000 A 
ATOM     19  C   UNL     1       6.606   4.971  18.642  0.00  0.00    +0.000 A 
ATOM     20  C   UNL     1       7.468   4.739  17.562  0.00  0.00    +0.000 A 
ATOM     21  C   UNL     1       6.892   4.550  16.326  0.00  0.00    +0.000 A 
ATOM     22  C   UNL     1       5.530   4.439  16.167  0.00  0.00    +0.000 A 
ATOM     23  C   UNL     1       4.664   4.598  17.215  0.00  0.00    +0.000 A 
ATOM     24  O   UNL     1       5.164   4.363  14.858  0.00  0.00    +0.000 OA
ATOM     25  C   UNL     1       6.381   4.859  14.275  0.00  0.00    +0.000 C 
ATOM     26  O   UNL     1       7.527   4.600  15.119  0.00  0.00    +0.000 OA
ENDBRANCH  17  18
ENDBRANCH   4  17
TORSDOF 4
ENDMDL
MODEL 4
REMARK VINA RESULT:      -8.0      4.100      8.205
REMARK  Name = 
REMARK  5 active torsions:
REMARK  status: ('A' for Active; 'I' for Inactive)
REMARK    1  A    between atoms: C_1  and  C_2
REMARK    2  A    between atoms: C_6  and  S_7
REMARK    3  A    between atoms: S_7  and  N_10
REMARK    4  A    between atoms: N_13  and  C_14
REMARK    5  A    between atoms: C_14  and  C_15
REMARK                            x       y       z     vdW  Elec       q    Type
REMARK                         _______ _______ _______ _____ _____    ______ ____
ROOT
ATOM      1  N   UNL     1       3.153   4.575  19.240  0.00  0.00    +0.000 NA
ATOM      2  C   UNL     1       3.480   5.980  18.920  0.00  0.00    +0.000 C 
ATOM      3  C   UNL     1       2.201   6.830  18.920  0.00  0.00    +0.000 C 
ATOM      4  N   UNL     1       1.435   6.750  20.170  0.00  0.00    +0.000 NA
ATOM      5  C   UNL     1       1.166   5.355  20.538  0.00  0.00    +0.000 C 
ATOM      6  C   UNL     1       2.362   4.381  20.477  0.00  0.00    +0.000 C 
ENDROOT
BRANCH   1   7
ATOM      7  S   UNL     1       4.213   3.371  18.744  0.00  0.00    +0.000 S 
ATOM      8  O   UNL     1       3.429   2.382  18.019  0.00  0.00    +0.000 OA
ATOM      9  O   UNL     1       5.015   2.973  19.882  0.00  0.00    +0.000 OA
BRANCH   7  15
ATOM     10  C   UNL     1       5.703   3.959  13.782  0.00  0.00    +0.000 C 
ATOM     11  C   UNL     1       5.974   4.297  15.220  0.00  0.00    +0.000 A 
ATOM     12  C   UNL     1       7.223   4.778  15.627  0.00  0.00    +0.000 A 
ATOM     13  C   UNL     1       7.509   4.966  16.985  0.00  0.00    +0.000 A 
ATOM     14  C   UNL     1       6.563   4.621  17.956  0.00  0.00    +0.000 A 
ATOM     15  C   UNL     1       5.315   4.129  17.555  0.00  0.00    +0.000 A 
ATOM     16  C   UNL     1       5.011   3.996  16.193  0.00  0.00    +0.000 A 
ENDBRANCH   7  15
ENDBRANCH   1   7
BRANCH   4  17
ATOM     17  C   UNL     1       1.981   7.572  21.248  0.00  0.00    +0.000 C 
BRANCH  17  18
ATOM     18  C   UNL     1       1.273   8.916  21.372  0.00  0.00    +0.000 A 
ATOM     19  C   UNL     1       0.596   9.260  22.569  0.00  0.00    +0.000 A 
ATOM     20  C   UNL     1      -0.353  10.291  22.586  0.00  0.00    +0.000 A 
ATOM     21  C   UNL     1      -0.624  10.916  21.390  0.00  0.00    +0.000 A 
ATOM     22  C   UNL     1       0.104  10.656  20.251  0.00  0.00    +0.000 A 
ATOM     23  C   UNL     1       1.081   9.698  20.220  0.00  0.00    +0.000 A 
ATOM     24  O   UNL     1      -0.394  11.298  19.158  0.00  0.00    +0.000 OA
ATOM     25  C   UNL     1      -1.699  11.606  19.677  0.00  0.00    +0.000 C 
ATOM     26  O   UNL     1      -1.691  11.721  21.119  0.00  0.00    +0.000 OA
ENDBRANCH  17  18
ENDBRANCH   4  17
TORSDOF 4
ENDMDL
MODEL 5
REMARK VINA RESULT:      -7.9      5.289      6.866
REMARK  Name = 
REMARK  5 active torsions:
REMARK  status: ('A' for Active; 'I' for Inactive)
REMARK    1  A    between atoms: C_1  and  C_2
REMARK    2  A    between atoms: C_6  and  S_7
REMARK    3  A    between atoms: S_7  and  N_10
REMARK    4  A    between atoms: N_13  and  C_14
REMARK    5  A    between atoms: C_14  and  C_15
REMARK                            x       y       z     vdW  Elec       q    Type
REMARK                         _______ _______ _______ _____ _____    ______ ____
ROOT
ATOM      1  N   UNL     1       1.062   9.897  19.434  0.00  0.00    +0.000 NA
ATOM      2  C   UNL     1       1.427   9.608  18.032  0.00  0.00    +0.000 C 
ATOM      3  C   UNL     1       2.647   8.676  17.988  0.00  0.00    +0.000 C 
ATOM      4  N   UNL     1       2.468   7.429  18.743  0.00  0.00    +0.000 NA
ATOM      5  C   UNL     1       2.035   7.700  20.119  0.00  0.00    +0.000 C 
ATOM      6  C   UNL     1       0.876   8.705  20.293  0.00  0.00    +0.000 C 
ENDROOT
BRANCH   1   7
ATOM      7  S   UNL     1       0.191  11.293  19.765  0.00  0.00    +0.000 S 
ATOM      8  O   UNL     1       0.945  12.410  19.213  0.00  0.00    +0.000 OA
ATOM      9  O   UNL     1      -0.172  11.283  21.168  0.00  0.00    +0.000 OA
BRANCH   7  15
ATOM     10  C   UNL     1      -4.866  12.468  19.280  0.00  0.00    +0.000 C 
ATOM     11  C   UNL     1      -3.692  11.726  18.709  0.00  0.00    +0.000 A 
ATOM     12  C   UNL     1      -3.871  10.683  17.794  0.00  0.00    +0.000 A 
ATOM     13  C   UNL     1      -2.783   9.912  17.368  0.00  0.00    +0.000 A 
ATOM     14  C   UNL     1      -1.508  10.141  17.898  0.00  0.00    +0.000 A 
ATOM     15  C   UNL     1      -1.326  11.176  18.822  0.00  0.00    +0.000 A 
ATOM     16  C   UNL     1      -2.406  11.984  19.204  0.00  0.00    +0.000 A 
ENDBRANCH   7  15
ENDBRANCH   1   7
BRANCH   4  17
ATOM     17  C   UNL     1       1.675   6.424  18.038  0.00  0.00    +0.000 C 
BRANCH  17  18
ATOM     18  C   UNL     1       2.379   5.074  17.963  0.00  0.00    +0.000 A 
ATOM     19  C   UNL     1       1.663   3.916  17.568  0.00  0.00    +0.000 A 
ATOM     20  C   UNL     1       2.165   2.636  17.841  0.00  0.00    +0.000 A 
ATOM     21  C   UNL     1       3.348   2.559  18.540  0.00  0.00    +0.000 A 
ATOM     22  C   UNL     1       4.094   3.677  18.833  0.00  0.00    +0.000 A 
ATOM     23  C   UNL     1       3.661   4.938  18.523  0.00  0.00    +0.000 A 
ATOM     24  O   UNL     1       5.169   3.394  19.620  0.00  0.00    +0.000 OA
ATOM     25  C   UNL     1       4.742   2.105  20.095  0.00  0.00    +0.000 C 
ATOM     26  O   UNL     1       3.856   1.452  19.156  0.00  0.00    +0.000 OA
ENDBRANCH  17  18
ENDBRANCH   4  17
TORSDOF 4
ENDMDL
MODEL 6
REMARK VINA RESULT:      -7.9      4.801      8.939
REMARK  Name = 
REMARK  5 active torsions:
REMARK  status: ('A' for Active; 'I' for Inactive)
REMARK    1  A    between atoms: C_1  and  C_2
REMARK    2  A    between atoms: C_6  and  S_7
REMARK    3  A    between atoms: S_7  and  N_10
REMARK    4  A    between atoms: N_13  and  C_14
REMARK    5  A    between atoms: C_14  and  C_15
REMARK                            x       y       z     vdW  Elec       q    Type
REMARK                         _______ _______ _______ _____ _____    ______ ____
ROOT
ATOM      1  N   UNL     1       2.466   5.741  18.962  0.00  0.00    +0.000 NA
ATOM      2  C   UNL     1       1.789   5.933  20.261  0.00  0.00    +0.000 C 
ATOM      3  C   UNL     1       2.106   7.329  20.818  0.00  0.00    +0.000 C 
ATOM      4  N   UNL     1       1.774   8.424  19.897  0.00  0.00    +0.000 NA
ATOM      5  C   UNL     1       2.382   8.208  18.578  0.00  0.00    +0.000 C 
ATOM      6  C   UNL     1       2.215   6.803  17.961  0.00  0.00    +0.000 C 
ENDROOT
BRANCH   1   7
ATOM      7  S   UNL     1       2.773   4.175  18.441  0.00  0.00    +0.000 S 
ATOM      8  O   UNL     1       1.928   3.937  17.279  0.00  0.00    +0.000 OA
ATOM      9  O   UNL     1       2.702   3.291  19.586  0.00  0.00    +0.000 OA
BRANCH   7  15
ATOM     10  C   UNL     1       7.712   5.733  19.047  0.00  0.00    +0.000 C 
ATOM     11  C   UNL     1       6.731   4.982  18.193  0.00  0.00    +0.000 A 
ATOM     12  C   UNL     1       7.012   4.693  16.853  0.00  0.00    +0.000 A 
ATOM     13  C   UNL     1       6.041   4.110  16.029  0.00  0.00    +0.000 A 
ATOM     14  C   UNL     1       4.756   3.863  16.524  0.00  0.00    +0.000 A 
ATOM     15  C   UNL     1       4.466   4.161  17.860  0.00  0.00    +0.000 A 
ATOM     16  C   UNL     1       5.457   4.691  18.699  0.00  0.00    +0.000 A 
ENDBRANCH   7  15
ENDBRANCH   1   7
BRANCH   4  17
ATOM     17  C   UNL     1       0.352   8.758  19.867  0.00  0.00    +0.000 C 
BRANCH  17  18
ATOM     18  C   UNL     1      -0.030   9.773  20.938  0.00  0.00    +0.000 A 
ATOM     19  C   UNL     1      -0.127   9.378  22.296  0.00  0.00    +0.000 A 
ATOM     20  C   UNL     1      -0.819  10.167  23.224  0.00  0.00    +0.000 A 
ATOM     21  C   UNL     1      -1.430  11.306  22.751  0.00  0.00    +0.000 A 
ATOM     22  C   UNL     1      -1.252  11.744  21.459  0.00  0.00    +0.000 A 
ATOM     23  C   UNL     1      -0.528  11.027  20.545  0.00  0.00    +0.000 A 
ATOM     24  O   UNL     1      -2.026  12.826  21.166  0.00  0.00    +0.000 OA
ATOM     25  C   UNL     1      -2.961  12.710  22.251  0.00  0.00    +0.000 C 
ATOM     26  O   UNL     1      -2.377  12.047  23.396  0.00  0.00    +0.000 OA
ENDBRANCH  17  18
ENDBRANCH   4  17
TORSDOF 4
ENDMDL
MODEL 7
REMARK VINA RESULT:      -7.8      4.164      8.508
REMARK  Name = 
REMARK  5 active torsions:
REMARK  status: ('A' for Active; 'I' for Inactive)
REMARK    1  A    between atoms: C_1  and  C_2
REMARK    2  A    between atoms: C_6  and  S_7
REMARK    3  A    between atoms: S_7  and  N_10
REMARK    4  A    between atoms: N_13  and  C_14
REMARK    5  A    between atoms: C_14  and  C_15
REMARK                            x       y       z     vdW  Elec       q    Type
REMARK                         _______ _______ _______ _____ _____    ______ ____
ROOT
ATOM      1  N   UNL     1       3.224   4.355  19.150  0.00  0.00    +0.000 NA
ATOM      2  C   UNL     1       3.058   5.629  18.421  0.00  0.00    +0.000 C 
ATOM      3  C   UNL     1       1.641   6.179  18.639  0.00  0.00    +0.000 C 
ATOM      4  N   UNL     1       1.279   6.344  20.053  0.00  0.00    +0.000 NA
ATOM      5  C   UNL     1       1.508   5.104  20.805  0.00  0.00    +0.000 C 
ATOM      6  C   UNL     1       2.866   4.403  20.586  0.00  0.00    +0.000 C 
ENDROOT
BRANCH   1   7
ATOM      7  S   UNL     1       4.405   3.281  18.632  0.00  0.00    +0.000 S 
ATOM      8  O   UNL     1       3.726   2.206  17.922  0.00  0.00    +0.000 OA
ATOM      9  O   UNL     1       5.271   2.979  19.754  0.00  0.00    +0.000 OA
BRANCH   7  15
ATOM     10  C   UNL     1       5.927   3.844  13.677  0.00  0.00    +0.000 C 
ATOM     11  C   UNL     1       6.082   4.310  15.096  0.00  0.00    +0.000 A 
ATOM     12  C   UNL     1       7.208   5.036  15.499  0.00  0.00    +0.000 A 
ATOM     13  C   UNL     1       7.409   5.353  16.848  0.00  0.00    +0.000 A 
ATOM     14  C   UNL     1       6.511   4.895  17.819  0.00  0.00    +0.000 A 
ATOM     15  C   UNL     1       5.389   4.159  17.422  0.00  0.00    +0.000 A 
ATOM     16  C   UNL     1       5.159   3.893  16.064  0.00  0.00    +0.000 A 
ENDBRANCH   7  15
ENDBRANCH   1   7
BRANCH   4  17
ATOM     17  C   UNL     1       1.840   7.544  20.668  0.00  0.00    +0.000 C 
BRANCH  17  18
ATOM     18  C   UNL     1       0.868   8.718  20.649  0.00  0.00    +0.000 A 
ATOM     19  C   UNL     1       1.015   9.753  19.693  0.00  0.00    +0.000 A 
ATOM     20  C   UNL     1       0.390  10.994  19.878  0.00  0.00    +0.000 A 
ATOM     21  C   UNL     1      -0.327  11.171  21.039  0.00  0.00    +0.000 A 
ATOM     22  C   UNL     1      -0.556  10.137  21.918  0.00  0.00    +0.000 A 
ATOM     23  C   UNL     1      -0.011   8.895  21.732  0.00  0.00    +0.000 A 
ATOM     24  O   UNL     1      -1.192  10.548  23.050  0.00  0.00    +0.000 OA
ATOM     25  C   UNL     1      -0.931  11.958  22.932  0.00  0.00    +0.000 C 
ATOM     26  O   UNL     1      -0.759  12.359  21.553  0.00  0.00    +0.000 OA
ENDBRANCH  17  18
ENDBRANCH   4  17
TORSDOF 4
ENDMDL
MODEL 8
REMARK VINA RESULT:      -7.8      5.029      7.244
REMARK  Name = 
REMARK  5 active torsions:
REMARK  status: ('A' for Active; 'I' for Inactive)
REMARK    1  A    between atoms: C_1  and  C_2
REMARK    2  A    between atoms: C_6  and  S_7
REMARK    3  A    between atoms: S_7  and  N_10
REMARK    4  A    between atoms: N_13  and  C_14
REMARK    5  A    between atoms: C_14  and  C_15
REMARK                            x       y       z     vdW  Elec       q    Type
REMARK                         _______ _______ _______ _____ _____    ______ ____
ROOT
ATOM      1  N   UNL     1       1.311   9.779  19.190  0.00  0.00    +0.000 NA
ATOM      2  C   UNL     1       1.633   9.245  17.851  0.00  0.00    +0.000 C 
ATOM      3  C   UNL     1       2.788   8.238  17.951  0.00  0.00    +0.000 C 
ATOM      4  N   UNL     1       2.539   7.142  18.896  0.00  0.00    +0.000 NA
ATOM      5  C   UNL     1       2.146   7.658  20.213  0.00  0.00    +0.000 C 
ATOM      6  C   UNL     1       1.060   8.755  20.230  0.00  0.00    +0.000 C 
ENDROOT
BRANCH   1   7
ATOM      7  S   UNL     1       0.539  11.266  19.298  0.00  0.00    +0.000 S 
ATOM      8  O   UNL     1       1.157  12.141  18.312  0.00  0.00    +0.000 OA
ATOM      9  O   UNL     1       0.495  11.657  20.692  0.00  0.00    +0.000 OA
BRANCH   7  15
ATOM     10  C   UNL     1      -2.776   9.656  15.609  0.00  0.00    +0.000 C 
ATOM     11  C   UNL     1      -2.618  10.277  16.968  0.00  0.00    +0.000 A 
ATOM     12  C   UNL     1      -3.664  10.992  17.562  0.00  0.00    +0.000 A 
ATOM     13  C   UNL     1      -3.467  11.678  18.767  0.00  0.00    +0.000 A 
ATOM     14  C   UNL     1      -2.201  11.702  19.362  0.00  0.00    +0.000 A 
ATOM     15  C   UNL     1      -1.149  10.997  18.766  0.00  0.00    +0.000 A 
ATOM     16  C   UNL     1      -1.362  10.264  17.591  0.00  0.00    +0.000 A 
ENDBRANCH   7  15
ENDBRANCH   1   7
BRANCH   4  17
ATOM     17  C   UNL     1       1.670   6.094  18.366  0.00  0.00    +0.000 C 
BRANCH  17  18
ATOM     18  C   UNL     1       1.845   4.767  19.095  0.00  0.00    +0.000 A 
ATOM     19  C   UNL     1       1.181   4.533  20.325  0.00  0.00    +0.000 A 
ATOM     20  C   UNL     1       1.600   3.508  21.183  0.00  0.00    +0.000 A 
ATOM     21  C   UNL     1       2.702   2.777  20.800  0.00  0.00    +0.000 A 
ATOM     22  C   UNL     1       3.284   2.933  19.563  0.00  0.00    +0.000 A 
ATOM     23  C   UNL     1       2.856   3.884  18.676  0.00  0.00    +0.000 A 
ATOM     24  O   UNL     1       4.420   2.195  19.426  0.00  0.00    +0.000 OA
ATOM     25  C   UNL     1       4.666   1.936  20.819  0.00  0.00    +0.000 C 
ATOM     26  O   UNL     1       3.444   1.951  21.593  0.00  0.00    +0.000 OA
ENDBRANCH  17  18
ENDBRANCH   4  17
TORSDOF 4
ENDMDL
MODEL 9
REMARK VINA RESULT:      -7.8      4.291      8.622
REMARK  Name = 
REMARK  5 active torsions:
REMARK  status: ('A' for Active; 'I' for Inactive)
REMARK    1  A    between atoms: C_1  and  C_2
REMARK    2  A    between atoms: C_6  and  S_7
REMARK    3  A    between atoms: S_7  and  N_10
REMARK    4  A    between atoms: N_13  and  C_14
REMARK    5  A    between atoms: C_14  and  C_15
REMARK                            x       y       z     vdW  Elec       q    Type
REMARK                         _______ _______ _______ _____ _____    ______ ____
ROOT
ATOM      1  N   UNL     1       2.698   4.808  18.900  0.00  0.00    +0.000 NA
ATOM      2  C   UNL     1       1.762   4.468  19.991  0.00  0.00    +0.000 C 
ATOM      3  C   UNL     1       1.953   5.437  21.167  0.00  0.00    +0.000 C 
ATOM      4  N   UNL     1       1.823   6.852  20.798  0.00  0.00    +0.000 NA
ATOM      5  C   UNL     1       2.696   7.186  19.666  0.00  0.00    +0.000 C 
ATOM      6  C   UNL     1       2.665   6.222  18.460  0.00  0.00    +0.000 C 
ENDROOT
BRANCH   1   7
ATOM      7  S   UNL     1       3.111   3.613  17.794  0.00  0.00    +0.000 S 
ATOM      8  O   UNL     1       2.081   3.608  16.766  0.00  0.00    +0.000 OA
ATOM      9  O   UNL     1       3.415   2.401  18.526  0.00  0.00    +0.000 OA
BRANCH   7  15
ATOM     10  C   UNL     1       6.091   3.830  13.521  0.00  0.00    +0.000 C 
ATOM     11  C   UNL     1       5.969   4.157  14.982  0.00  0.00    +0.000 A 
ATOM     12  C   UNL     1       7.100   4.443  15.756  0.00  0.00    +0.000 A 
ATOM     13  C   UNL     1       6.992   4.617  17.141  0.00  0.00    +0.000 A 
ATOM     14  C   UNL     1       5.756   4.451  17.776  0.00  0.00    +0.000 A 
ATOM     15  C   UNL     1       4.624   4.155  17.008  0.00  0.00    +0.000 A 
ATOM     16  C   UNL     1       4.724   4.038  15.614  0.00  0.00    +0.000 A 
ENDBRANCH   7  15
ENDBRANCH   1   7
BRANCH   4  17
ATOM     17  C   UNL     1       0.439   7.298  20.655  0.00  0.00    +0.000 C 
BRANCH  17  18
ATOM     18  C   UNL     1       0.222   8.708  21.192  0.00  0.00    +0.000 A 
ATOM     19  C   UNL     1      -0.047   8.915  22.568  0.00  0.00    +0.000 A 
ATOM     20  C   UNL     1      -0.606  10.119  23.017  0.00  0.00    +0.000 A 
ATOM     21  C   UNL     1      -0.917  11.062  22.063  0.00  0.00    +0.000 A 
ATOM     22  C   UNL     1      -0.563  10.906  20.743  0.00  0.00    +0.000 A 
ATOM     23  C   UNL     1       0.041   9.766  20.285  0.00  0.00    +0.000 A 
ATOM     24  O   UNL     1      -1.057  11.898  19.951  0.00  0.00    +0.000 OA
ATOM     25  C   UNL     1      -2.064  12.396  20.850  0.00  0.00    +0.000 C 
ATOM     26  O   UNL     1      -1.716  12.155  22.233  0.00  0.00    +0.000 OA
ENDBRANCH  17  18
ENDBRANCH   4  17
TORSDOF 4
ENDMDL
