MODEL 1
REMARK VINA RESULT:      -7.8      0.000      0.000
REMARK  Name = 
REMARK  5 active torsions:
REMARK  status: ('A' for Active; 'I' for Inactive)
REMARK    1  A    between atoms: C_1  and  C_2
REMARK    2  A    between atoms: C_2  and  C_3
REMARK    3  A    between atoms: C_3  and  O_4
REMARK    4  A    between atoms: O_4  and  C_5
REMARK    5  A    between atoms: C_12  and  C_13
REMARK                            x       y       z     vdW  Elec       q    Type
REMARK                         _______ _______ _______ _____ _____    ______ ____
ROOT
ATOM      1  C   UNL     1       2.486   4.847  19.729  0.00  0.00    +0.000 A 
ATOM      2  C   UNL     1       1.290   4.633  20.422  0.00  0.00    +0.000 A 
ATOM      3  C   UNL     1       0.661   3.401  20.335  0.00  0.00    +0.000 A 
ATOM      4  N   UNL     1       1.095   2.349  19.618  0.00  0.00    +0.000 NA
ATOM      5  C   UNL     1       2.249   2.591  18.972  0.00  0.00    +0.000 A 
ATOM      6  N   UNL     1       2.865   1.677  18.166  0.00  0.00    +0.000 N 
ATOM      7  C   UNL     1       4.015   2.211  17.658  0.00  0.00    +0.000 A 
ATOM      8  C   UNL     1       4.165   3.495  18.160  0.00  0.00    +0.000 A 
ATOM      9  C   UNL     1       3.006   3.762  18.979  0.00  0.00    +0.000 A 
ATOM     10  H   UNL     1       2.501   0.753  17.990  0.00  0.00    +0.000 HD
ENDROOT
BRANCH   8  11
ATOM     11  C   UNL     1       5.340   4.306  17.858  0.00  0.00    +0.000 A 
ATOM     12  C   UNL     1       5.520   4.863  16.615  0.00  0.00    +0.000 A 
ATOM     13  C   UNL     1       6.659   5.606  16.442  0.00  0.00    +0.000 A 
ATOM     14  N   UNL     1       7.539   5.838  17.428  0.00  0.00    +0.000 NA
ATOM     15  C   UNL     1       7.250   5.312  18.618  0.00  0.00    +0.000 A 
ATOM     16  N   UNL     1       8.117   5.583  19.655  0.00  0.00    +0.000 N 
ATOM     17  N   UNL     1       6.200   4.527  18.879  0.00  0.00    +0.000 NA
ATOM     18  H   UNL     1       9.027   5.817  19.280  0.00  0.00    +0.000 HD
ATOM     19  H   UNL     1       8.068   4.848  20.345  0.00  0.00    +0.000 HD
ENDBRANCH   8  11
BRANCH   1  20
ATOM     20  O   UNL     1       3.160   6.042  19.722  0.00  0.00    +0.000 OA
BRANCH  20  21
ATOM     21  C   UNL     1       2.393   7.221  19.486  0.00  0.00    +0.000 C 
BRANCH  21  23
ATOM     22  C   UNL     1       1.896   8.990  17.785  0.00  0.00    +0.000 C 
ATOM     23  C   UNL     1       2.724   7.755  18.097  0.00  0.00    +0.000 C 
ENDBRANCH  21  23
ENDBRANCH  20  21
ENDBRANCH   1  20
TORSDOF 4
ENDMDL
MODEL 2
REMARK VINA RESULT:      -7.5      0.841      1.466
REMARK  Name = 
REMARK  5 active torsions:
REMARK  status: ('A' for Active; 'I' for Inactive)
REMARK    1  A    between atoms: C_1  and  C_2
REMARK    2  A    between atoms: C_2  and  C_3
REMARK    3  A    between atoms: C_3  and  O_4
REMARK    4  A    between atoms: O_4  and  C_5
REMARK    5  A    between atoms: C_12  and  C_13
REMARK                            x       y       z     vdW  Elec       q    Type
REMARK                         _______ _______ _______ _____ _____    ______ ____
ROOT
ATOM      1  C   UNL     1       2.498   4.817  19.769  0.00  0.00    +0.000 A 
ATOM      2  C   UNL     1       1.306   4.560  20.455  0.00  0.00    +0.000 A 
ATOM      3  C   UNL     1       0.685   3.330  20.306  0.00  0.00    +0.000 A 
ATOM      4  N   UNL     1       1.123   2.319  19.534  0.00  0.00    +0.000 NA
ATOM      5  C   UNL     1       2.272   2.602  18.896  0.00  0.00    +0.000 A 
ATOM      6  N   UNL     1       2.890   1.736  18.041  0.00  0.00    +0.000 N 
ATOM      7  C   UNL     1       4.034   2.302  17.557  0.00  0.00    +0.000 A 
ATOM      8  C   UNL     1       4.179   3.559  18.125  0.00  0.00    +0.000 A 
ATOM      9  C   UNL     1       3.022   3.776  18.961  0.00  0.00    +0.000 A 
ATOM     10  H   UNL     1       2.531   0.820  17.819  0.00  0.00    +0.000 HD
ENDROOT
BRANCH   8  11
ATOM     11  C   UNL     1       5.347   4.393  17.861  0.00  0.00    +0.000 A 
ATOM     12  C   UNL     1       6.018   5.021  18.883  0.00  0.00    +0.000 A 
ATOM     13  C   UNL     1       7.102   5.779  18.520  0.00  0.00    +0.000 A 
ATOM     14  N   UNL     1       7.538   5.876  17.255  0.00  0.00    +0.000 NA
ATOM     15  C   UNL     1       6.865   5.179  16.340  0.00  0.00    +0.000 A 
ATOM     16  N   UNL     1       7.331   5.227  15.043  0.00  0.00    +0.000 N 
ATOM     17  N   UNL     1       5.765   4.458  16.577  0.00  0.00    +0.000 NA
ATOM     18  H   UNL     1       7.874   6.070  14.912  0.00  0.00    +0.000 HD
ATOM     19  H   UNL     1       6.573   5.051  14.400  0.00  0.00    +0.000 HD
ENDBRANCH   8  11
BRANCH   1  20
ATOM     20  O   UNL     1       3.165   6.014  19.822  0.00  0.00    +0.000 OA
BRANCH  20  21
ATOM     21  C   UNL     1       2.410   7.192  19.543  0.00  0.00    +0.000 C 
BRANCH  21  23
ATOM     22  C   UNL     1       1.955   8.910  17.779  0.00  0.00    +0.000 C 
ATOM     23  C   UNL     1       2.617   7.577  18.083  0.00  0.00    +0.000 C 
ENDBRANCH  21  23
ENDBRANCH  20  21
ENDBRANCH   1  20
TORSDOF 4
ENDMDL
MODEL 3
REMARK VINA RESULT:      -7.3      1.225      1.718
REMARK  Name = 
REMARK  5 active torsions:
REMARK  status: ('A' for Active; 'I' for Inactive)
REMARK    1  A    between atoms: C_1  and  C_2
REMARK    2  A    between atoms: C_2  and  C_3
REMARK    3  A    between atoms: C_3  and  O_4
REMARK    4  A    between atoms: O_4  and  C_5
REMARK    5  A    between atoms: C_12  and  C_13
REMARK                            x       y       z     vdW  Elec       q    Type
REMARK                         _______ _______ _______ _____ _____    ______ ____
ROOT
ATOM      1  C   UNL     1       2.691   4.845  19.943  0.00  0.00    +0.000 A 
ATOM      2  C   UNL     1       1.705   4.581  20.899  0.00  0.00    +0.000 A 
ATOM      3  C   UNL     1       1.177   3.303  21.001  0.00  0.00    +0.000 A 
ATOM      4  N   UNL     1       1.524   2.250  20.240  0.00  0.00    +0.000 NA
ATOM      5  C   UNL     1       2.477   2.541  19.338  0.00  0.00    +0.000 A 
ATOM      6  N   UNL     1       2.969   1.634  18.444  0.00  0.00    +0.000 N 
ATOM      7  C   UNL     1       3.926   2.222  17.668  0.00  0.00    +0.000 A 
ATOM      8  C   UNL     1       4.079   3.539  18.078  0.00  0.00    +0.000 A 
ATOM      9  C   UNL     1       3.117   3.763  19.131  0.00  0.00    +0.000 A 
ATOM     10  H   UNL     1       2.653   0.678  18.388  0.00  0.00    +0.000 HD
ENDROOT
BRANCH   8  11
ATOM     11  C   UNL     1       5.084   4.416  17.487  0.00  0.00    +0.000 A 
ATOM     12  C   UNL     1       6.412   4.308  17.828  0.00  0.00    +0.000 A 
ATOM     13  C   UNL     1       7.268   5.183  17.212  0.00  0.00    +0.000 A 
ATOM     14  N   UNL     1       6.870   6.069  16.286  0.00  0.00    +0.000 NA
ATOM     15  C   UNL     1       5.576   6.057  15.971  0.00  0.00    +0.000 A 
ATOM     16  N   UNL     1       5.160   6.926  14.984  0.00  0.00    +0.000 N 
ATOM     17  N   UNL     1       4.649   5.288  16.550  0.00  0.00    +0.000 NA
ATOM     18  H   UNL     1       5.812   7.695  14.916  0.00  0.00    +0.000 HD
ATOM     19  H   UNL     1       4.183   7.148  15.112  0.00  0.00    +0.000 HD
ENDBRANCH   8  11
BRANCH   1  20
ATOM     20  O   UNL     1       3.245   6.083  19.741  0.00  0.00    +0.000 OA
BRANCH  20  21
ATOM     21  C   UNL     1       2.350   7.161  19.472  0.00  0.00    +0.000 C 
BRANCH  21  23
ATOM     22  C   UNL     1       1.779   8.932  17.796  0.00  0.00    +0.000 C 
ATOM     23  C   UNL     1       2.694   7.761  18.114  0.00  0.00    +0.000 C 
ENDBRANCH  21  23
ENDBRANCH  20  21
ENDBRANCH   1  20
TORSDOF 4
ENDMDL
MODEL 4
REMARK VINA RESULT:      -7.2      0.971      1.147
REMARK  Name = 
REMARK  5 active torsions:
REMARK  status: ('A' for Active; 'I' for Inactive)
REMARK    1  A    between atoms: C_1  and  C_2
REMARK    2  A    between atoms: C_2  and  C_3
REMARK    3  A    between atoms: C_3  and  O_4
REMARK    4  A    between atoms: O_4  and  C_5
REMARK    5  A    between atoms: C_12  and  C_13
REMARK                            x       y       z     vdW  Elec       q    Type
REMARK                         _______ _______ _______ _____ _____    ______ ____
ROOT
ATOM      1  C   UNL     1       2.348   4.798  19.880  0.00  0.00    +0.000 A 
ATOM      2  C   UNL     1       1.142   4.341  20.423  0.00  0.00    +0.000 A 
ATOM      3  C   UNL     1       0.634   3.116  20.021  0.00  0.00    +0.000 A 
ATOM      4  N   UNL     1       1.198   2.291  19.121  0.00  0.00    +0.000 NA
ATOM      5  C   UNL     1       2.356   2.762  18.627  0.00  0.00    +0.000 A 
ATOM      6  N   UNL     1       3.093   2.105  17.684  0.00  0.00    +0.000 N 
ATOM      7  C   UNL     1       4.214   2.827  17.388  0.00  0.00    +0.000 A 
ATOM      8  C   UNL     1       4.221   3.971  18.172  0.00  0.00    +0.000 A 
ATOM      9  C   UNL     1       3.002   3.955  18.946  0.00  0.00    +0.000 A 
ATOM     10  H   UNL     1       2.824   1.220  17.282  0.00  0.00    +0.000 HD
ENDROOT
BRANCH   8  11
ATOM     11  C   UNL     1       5.331   4.918  18.141  0.00  0.00    +0.000 A 
ATOM     12  C   UNL     1       5.360   5.951  17.235  0.00  0.00    +0.000 A 
ATOM     13  C   UNL     1       6.450   6.780  17.295  0.00  0.00    +0.000 A 
ATOM     14  N   UNL     1       7.423   6.646  18.210  0.00  0.00    +0.000 NA
ATOM     15  C   UNL     1       7.278   5.656  19.090  0.00  0.00    +0.000 A 
ATOM     16  N   UNL     1       8.242   5.536  20.068  0.00  0.00    +0.000 N 
ATOM     17  N   UNL     1       6.287   4.759  19.084  0.00  0.00    +0.000 NA
ATOM     18  H   UNL     1       9.099   5.969  19.750  0.00  0.00    +0.000 HD
ATOM     19  H   UNL     1       8.290   4.579  20.387  0.00  0.00    +0.000 HD
ENDBRANCH   8  11
BRANCH   1  20
ATOM     20  O   UNL     1       2.910   6.011  20.186  0.00  0.00    +0.000 OA
BRANCH  20  21
ATOM     21  C   UNL     1       2.229   7.178  19.727  0.00  0.00    +0.000 C 
BRANCH  21  23
ATOM     22  C   UNL     1       0.957   9.181  20.529  0.00  0.00    +0.000 C 
ATOM     23  C   UNL     1       1.477   7.802  20.897  0.00  0.00    +0.000 C 
ENDBRANCH  21  23
ENDBRANCH  20  21
ENDBRANCH   1  20
TORSDOF 4
ENDMDL
MODEL 5
REMARK VINA RESULT:      -6.9      1.448      1.492
REMARK  Name = 
REMARK  5 active torsions:
REMARK  status: ('A' for Active; 'I' for Inactive)
REMARK    1  A    between atoms: C_1  and  C_2
REMARK    2  A    between atoms: C_2  and  C_3
REMARK    3  A    between atoms: C_3  and  O_4
REMARK    4  A    between atoms: O_4  and  C_5
REMARK    5  A    between atoms: C_12  and  C_13
REMARK                            x       y       z     vdW  Elec       q    Type
REMARK                         _______ _______ _______ _____ _____    ______ ____
ROOT
ATOM      1  C   UNL     1       2.140   4.812  19.518  0.00  0.00    +0.000 A 
ATOM      2  C   UNL     1       1.121   4.443  20.403  0.00  0.00    +0.000 A 
ATOM      3  C   UNL     1       1.296   3.341  21.225  0.00  0.00    +0.000 A 
ATOM      4  N   UNL     1       2.386   2.552  21.256  0.00  0.00    +0.000 NA
ATOM      5  C   UNL     1       3.343   2.942  20.396  0.00  0.00    +0.000 A 
ATOM      6  N   UNL     1       4.526   2.279  20.239  0.00  0.00    +0.000 N 
ATOM      7  C   UNL     1       5.291   2.915  19.303  0.00  0.00    +0.000 A 
ATOM      8  C   UNL     1       4.601   4.032  18.854  0.00  0.00    +0.000 A 
ATOM      9  C   UNL     1       3.324   4.032  19.528  0.00  0.00    +0.000 A 
ATOM     10  H   UNL     1       4.772   1.445  20.751  0.00  0.00    +0.000 HD
ENDROOT
BRANCH   8  11
ATOM     11  C   UNL     1       5.187   4.964  17.897  0.00  0.00    +0.000 A 
ATOM     12  C   UNL     1       4.674   5.098  16.629  0.00  0.00    +0.000 A 
ATOM     13  C   UNL     1       5.303   6.003  15.814  0.00  0.00    +0.000 A 
ATOM     14  N   UNL     1       6.329   6.767  16.220  0.00  0.00    +0.000 NA
ATOM     15  C   UNL     1       6.716   6.616  17.486  0.00  0.00    +0.000 A 
ATOM     16  N   UNL     1       7.735   7.430  17.935  0.00  0.00    +0.000 N 
ATOM     17  N   UNL     1       6.212   5.725  18.345  0.00  0.00    +0.000 NA
ATOM     18  H   UNL     1       8.284   7.746  17.147  0.00  0.00    +0.000 HD
ATOM     19  H   UNL     1       8.222   6.981  18.697  0.00  0.00    +0.000 HD
ENDBRANCH   8  11
BRANCH   1  20
ATOM     20  O   UNL     1       2.044   5.861  18.640  0.00  0.00    +0.000 OA
BRANCH  20  21
ATOM     21  C   UNL     1       2.450   7.145  19.111  0.00  0.00    +0.000 C 
BRANCH  21  23
ATOM     22  C   UNL     1       1.880   9.234  17.854  0.00  0.00    +0.000 C 
ATOM     23  C   UNL     1       2.795   8.023  17.915  0.00  0.00    +0.000 C 
ENDBRANCH  21  23
ENDBRANCH  20  21
ENDBRANCH   1  20
TORSDOF 4
ENDMDL
MODEL 6
REMARK VINA RESULT:      -6.9      2.119      3.635
REMARK  Name = 
REMARK  5 active torsions:
REMARK  status: ('A' for Active; 'I' for Inactive)
REMARK    1  A    between atoms: C_1  and  C_2
REMARK    2  A    between atoms: C_2  and  C_3
REMARK    3  A    between atoms: C_3  and  O_4
REMARK    4  A    between atoms: O_4  and  C_5
REMARK    5  A    between atoms: C_12  and  C_13
REMARK                            x       y       z     vdW  Elec       q    Type
REMARK                         _______ _______ _______ _____ _____    ______ ____
ROOT
ATOM      1  C   UNL     1       3.369   4.714  19.807  0.00  0.00    +0.000 A 
ATOM      2  C   UNL     1       2.385   4.660  20.799  0.00  0.00    +0.000 A 
ATOM      3  C   UNL     1       1.502   5.719  20.942  0.00  0.00    +0.000 A 
ATOM      4  N   UNL     1       1.498   6.842  20.202  0.00  0.00    +0.000 NA
ATOM      5  C   UNL     1       2.454   6.853  19.257  0.00  0.00    +0.000 A 
ATOM      6  N   UNL     1       2.654   7.900  18.402  0.00  0.00    +0.000 N 
ATOM      7  C   UNL     1       3.689   7.615  17.558  0.00  0.00    +0.000 A 
ATOM      8  C   UNL     1       4.162   6.345  17.852  0.00  0.00    +0.000 A 
ATOM      9  C   UNL     1       3.395   5.863  18.976  0.00  0.00    +0.000 A 
ATOM     10  H   UNL     1       2.104   8.745  18.417  0.00  0.00    +0.000 HD
ENDROOT
BRANCH   8  11
ATOM     11  C   UNL     1       5.226   5.721  17.072  0.00  0.00    +0.000 A 
ATOM     12  C   UNL     1       5.204   5.738  15.698  0.00  0.00    +0.000 A 
ATOM     13  C   UNL     1       6.254   5.122  15.067  0.00  0.00    +0.000 A 
ATOM     14  N   UNL     1       7.285   4.573  15.727  0.00  0.00    +0.000 NA
ATOM     15  C   UNL     1       7.254   4.661  17.056  0.00  0.00    +0.000 A 
ATOM     16  N   UNL     1       8.330   4.147  17.748  0.00  0.00    +0.000 N 
ATOM     17  N   UNL     1       6.254   5.187  17.770  0.00  0.00    +0.000 NA
ATOM     18  H   UNL     1       8.794   3.452  17.179  0.00  0.00    +0.000 HD
ATOM     19  H   UNL     1       8.044   3.878  18.678  0.00  0.00    +0.000 HD
ENDBRANCH   8  11
BRANCH   1  20
ATOM     20  O   UNL     1       4.311   3.735  19.613  0.00  0.00    +0.000 OA
BRANCH  20  21
ATOM     21  C   UNL     1       3.876   2.381  19.727  0.00  0.00    +0.000 C 
BRANCH  21  23
ATOM     22  C   UNL     1       2.392   2.265  17.713  0.00  0.00    +0.000 C 
ATOM     23  C   UNL     1       3.700   1.800  18.329  0.00  0.00    +0.000 C 
ENDBRANCH  21  23
ENDBRANCH  20  21
ENDBRANCH   1  20
TORSDOF 4
ENDMDL
MODEL 7
REMARK VINA RESULT:      -6.9      1.942      3.318
REMARK  Name = 
REMARK  5 active torsions:
REMARK  status: ('A' for Active; 'I' for Inactive)
REMARK    1  A    between atoms: C_1  and  C_2
REMARK    2  A    between atoms: C_2  and  C_3
REMARK    3  A    between atoms: C_3  and  O_4
REMARK    4  A    between atoms: O_4  and  C_5
REMARK    5  A    between atoms: C_12  and  C_13
REMARK                            x       y       z     vdW  Elec       q    Type
REMARK                         _______ _______ _______ _____ _____    ______ ____
ROOT
ATOM      1  C   UNL     1       3.182   2.981  18.007  0.00  0.00    +0.000 A 
ATOM      2  C   UNL     1       2.095   2.107  17.896  0.00  0.00    +0.000 A 
ATOM      3  C   UNL     1       0.949   2.346  18.639  0.00  0.00    +0.000 A 
ATOM      4  N   UNL     1       0.769   3.367  19.495  0.00  0.00    +0.000 NA
ATOM      5  C   UNL     1       1.832   4.186  19.570  0.00  0.00    +0.000 A 
ATOM      6  N   UNL     1       1.885   5.276  20.390  0.00  0.00    +0.000 N 
ATOM      7  C   UNL     1       3.086   5.910  20.240  0.00  0.00    +0.000 A 
ATOM      8  C   UNL     1       3.826   5.231  19.283  0.00  0.00    +0.000 A 
ATOM      9  C   UNL     1       3.037   4.093  18.875  0.00  0.00    +0.000 A 
ATOM     10  H   UNL     1       1.134   5.549  21.006  0.00  0.00    +0.000 HD
ENDROOT
BRANCH   8  11
ATOM     11  C   UNL     1       5.134   5.706  18.844  0.00  0.00    +0.000 A 
ATOM     12  C   UNL     1       5.257   6.574  17.785  0.00  0.00    +0.000 A 
ATOM     13  C   UNL     1       6.533   6.955  17.459  0.00  0.00    +0.000 A 
ATOM     14  N   UNL     1       7.615   6.561  18.149  0.00  0.00    +0.000 NA
ATOM     15  C   UNL     1       7.393   5.773  19.199  0.00  0.00    +0.000 A 
ATOM     16  N   UNL     1       8.489   5.400  19.950  0.00  0.00    +0.000 N 
ATOM     17  N   UNL     1       6.200   5.298  19.569  0.00  0.00    +0.000 NA
ATOM     18  H   UNL     1       9.322   5.465  19.382  0.00  0.00    +0.000 HD
ATOM     19  H   UNL     1       8.304   4.523  20.415  0.00  0.00    +0.000 HD
ENDBRANCH   8  11
BRANCH   1  20
ATOM     20  O   UNL     1       4.370   2.807  17.344  0.00  0.00    +0.000 OA
BRANCH  20  21
ATOM     21  C   UNL     1       4.533   3.498  16.107  0.00  0.00    +0.000 C 
BRANCH  21  23
ATOM     22  C   UNL     1       6.246   4.186  14.415  0.00  0.00    +0.000 C 
ATOM     23  C   UNL     1       6.021   3.649  15.818  0.00  0.00    +0.000 C 
ENDBRANCH  21  23
ENDBRANCH  20  21
ENDBRANCH   1  20
TORSDOF 4
ENDMDL
MODEL 8
REMARK VINA RESULT:      -6.9      2.016      5.359
REMARK  Name = 
REMARK  5 active torsions:
REMARK  status: ('A' for Active; 'I' for Inactive)
REMARK    1  A    between atoms: C_1  and  C_2
REMARK    2  A    between atoms: C_2  and  C_3
REMARK    3  A    between atoms: C_3  and  O_4
REMARK    4  A    between atoms: O_4  and  C_5
REMARK    5  A    between atoms: C_12  and  C_13
REMARK                            x       y       z     vdW  Elec       q    Type
REMARK                         _______ _______ _______ _____ _____    ______ ____
ROOT
ATOM      1  C   UNL     1       4.833   4.320  16.445  0.00  0.00    +0.000 A 
ATOM      2  C   UNL     1       5.564   4.005  15.295  0.00  0.00    +0.000 A 
ATOM      3  C   UNL     1       6.947   4.100  15.317  0.00  0.00    +0.000 A 
ATOM      4  N   UNL     1       7.688   4.486  16.371  0.00  0.00    +0.000 NA
ATOM      5  C   UNL     1       6.951   4.775  17.457  0.00  0.00    +0.000 A 
ATOM      6  N   UNL     1       7.486   5.210  18.635  0.00  0.00    +0.000 N 
ATOM      7  C   UNL     1       6.491   5.413  19.548  0.00  0.00    +0.000 A 
ATOM      8  C   UNL     1       5.279   5.082  18.960  0.00  0.00    +0.000 A 
ATOM      9  C   UNL     1       5.565   4.707  17.596  0.00  0.00    +0.000 A 
ATOM     10  H   UNL     1       8.474   5.352  18.780  0.00  0.00    +0.000 HD
ENDROOT
BRANCH   8  11
ATOM     11  C   UNL     1       4.026   5.123  19.707  0.00  0.00    +0.000 A 
ATOM     12  C   UNL     1       3.138   6.161  19.551  0.00  0.00    +0.000 A 
ATOM     13  C   UNL     1       1.993   6.097  20.301  0.00  0.00    +0.000 A 
ATOM     14  N   UNL     1       1.704   5.067  21.111  0.00  0.00    +0.000 NA
ATOM     15  C   UNL     1       2.592   4.074  21.149  0.00  0.00    +0.000 A 
ATOM     16  N   UNL     1       2.286   2.985  21.936  0.00  0.00    +0.000 N 
ATOM     17  N   UNL     1       3.762   4.063  20.504  0.00  0.00    +0.000 NA
ATOM     18  H   UNL     1       1.627   3.261  22.651  0.00  0.00    +0.000 HD
ATOM     19  H   UNL     1       3.135   2.525  22.232  0.00  0.00    +0.000 HD
ENDBRANCH   8  11
BRANCH   1  20
ATOM     20  O   UNL     1       3.463   4.294  16.508  0.00  0.00    +0.000 OA
BRANCH  20  21
ATOM     21  C   UNL     1       2.858   3.125  17.057  0.00  0.00    +0.000 C 
BRANCH  21  23
ATOM     22  C   UNL     1       1.012   2.414  18.592  0.00  0.00    +0.000 C 
ATOM     23  C   UNL     1       1.509   3.503  17.658  0.00  0.00    +0.000 C 
ENDBRANCH  21  23
ENDBRANCH  20  21
ENDBRANCH   1  20
TORSDOF 4
ENDMDL
MODEL 9
REMARK VINA RESULT:      -6.7      3.171      5.427
REMARK  Name = 
REMARK  5 active torsions:
REMARK  status: ('A' for Active; 'I' for Inactive)
REMARK    1  A    between atoms: C_1  and  C_2
REMARK    2  A    between atoms: C_2  and  C_3
REMARK    3  A    between atoms: C_3  and  O_4
REMARK    4  A    between atoms: O_4  and  C_5
REMARK    5  A    between atoms: C_12  and  C_13
REMARK                            x       y       z     vdW  Elec       q    Type
REMARK                         _______ _______ _______ _____ _____    ______ ____
ROOT
ATOM      1  C   UNL     1       2.465   4.186  18.058  0.00  0.00    +0.000 A 
ATOM      2  C   UNL     1       2.880   2.905  17.682  0.00  0.00    +0.000 A 
ATOM      3  C   UNL     1       4.066   2.749  16.983  0.00  0.00    +0.000 A 
ATOM      4  N   UNL     1       4.890   3.744  16.607  0.00  0.00    +0.000 NA
ATOM      5  C   UNL     1       4.460   4.958  16.991  0.00  0.00    +0.000 A 
ATOM      6  N   UNL     1       5.122   6.117  16.701  0.00  0.00    +0.000 N 
ATOM      7  C   UNL     1       4.446   7.180  17.227  0.00  0.00    +0.000 A 
ATOM      8  C   UNL     1       3.327   6.704  17.896  0.00  0.00    +0.000 A 
ATOM      9  C   UNL     1       3.309   5.272  17.712  0.00  0.00    +0.000 A 
ATOM     10  H   UNL     1       5.981   6.152  16.173  0.00  0.00    +0.000 HD
ENDROOT
BRANCH   8  11
ATOM     11  C   UNL     1       2.434   7.594  18.630  0.00  0.00    +0.000 A 
ATOM     12  C   UNL     1       2.196   7.414  19.972  0.00  0.00    +0.000 A 
ATOM     13  C   UNL     1       1.341   8.308  20.561  0.00  0.00    +0.000 A 
ATOM     14  N   UNL     1       0.794   9.342  19.903  0.00  0.00    +0.000 NA
ATOM     15  C   UNL     1       1.133   9.476  18.622  0.00  0.00    +0.000 A 
ATOM     16  N   UNL     1       0.621  10.562  17.944  0.00  0.00    +0.000 N 
ATOM     17  N   UNL     1       1.910   8.631  17.938  0.00  0.00    +0.000 NA
ATOM     18  H   UNL     1      -0.223  10.877  18.403  0.00  0.00    +0.000 HD
ATOM     19  H   UNL     1       0.571  10.358  16.956  0.00  0.00    +0.000 HD
ENDBRANCH   8  11
BRANCH   1  20
ATOM     20  O   UNL     1       1.289   4.444  18.716  0.00  0.00    +0.000 OA
BRANCH  20  21
ATOM     21  C   UNL     1       0.875   3.502  19.704  0.00  0.00    +0.000 C 
BRANCH  21  23
ATOM     22  C   UNL     1       2.284   2.715  21.619  0.00  0.00    +0.000 C 
ATOM     23  C   UNL     1       1.500   3.881  21.041  0.00  0.00    +0.000 C 
ENDBRANCH  21  23
ENDBRANCH  20  21
ENDBRANCH   1  20
TORSDOF 4
ENDMDL
