MODEL 1
REMARK VINA RESULT:      -7.9      0.000      0.000
REMARK  Name = 
REMARK  7 active torsions:
REMARK  status: ('A' for Active; 'I' for Inactive)
REMARK    1  A    between atoms: C_2  and  C_3
REMARK    2  A    between atoms: C_2  and  C_16
REMARK    3  A    between atoms: C_3  and  C_4
REMARK    4  A    between atoms: C_4  and  C_5
REMARK    5  A    between atoms: N_7  and  C_8
REMARK    6  A    between atoms: C_16  and  C_17
REMARK    7  A    between atoms: C_17  and  C_19
REMARK                            x       y       z     vdW  Elec       q    Type
REMARK                         _______ _______ _______ _____ _____    ______ ____
ROOT
ATOM      1  O   UNL     1       4.572   1.490  20.027  0.00  0.00    +0.000 OA
ATOM      2  C   UNL     1       3.520   1.874  19.502  0.00  0.00    +0.000 C 
ENDROOT
BRANCH   2   3
ATOM      3  C   UNL     1       2.311   2.246  20.343  0.00  0.00    +0.000 C 
BRANCH   3   4
ATOM      4  C   UNL     1       2.576   3.460  21.225  0.00  0.00    +0.000 C 
BRANCH   4   5
ATOM      5  C   UNL     1       1.711   4.631  20.803  0.00  0.00    +0.000 C 
ATOM      6  O   UNL     1       0.600   4.436  20.319  0.00  0.00    +0.000 OA
ATOM      7  N   UNL     1       2.345   5.853  20.936  0.00  0.00    +0.000 N 
ATOM      8  H   UNL     1       3.344   5.817  21.145  0.00  0.00    +0.000 HD
BRANCH   7   9
ATOM      9  C   UNL     1       1.819   7.116  20.593  0.00  0.00    +0.000 A 
ATOM     10  C   UNL     1       0.946   7.831  21.415  0.00  0.00    +0.000 A 
ATOM     11  C   UNL     1       0.426   9.060  21.000  0.00  0.00    +0.000 A 
ATOM     12  C   UNL     1       0.775   9.588  19.757  0.00  0.00    +0.000 A 
ATOM     13 CL   UNL     1       0.069  11.094  19.294  0.00  0.00    +0.000 Cl
ATOM     14  C   UNL     1       1.670   8.890  18.939  0.00  0.00    +0.000 A 
ATOM     15 CL   UNL     1       2.149   9.477  17.386  0.00  0.00    +0.000 Cl
ATOM     16  C   UNL     1       2.197   7.663  19.363  0.00  0.00    +0.000 A 
ENDBRANCH   7   9
ENDBRANCH   4   5
ENDBRANCH   3   4
ENDBRANCH   2   3
BRANCH   2  17
ATOM     17  C   UNL     1       3.439   2.089  18.008  0.00  0.00    +0.000 C 
BRANCH  17  18
ATOM     18  C   UNL     1       3.013   3.471  17.590  0.00  0.00    +0.000 C 
ATOM     19  O   UNL     1       1.841   3.743  17.339  0.00  0.00    +0.000 OA
BRANCH  18  20
ATOM     20  C   UNL     1       4.054   4.539  17.473  0.00  0.00    +0.000 A 
ATOM     21  C   UNL     1       3.957   5.584  16.550  0.00  0.00    +0.000 A 
ATOM     22  C   UNL     1       4.943   6.576  16.506  0.00  0.00    +0.000 A 
ATOM     23  C   UNL     1       6.037   6.543  17.384  0.00  0.00    +0.000 A 
ATOM     24  C   UNL     1       7.020   7.547  17.371  0.00  0.00    +0.000 A 
ATOM     25  C   UNL     1       8.097   7.502  18.259  0.00  0.00    +0.000 A 
ATOM     26  C   UNL     1       8.210   6.450  19.162  0.00  0.00    +0.000 A 
ATOM     27  C   UNL     1       7.246   5.442  19.184  0.00  0.00    +0.000 A 
ATOM     28  C   UNL     1       6.150   5.479  18.307  0.00  0.00    +0.000 A 
ATOM     29  C   UNL     1       5.157   4.486  18.336  0.00  0.00    +0.000 A 
ENDBRANCH  18  20
ENDBRANCH  17  18
ENDBRANCH   2  17
TORSDOF 7
ENDMDL
MODEL 2
REMARK VINA RESULT:      -7.7      5.051      7.794
REMARK  Name = 
REMARK  7 active torsions:
REMARK  status: ('A' for Active; 'I' for Inactive)
REMARK    1  A    between atoms: C_2  and  C_3
REMARK    2  A    between atoms: C_2  and  C_16
REMARK    3  A    between atoms: C_3  and  C_4
REMARK    4  A    between atoms: C_4  and  C_5
REMARK    5  A    between atoms: N_7  and  C_8
REMARK    6  A    between atoms: C_16  and  C_17
REMARK    7  A    between atoms: C_17  and  C_19
REMARK                            x       y       z     vdW  Elec       q    Type
REMARK                         _______ _______ _______ _____ _____    ______ ____
ROOT
ATOM      1  O   UNL     1       6.685   5.595  18.948  0.00  0.00    +0.000 OA
ATOM      2  C   UNL     1       7.192   6.304  18.070  0.00  0.00    +0.000 C 
ENDROOT
BRANCH   2   3
ATOM      3  C   UNL     1       8.233   7.356  18.413  0.00  0.00    +0.000 C 
BRANCH   3   4
ATOM      4  C   UNL     1       7.876   8.725  17.847  0.00  0.00    +0.000 C 
BRANCH   4   5
ATOM      5  C   UNL     1       8.748   9.804  18.458  0.00  0.00    +0.000 C 
ATOM      6  O   UNL     1       9.283   9.624  19.547  0.00  0.00    +0.000 OA
ATOM      7  N   UNL     1       8.769  10.972  17.717  0.00  0.00    +0.000 N 
ATOM      8  H   UNL     1       8.093  11.028  16.953  0.00  0.00    +0.000 HD
BRANCH   7   9
ATOM      9  C   UNL     1       9.453  12.162  18.041  0.00  0.00    +0.000 A 
ATOM     10  C   UNL     1      10.488  12.686  17.265  0.00  0.00    +0.000 A 
ATOM     11  C   UNL     1      11.156  13.848  17.662  0.00  0.00    +0.000 A 
ATOM     12  C   UNL     1      10.794  14.499  18.840  0.00  0.00    +0.000 A 
ATOM     13 CL   UNL     1      11.684  15.910  19.289  0.00  0.00    +0.000 Cl
ATOM     14  C   UNL     1       9.741  13.995  19.611  0.00  0.00    +0.000 A 
ATOM     15 CL   UNL     1       9.235  14.743  21.084  0.00  0.00    +0.000 Cl
ATOM     16  C   UNL     1       9.067  12.836  19.204  0.00  0.00    +0.000 A 
ENDBRANCH   7   9
ENDBRANCH   4   5
ENDBRANCH   3   4
ENDBRANCH   2   3
BRANCH   2  17
ATOM     17  C   UNL     1       6.871   6.071  16.613  0.00  0.00    +0.000 C 
BRANCH  17  18
ATOM     18  C   UNL     1       5.444   6.357  16.226  0.00  0.00    +0.000 C 
ATOM     19  O   UNL     1       5.160   7.012  15.226  0.00  0.00    +0.000 OA
BRANCH  18  20
ATOM     20  C   UNL     1       4.346   5.830  17.092  0.00  0.00    +0.000 A 
ATOM     21  C   UNL     1       3.538   6.664  17.872  0.00  0.00    +0.000 A 
ATOM     22  C   UNL     1       2.502   6.120  18.639  0.00  0.00    +0.000 A 
ATOM     23  C   UNL     1       2.252   4.739  18.637  0.00  0.00    +0.000 A 
ATOM     24  C   UNL     1       1.197   4.183  19.378  0.00  0.00    +0.000 A 
ATOM     25  C   UNL     1       0.957   2.807  19.356  0.00  0.00    +0.000 A 
ATOM     26  C   UNL     1       1.773   1.971  18.601  0.00  0.00    +0.000 A 
ATOM     27  C   UNL     1       2.828   2.507  17.862  0.00  0.00    +0.000 A 
ATOM     28  C   UNL     1       3.075   3.890  17.864  0.00  0.00    +0.000 A 
ATOM     29  C   UNL     1       4.117   4.446  17.104  0.00  0.00    +0.000 A 
ENDBRANCH  18  20
ENDBRANCH  17  18
ENDBRANCH   2  17
TORSDOF 7
ENDMDL
MODEL 3
REMARK VINA RESULT:      -7.7      4.174      7.005
REMARK  Name = 
REMARK  7 active torsions:
REMARK  status: ('A' for Active; 'I' for Inactive)
REMARK    1  A    between atoms: C_2  and  C_3
REMARK    2  A    between atoms: C_2  and  C_16
REMARK    3  A    between atoms: C_3  and  C_4
REMARK    4  A    between atoms: C_4  and  C_5
REMARK    5  A    between atoms: N_7  and  C_8
REMARK    6  A    between atoms: C_16  and  C_17
REMARK    7  A    between atoms: C_17  and  C_19
REMARK                            x       y       z     vdW  Elec       q    Type
REMARK                         _______ _______ _______ _____ _____    ______ ____
ROOT
ATOM      1  O   UNL     1       6.265   5.178  19.599  0.00  0.00    +0.000 OA
ATOM      2  C   UNL     1       6.134   5.304  18.375  0.00  0.00    +0.000 C 
ENDROOT
BRANCH   2   3
ATOM      3  C   UNL     1       7.001   6.270  17.587  0.00  0.00    +0.000 C 
BRANCH   3   4
ATOM      4  C   UNL     1       8.112   6.873  18.439  0.00  0.00    +0.000 C 
BRANCH   4   5
ATOM      5  C   UNL     1       8.203   8.371  18.222  0.00  0.00    +0.000 C 
ATOM      6  O   UNL     1       7.640   8.893  17.265  0.00  0.00    +0.000 OA
ATOM      7  N   UNL     1       9.035   9.002  19.129  0.00  0.00    +0.000 N 
ATOM      8  H   UNL     1       9.598   8.388  19.721  0.00  0.00    +0.000 HD
BRANCH   7   9
ATOM      9  C   UNL     1       9.353  10.376  19.164  0.00  0.00    +0.000 A 
ATOM     10  C   UNL     1       9.792  11.090  18.049  0.00  0.00    +0.000 A 
ATOM     11  C   UNL     1      10.131  12.442  18.158  0.00  0.00    +0.000 A 
ATOM     12  C   UNL     1      10.032  13.094  19.386  0.00  0.00    +0.000 A 
ATOM     13 CL   UNL     1      10.499  14.755  19.457  0.00  0.00    +0.000 Cl
ATOM     14  C   UNL     1       9.567  12.392  20.504  0.00  0.00    +0.000 A 
ATOM     15 CL   UNL     1       9.420  13.130  22.060  0.00  0.00    +0.000 Cl
ATOM     16  C   UNL     1       9.219  11.040  20.388  0.00  0.00    +0.000 A 
ENDBRANCH   7   9
ENDBRANCH   4   5
ENDBRANCH   3   4
ENDBRANCH   2   3
BRANCH   2  17
ATOM     17  C   UNL     1       5.179   4.419  17.609  0.00  0.00    +0.000 C 
BRANCH  17  18
ATOM     18  C   UNL     1       3.863   4.165  18.296  0.00  0.00    +0.000 C 
ATOM     19  O   UNL     1       3.390   3.035  18.399  0.00  0.00    +0.000 OA
BRANCH  18  20
ATOM     20  C   UNL     1       3.111   5.327  18.861  0.00  0.00    +0.000 A 
ATOM     21  C   UNL     1       2.571   5.318  20.150  0.00  0.00    +0.000 A 
ATOM     22  C   UNL     1       1.906   6.447  20.641  0.00  0.00    +0.000 A 
ATOM     23  C   UNL     1       1.773   7.603  19.856  0.00  0.00    +0.000 A 
ATOM     24  C   UNL     1       1.133   8.753  20.346  0.00  0.00    +0.000 A 
ATOM     25  C   UNL     1       1.019   9.897  19.554  0.00  0.00    +0.000 A 
ATOM     26  C   UNL     1       1.533   9.903  18.262  0.00  0.00    +0.000 A 
ATOM     27  C   UNL     1       2.168   8.767  17.758  0.00  0.00    +0.000 A 
ATOM     28  C   UNL     1       2.302   7.612  18.547  0.00  0.00    +0.000 A 
ATOM     29  C   UNL     1       2.961   6.470  18.062  0.00  0.00    +0.000 A 
ENDBRANCH  18  20
ENDBRANCH  17  18
ENDBRANCH   2  17
TORSDOF 7
ENDMDL
MODEL 4
REMARK VINA RESULT:      -7.6      4.381      7.303
REMARK  Name = 
REMARK  7 active torsions:
REMARK  status: ('A' for Active; 'I' for Inactive)
REMARK    1  A    between atoms: C_2  and  C_3
REMARK    2  A    between atoms: C_2  and  C_16
REMARK    3  A    between atoms: C_3  and  C_4
REMARK    4  A    between atoms: C_4  and  C_5
REMARK    5  A    between atoms: N_7  and  C_8
REMARK    6  A    between atoms: C_16  and  C_17
REMARK    7  A    between atoms: C_17  and  C_19
REMARK                            x       y       z     vdW  Elec       q    Type
REMARK                         _______ _______ _______ _____ _____    ______ ____
ROOT
ATOM      1  O   UNL     1       5.227   7.230  17.470  0.00  0.00    +0.000 OA
ATOM      2  C   UNL     1       5.937   6.484  16.785  0.00  0.00    +0.000 C 
ENDROOT
BRANCH   2   3
ATOM      3  C   UNL     1       7.435   6.393  17.018  0.00  0.00    +0.000 C 
BRANCH   3   4
ATOM      4  C   UNL     1       7.853   7.040  18.333  0.00  0.00    +0.000 C 
BRANCH   4   5
ATOM      5  C   UNL     1       8.208   8.500  18.125  0.00  0.00    +0.000 C 
ATOM      6  O   UNL     1       7.908   9.066  17.079  0.00  0.00    +0.000 OA
ATOM      7  N   UNL     1       8.952   9.033  19.162  0.00  0.00    +0.000 N 
ATOM      8  H   UNL     1       9.301   8.364  19.851  0.00  0.00    +0.000 HD
BRANCH   7   9
ATOM      9  C   UNL     1       9.462  10.345  19.244  0.00  0.00    +0.000 A 
ATOM     10  C   UNL     1      10.120  10.978  18.189  0.00  0.00    +0.000 A 
ATOM     11  C   UNL     1      10.640  12.267  18.346  0.00  0.00    +0.000 A 
ATOM     12  C   UNL     1      10.506  12.935  19.562  0.00  0.00    +0.000 A 
ATOM     13 CL   UNL     1      11.202  14.510  19.697  0.00  0.00    +0.000 Cl
ATOM     14  C   UNL     1       9.825  12.318  20.617  0.00  0.00    +0.000 A 
ATOM     15 CL   UNL     1       9.620  13.080  22.154  0.00  0.00    +0.000 Cl
ATOM     16  C   UNL     1       9.296  11.031  20.452  0.00  0.00    +0.000 A 
ENDBRANCH   7   9
ENDBRANCH   4   5
ENDBRANCH   3   4
ENDBRANCH   2   3
BRANCH   2  17
ATOM     17  C   UNL     1       5.320   5.557  15.765  0.00  0.00    +0.000 C 
BRANCH  17  18
ATOM     18  C   UNL     1       5.047   4.162  16.262  0.00  0.00    +0.000 C 
ATOM     19  O   UNL     1       5.708   3.196  15.885  0.00  0.00    +0.000 OA
BRANCH  18  20
ATOM     20  C   UNL     1       3.934   3.951  17.237  0.00  0.00    +0.000 A 
ATOM     21  C   UNL     1       2.592   4.155  16.902  0.00  0.00    +0.000 A 
ATOM     22  C   UNL     1       1.588   3.909  17.844  0.00  0.00    +0.000 A 
ATOM     23  C   UNL     1       1.904   3.453  19.133  0.00  0.00    +0.000 A 
ATOM     24  C   UNL     1       0.905   3.175  20.080  0.00  0.00    +0.000 A 
ATOM     25  C   UNL     1       1.240   2.713  21.354  0.00  0.00    +0.000 A 
ATOM     26  C   UNL     1       2.575   2.532  21.701  0.00  0.00    +0.000 A 
ATOM     27  C   UNL     1       3.580   2.808  20.773  0.00  0.00    +0.000 A 
ATOM     28  C   UNL     1       3.260   3.262  19.483  0.00  0.00    +0.000 A 
ATOM     29  C   UNL     1       4.259   3.518  18.531  0.00  0.00    +0.000 A 
ENDBRANCH  18  20
ENDBRANCH  17  18
ENDBRANCH   2  17
TORSDOF 7
ENDMDL
MODEL 5
REMARK VINA RESULT:      -7.6      1.704      2.662
REMARK  Name = 
REMARK  7 active torsions:
REMARK  status: ('A' for Active; 'I' for Inactive)
REMARK    1  A    between atoms: C_2  and  C_3
REMARK    2  A    between atoms: C_2  and  C_16
REMARK    3  A    between atoms: C_3  and  C_4
REMARK    4  A    between atoms: C_4  and  C_5
REMARK    5  A    between atoms: N_7  and  C_8
REMARK    6  A    between atoms: C_16  and  C_17
REMARK    7  A    between atoms: C_17  and  C_19
REMARK                            x       y       z     vdW  Elec       q    Type
REMARK                         _______ _______ _______ _____ _____    ______ ____
ROOT
ATOM      1  O   UNL     1       0.681   3.754  19.669  0.00  0.00    +0.000 OA
ATOM      2  C   UNL     1       1.777   3.936  20.214  0.00  0.00    +0.000 C 
ENDROOT
BRANCH   2   3
ATOM      3  C   UNL     1       2.087   5.234  20.940  0.00  0.00    +0.000 C 
BRANCH   3   4
ATOM      4  C   UNL     1       2.356   6.382  19.975  0.00  0.00    +0.000 C 
BRANCH   4   5
ATOM      5  C   UNL     1       1.649   7.644  20.431  0.00  0.00    +0.000 C 
ATOM      6  O   UNL     1       1.206   7.727  21.573  0.00  0.00    +0.000 OA
ATOM      7  N   UNL     1       1.496   8.578  19.422  0.00  0.00    +0.000 N 
ATOM      8  H   UNL     1       1.726   8.258  18.480  0.00  0.00    +0.000 HD
BRANCH   7   9
ATOM      9  C   UNL     1       0.852   9.828  19.524  0.00  0.00    +0.000 A 
ATOM     10  C   UNL     1       1.123  10.751  20.535  0.00  0.00    +0.000 A 
ATOM     11  C   UNL     1       0.420  11.957  20.604  0.00  0.00    +0.000 A 
ATOM     12  C   UNL     1      -0.563  12.253  19.661  0.00  0.00    +0.000 A 
ATOM     13 CL   UNL     1      -1.417  13.745  19.827  0.00  0.00    +0.000 Cl
ATOM     14  C   UNL     1      -0.824  11.345  18.629  0.00  0.00    +0.000 A 
ATOM     15 CL   UNL     1      -2.027  11.639  17.425  0.00  0.00    +0.000 Cl
ATOM     16  C   UNL     1      -0.109  10.142  18.557  0.00  0.00    +0.000 A 
ENDBRANCH   7   9
ENDBRANCH   4   5
ENDBRANCH   3   4
ENDBRANCH   2   3
BRANCH   2  17
ATOM     17  C   UNL     1       2.803   2.829  20.269  0.00  0.00    +0.000 C 
BRANCH  17  18
ATOM     18  C   UNL     1       3.560   2.604  18.986  0.00  0.00    +0.000 C 
ATOM     19  O   UNL     1       3.580   1.510  18.425  0.00  0.00    +0.000 OA
BRANCH  18  20
ATOM     20  C   UNL     1       4.313   3.748  18.386  0.00  0.00    +0.000 A 
ATOM     21  C   UNL     1       3.885   4.405  17.229  0.00  0.00    +0.000 A 
ATOM     22  C   UNL     1       4.610   5.492  16.730  0.00  0.00    +0.000 A 
ATOM     23  C   UNL     1       5.769   5.944  17.379  0.00  0.00    +0.000 A 
ATOM     24  C   UNL     1       6.492   7.053  16.906  0.00  0.00    +0.000 A 
ATOM     25  C   UNL     1       7.637   7.493  17.572  0.00  0.00    +0.000 A 
ATOM     26  C   UNL     1       8.080   6.828  18.710  0.00  0.00    +0.000 A 
ATOM     27  C   UNL     1       7.377   5.723  19.190  0.00  0.00    +0.000 A 
ATOM     28  C   UNL     1       6.216   5.274  18.540  0.00  0.00    +0.000 A 
ATOM     29  C   UNL     1       5.483   4.179  19.027  0.00  0.00    +0.000 A 
ENDBRANCH  18  20
ENDBRANCH  17  18
ENDBRANCH   2  17
TORSDOF 7
ENDMDL
MODEL 6
REMARK VINA RESULT:      -7.6      4.745      7.459
REMARK  Name = 
REMARK  7 active torsions:
REMARK  status: ('A' for Active; 'I' for Inactive)
REMARK    1  A    between atoms: C_2  and  C_3
REMARK    2  A    between atoms: C_2  and  C_16
REMARK    3  A    between atoms: C_3  and  C_4
REMARK    4  A    between atoms: C_4  and  C_5
REMARK    5  A    between atoms: N_7  and  C_8
REMARK    6  A    between atoms: C_16  and  C_17
REMARK    7  A    between atoms: C_17  and  C_19
REMARK                            x       y       z     vdW  Elec       q    Type
REMARK                         _______ _______ _______ _____ _____    ______ ____
ROOT
ATOM      1  O   UNL     1       7.302   5.286  19.690  0.00  0.00    +0.000 OA
ATOM      2  C   UNL     1       7.534   6.035  18.732  0.00  0.00    +0.000 C 
ENDROOT
BRANCH   2   3
ATOM      3  C   UNL     1       8.266   7.352  18.924  0.00  0.00    +0.000 C 
BRANCH   3   4
ATOM      4  C   UNL     1       8.134   8.265  17.712  0.00  0.00    +0.000 C 
BRANCH   4   5
ATOM      5  C   UNL     1       8.281   9.720  18.116  0.00  0.00    +0.000 C 
ATOM      6  O   UNL     1       7.717  10.600  17.474  0.00  0.00    +0.000 OA
ATOM      7  N   UNL     1       9.159   9.906  19.168  0.00  0.00    +0.000 N 
ATOM      8  H   UNL     1       9.709   9.090  19.440  0.00  0.00    +0.000 HD
BRANCH   7   9
ATOM      9  C   UNL     1       9.532  11.138  19.744  0.00  0.00    +0.000 A 
ATOM     10  C   UNL     1      10.422  12.028  19.141  0.00  0.00    +0.000 A 
ATOM     11  C   UNL     1      10.784  13.216  19.782  0.00  0.00    +0.000 A 
ATOM     12  C   UNL     1      10.258  13.526  21.035  0.00  0.00    +0.000 A 
ATOM     13 CL   UNL     1      10.776  14.993  21.786  0.00  0.00    +0.000 Cl
ATOM     14  C   UNL     1       9.346  12.652  21.636  0.00  0.00    +0.000 A 
ATOM     15 CL   UNL     1       8.654  12.965  23.188  0.00  0.00    +0.000 Cl
ATOM     16  C   UNL     1       8.977  11.468  20.985  0.00  0.00    +0.000 A 
ENDBRANCH   7   9
ENDBRANCH   4   5
ENDBRANCH   3   4
ENDBRANCH   2   3
BRANCH   2  17
ATOM     17  C   UNL     1       7.192   5.611  17.324  0.00  0.00    +0.000 C 
BRANCH  17  18
ATOM     18  C   UNL     1       5.780   5.914  16.897  0.00  0.00    +0.000 C 
ATOM     19  O   UNL     1       5.509   6.871  16.176  0.00  0.00    +0.000 OA
BRANCH  18  20
ATOM     20  C   UNL     1       4.678   5.023  17.375  0.00  0.00    +0.000 A 
ATOM     21  C   UNL     1       4.468   3.742  16.856  0.00  0.00    +0.000 A 
ATOM     22  C   UNL     1       3.443   2.938  17.365  0.00  0.00    +0.000 A 
ATOM     23  C   UNL     1       2.614   3.396  18.401  0.00  0.00    +0.000 A 
ATOM     24  C   UNL     1       1.599   2.588  18.941  0.00  0.00    +0.000 A 
ATOM     25  C   UNL     1       0.791   3.058  19.978  0.00  0.00    +0.000 A 
ATOM     26  C   UNL     1       0.980   4.341  20.481  0.00  0.00    +0.000 A 
ATOM     27  C   UNL     1       1.980   5.157  19.952  0.00  0.00    +0.000 A 
ATOM     28  C   UNL     1       2.810   4.696  18.917  0.00  0.00    +0.000 A 
ATOM     29  C   UNL     1       3.838   5.496  18.394  0.00  0.00    +0.000 A 
ENDBRANCH  18  20
ENDBRANCH  17  18
ENDBRANCH   2  17
TORSDOF 7
ENDMDL
MODEL 7
REMARK VINA RESULT:      -7.5      3.218      6.244
REMARK  Name = 
REMARK  7 active torsions:
REMARK  status: ('A' for Active; 'I' for Inactive)
REMARK    1  A    between atoms: C_2  and  C_3
REMARK    2  A    between atoms: C_2  and  C_16
REMARK    3  A    between atoms: C_3  and  C_4
REMARK    4  A    between atoms: C_4  and  C_5
REMARK    5  A    between atoms: N_7  and  C_8
REMARK    6  A    between atoms: C_16  and  C_17
REMARK    7  A    between atoms: C_17  and  C_19
REMARK                            x       y       z     vdW  Elec       q    Type
REMARK                         _______ _______ _______ _____ _____    ______ ____
ROOT
ATOM      1  O   UNL     1       1.726   2.889  22.213  0.00  0.00    +0.000 OA
ATOM      2  C   UNL     1       1.740   3.211  21.019  0.00  0.00    +0.000 C 
ENDROOT
BRANCH   2   3
ATOM      3  C   UNL     1       2.067   2.197  19.936  0.00  0.00    +0.000 C 
BRANCH   3   4
ATOM      4  C   UNL     1       1.835   2.755  18.537  0.00  0.00    +0.000 C 
BRANCH   4   5
ATOM      5  C   UNL     1       3.123   2.753  17.737  0.00  0.00    +0.000 C 
ATOM      6  O   UNL     1       3.806   1.736  17.666  0.00  0.00    +0.000 OA
ATOM      7  N   UNL     1       3.447   3.996  17.223  0.00  0.00    +0.000 N 
ATOM      8  H   UNL     1       2.885   4.779  17.562  0.00  0.00    +0.000 HD
BRANCH   7   9
ATOM      9  C   UNL     1       4.595   4.323  16.472  0.00  0.00    +0.000 A 
ATOM     10  C   UNL     1       5.617   5.143  16.952  0.00  0.00    +0.000 A 
ATOM     11  C   UNL     1       6.711   5.463  16.142  0.00  0.00    +0.000 A 
ATOM     12  C   UNL     1       6.794   4.964  14.843  0.00  0.00    +0.000 A 
ATOM     13 CL   UNL     1       8.155   5.427  13.886  0.00  0.00    +0.000 Cl
ATOM     14  C   UNL     1       5.786   4.120  14.363  0.00  0.00    +0.000 A 
ATOM     15 CL   UNL     1       5.816   3.465  12.764  0.00  0.00    +0.000 Cl
ATOM     16  C   UNL     1       4.697   3.793  15.181  0.00  0.00    +0.000 A 
ENDBRANCH   7   9
ENDBRANCH   4   5
ENDBRANCH   3   4
ENDBRANCH   2   3
BRANCH   2  17
ATOM     17  C   UNL     1       1.327   4.600  20.591  0.00  0.00    +0.000 C 
BRANCH  17  18
ATOM     18  C   UNL     1       2.460   5.493  20.160  0.00  0.00    +0.000 C 
ATOM     19  O   UNL     1       3.630   5.116  20.181  0.00  0.00    +0.000 OA
BRANCH  18  20
ATOM     20  C   UNL     1       2.146   6.880  19.700  0.00  0.00    +0.000 A 
ATOM     21  C   UNL     1       2.455   7.334  18.414  0.00  0.00    +0.000 A 
ATOM     22  C   UNL     1       2.108   8.632  18.025  0.00  0.00    +0.000 A 
ATOM     23  C   UNL     1       1.445   9.496  18.910  0.00  0.00    +0.000 A 
ATOM     24  C   UNL     1       1.064  10.792  18.524  0.00  0.00    +0.000 A 
ATOM     25  C   UNL     1       0.396  11.634  19.416  0.00  0.00    +0.000 A 
ATOM     26  C   UNL     1       0.109  11.196  20.704  0.00  0.00    +0.000 A 
ATOM     27  C   UNL     1       0.484   9.913  21.105  0.00  0.00    +0.000 A 
ATOM     28  C   UNL     1       1.145   9.049  20.216  0.00  0.00    +0.000 A 
ATOM     29  C   UNL     1       1.505   7.747  20.597  0.00  0.00    +0.000 A 
ENDBRANCH  18  20
ENDBRANCH  17  18
ENDBRANCH   2  17
TORSDOF 7
ENDMDL
MODEL 8
REMARK VINA RESULT:      -7.5      1.566      2.346
REMARK  Name = 
REMARK  7 active torsions:
REMARK  status: ('A' for Active; 'I' for Inactive)
REMARK    1  A    between atoms: C_2  and  C_3
REMARK    2  A    between atoms: C_2  and  C_16
REMARK    3  A    between atoms: C_3  and  C_4
REMARK    4  A    between atoms: C_4  and  C_5
REMARK    5  A    between atoms: N_7  and  C_8
REMARK    6  A    between atoms: C_16  and  C_17
REMARK    7  A    between atoms: C_17  and  C_19
REMARK                            x       y       z     vdW  Elec       q    Type
REMARK                         _______ _______ _______ _____ _____    ______ ____
ROOT
ATOM      1  O   UNL     1       1.167   2.631  21.081  0.00  0.00    +0.000 OA
ATOM      2  C   UNL     1       1.444   3.189  20.012  0.00  0.00    +0.000 C 
ENDROOT
BRANCH   2   3
ATOM      3  C   UNL     1       1.175   4.670  19.806  0.00  0.00    +0.000 C 
BRANCH   3   4
ATOM      4  C   UNL     1       2.132   5.545  20.607  0.00  0.00    +0.000 C 
BRANCH   4   5
ATOM      5  C   UNL     1       1.790   7.013  20.435  0.00  0.00    +0.000 C 
ATOM      6  O   UNL     1       2.270   7.655  19.508  0.00  0.00    +0.000 OA
ATOM      7  N   UNL     1       1.000   7.511  21.457  0.00  0.00    +0.000 N 
ATOM      8  H   UNL     1       0.874   6.897  22.263  0.00  0.00    +0.000 HD
BRANCH   7   9
ATOM      9  C   UNL     1       0.549   8.839  21.599  0.00  0.00    +0.000 A 
ATOM     10  C   UNL     1      -0.093   9.312  22.745  0.00  0.00    +0.000 A 
ATOM     11  C   UNL     1      -0.554  10.630  22.809  0.00  0.00    +0.000 A 
ATOM     12  C   UNL     1      -0.376  11.490  21.726  0.00  0.00    +0.000 A 
ATOM     13 CL   UNL     1      -1.001  13.095  21.860  0.00  0.00    +0.000 Cl
ATOM     14  C   UNL     1       0.289  11.032  20.584  0.00  0.00    +0.000 A 
ATOM     15 CL   UNL     1       0.545  12.036  19.201  0.00  0.00    +0.000 Cl
ATOM     16  C   UNL     1       0.759   9.713  20.527  0.00  0.00    +0.000 A 
ENDBRANCH   7   9
ENDBRANCH   4   5
ENDBRANCH   3   4
ENDBRANCH   2   3
BRANCH   2  17
ATOM     17  C   UNL     1       2.160   2.438  18.914  0.00  0.00    +0.000 C 
BRANCH  17  18
ATOM     18  C   UNL     1       3.663   2.497  18.984  0.00  0.00    +0.000 C 
ATOM     19  O   UNL     1       4.325   1.607  19.514  0.00  0.00    +0.000 OA
BRANCH  18  20
ATOM     20  C   UNL     1       4.364   3.679  18.396  0.00  0.00    +0.000 A 
ATOM     21  C   UNL     1       3.873   4.366  17.282  0.00  0.00    +0.000 A 
ATOM     22  C   UNL     1       4.552   5.488  16.794  0.00  0.00    +0.000 A 
ATOM     23  C   UNL     1       5.728   5.944  17.410  0.00  0.00    +0.000 A 
ATOM     24  C   UNL     1       6.404   7.085  16.949  0.00  0.00    +0.000 A 
ATOM     25  C   UNL     1       7.567   7.529  17.581  0.00  0.00    +0.000 A 
ATOM     26  C   UNL     1       8.073   6.834  18.675  0.00  0.00    +0.000 A 
ATOM     27  C   UNL     1       7.416   5.695  19.143  0.00  0.00    +0.000 A 
ATOM     28  C   UNL     1       6.238   5.243  18.526  0.00  0.00    +0.000 A 
ATOM     29  C   UNL     1       5.552   4.115  19.002  0.00  0.00    +0.000 A 
ENDBRANCH  18  20
ENDBRANCH  17  18
ENDBRANCH   2  17
TORSDOF 7
ENDMDL
MODEL 9
REMARK VINA RESULT:      -7.5      4.147      7.445
REMARK  Name = 
REMARK  7 active torsions:
REMARK  status: ('A' for Active; 'I' for Inactive)
REMARK    1  A    between atoms: C_2  and  C_3
REMARK    2  A    between atoms: C_2  and  C_16
REMARK    3  A    between atoms: C_3  and  C_4
REMARK    4  A    between atoms: C_4  and  C_5
REMARK    5  A    between atoms: N_7  and  C_8
REMARK    6  A    between atoms: C_16  and  C_17
REMARK    7  A    between atoms: C_17  and  C_19
REMARK                            x       y       z     vdW  Elec       q    Type
REMARK                         _______ _______ _______ _____ _____    ______ ____
ROOT
ATOM      1  O   UNL     1       5.171   6.398  15.934  0.00  0.00    +0.000 OA
ATOM      2  C   UNL     1       5.746   6.205  17.012  0.00  0.00    +0.000 C 
ENDROOT
BRANCH   2   3
ATOM      3  C   UNL     1       7.260   6.115  17.089  0.00  0.00    +0.000 C 
BRANCH   3   4
ATOM      4  C   UNL     1       7.812   6.767  18.351  0.00  0.00    +0.000 C 
BRANCH   4   5
ATOM      5  C   UNL     1       8.086   8.240  18.120  0.00  0.00    +0.000 C 
ATOM      6  O   UNL     1       7.707   8.785  17.088  0.00  0.00    +0.000 OA
ATOM      7  N   UNL     1       8.858   8.813  19.114  0.00  0.00    +0.000 N 
ATOM      8  H   UNL     1       9.273   8.165  19.786  0.00  0.00    +0.000 HD
BRANCH   7   9
ATOM      9  C   UNL     1       9.310  10.148  19.164  0.00  0.00    +0.000 A 
ATOM     10  C   UNL     1       9.839  10.819  18.061  0.00  0.00    +0.000 A 
ATOM     11  C   UNL     1      10.309  12.131  18.186  0.00  0.00    +0.000 A 
ATOM     12  C   UNL     1      10.253  12.783  19.416  0.00  0.00    +0.000 A 
ATOM     13 CL   UNL     1      10.882  14.389  19.506  0.00  0.00    +0.000 Cl
ATOM     14  C   UNL     1       9.700  12.127  20.520  0.00  0.00    +0.000 A 
ATOM     15 CL   UNL     1       9.597  12.868  22.078  0.00  0.00    +0.000 Cl
ATOM     16  C   UNL     1       9.221  10.817  20.390  0.00  0.00    +0.000 A 
ENDBRANCH   7   9
ENDBRANCH   4   5
ENDBRANCH   3   4
ENDBRANCH   2   3
BRANCH   2  17
ATOM     17  C   UNL     1       4.964   6.161  18.304  0.00  0.00    +0.000 C 
BRANCH  17  18
ATOM     18  C   UNL     1       3.469   6.111  18.137  0.00  0.00    +0.000 C 
ATOM     19  O   UNL     1       2.900   5.130  17.662  0.00  0.00    +0.000 OA
BRANCH  18  20
ATOM     20  C   UNL     1       2.658   7.295  18.556  0.00  0.00    +0.000 A 
ATOM     21  C   UNL     1       2.333   8.332  17.677  0.00  0.00    +0.000 A 
ATOM     22  C   UNL     1       1.542   9.401  18.114  0.00  0.00    +0.000 A 
ATOM     23  C   UNL     1       1.061   9.450  19.431  0.00  0.00    +0.000 A 
ATOM     24  C   UNL     1       0.243  10.501  19.876  0.00  0.00    +0.000 A 
ATOM     25  C   UNL     1      -0.234  10.528  21.188  0.00  0.00    +0.000 A 
ATOM     26  C   UNL     1       0.108   9.511  22.073  0.00  0.00    +0.000 A 
ATOM     27  C   UNL     1       0.923   8.461  21.649  0.00  0.00    +0.000 A 
ATOM     28  C   UNL     1       1.401   8.413  20.329  0.00  0.00    +0.000 A 
ATOM     29  C   UNL     1       2.201   7.350  19.881  0.00  0.00    +0.000 A 
ENDBRANCH  18  20
ENDBRANCH  17  18
ENDBRANCH   2  17
TORSDOF 7
ENDMDL
