MODEL 1
REMARK VINA RESULT:      -7.3      0.000      0.000
REMARK  Name = 
REMARK  7 active torsions:
REMARK  status: ('A' for Active; 'I' for Inactive)
REMARK    1  A    between atoms: C_1  and  C_2
REMARK    2  A    between atoms: C_2  and  O_3
REMARK    3  A    between atoms: O_3  and  C_4
REMARK    4  A    between atoms: C_4  and  C_6
REMARK    5  A    between atoms: C_6  and  N_7
REMARK    6  A    between atoms: C_11  and  C_12
REMARK    7  A    between atoms: C_12  and  C_13
REMARK                            x       y       z     vdW  Elec       q    Type
REMARK                         _______ _______ _______ _____ _____    ______ ____
ROOT
ATOM      1  N   UNL     1       5.976   5.946  16.737  0.00  0.00    +0.000 N 
ATOM      2  C   UNL     1       6.504   5.335  15.639  0.00  0.00    +0.000 C 
ATOM      3  O   UNL     1       7.521   5.657  15.046  0.00  0.00    +0.000 OA
ATOM      4  S   UNL     1       5.511   3.994  15.149  0.00  0.00    +0.000 S 
ATOM      5  C   UNL     1       4.409   4.131  16.597  0.00  0.00    +0.000 C 
ATOM      6  C   UNL     1       4.891   5.365  17.342  0.00  0.00    +0.000 C 
ATOM      7  O   UNL     1       4.363   5.782  18.366  0.00  0.00    +0.000 OA
ENDROOT
BRANCH   1   8
ATOM      8  C   UNL     1       6.642   7.093  17.325  0.00  0.00    +0.000 C 
BRANCH   8   9
ATOM      9  C   UNL     1       7.712   6.621  18.291  0.00  0.00    +0.000 C 
ATOM     10  O   UNL     1       7.808   5.487  18.746  0.00  0.00    +0.000 OA
BRANCH   9  11
ATOM     11  O   UNL     1       8.479   7.689  18.655  0.00  0.00    +0.000 OA
BRANCH  11  13
ATOM     12  C   UNL     1       8.935  10.027  18.680  0.00  0.00    +0.000 C 
ATOM     13  C   UNL     1       8.191   8.912  17.964  0.00  0.00    +0.000 C 
ENDBRANCH  11  13
ENDBRANCH   9  11
ENDBRANCH   8   9
ENDBRANCH   1   8
BRANCH   5  14
ATOM     14  C   UNL     1       4.460   2.897  17.503  0.00  0.00    +0.000 C 
BRANCH  14  15
ATOM     15  C   UNL     1       3.427   2.887  18.612  0.00  0.00    +0.000 A 
ATOM     16  C   UNL     1       3.831   2.721  19.947  0.00  0.00    +0.000 A 
ATOM     17  C   UNL     1       2.885   2.671  20.973  0.00  0.00    +0.000 A 
ATOM     18  C   UNL     1       1.535   2.792  20.667  0.00  0.00    +0.000 A 
ATOM     19  F   UNL     1       0.627   2.731  21.649  0.00  0.00    +0.000 F 
ATOM     20  C   UNL     1       1.115   2.976  19.355  0.00  0.00    +0.000 A 
ATOM     21  C   UNL     1       2.060   3.029  18.328  0.00  0.00    +0.000 A 
ENDBRANCH  14  15
ENDBRANCH   5  14
TORSDOF 6
ENDMDL
MODEL 2
REMARK VINA RESULT:      -7.2      2.274      4.141
REMARK  Name = 
REMARK  7 active torsions:
REMARK  status: ('A' for Active; 'I' for Inactive)
REMARK    1  A    between atoms: C_1  and  C_2
REMARK    2  A    between atoms: C_2  and  O_3
REMARK    3  A    between atoms: O_3  and  C_4
REMARK    4  A    between atoms: C_4  and  C_6
REMARK    5  A    between atoms: C_6  and  N_7
REMARK    6  A    between atoms: C_11  and  C_12
REMARK    7  A    between atoms: C_12  and  C_13
REMARK                            x       y       z     vdW  Elec       q    Type
REMARK                         _______ _______ _______ _____ _____    ______ ____
ROOT
ATOM      1  N   UNL     1       6.274   5.511  16.391  0.00  0.00    +0.000 N 
ATOM      2  C   UNL     1       7.180   6.281  17.057  0.00  0.00    +0.000 C 
ATOM      3  O   UNL     1       7.828   7.206  16.592  0.00  0.00    +0.000 OA
ATOM      4  S   UNL     1       7.327   5.765  18.711  0.00  0.00    +0.000 S 
ATOM      5  C   UNL     1       5.967   4.556  18.574  0.00  0.00    +0.000 C 
ATOM      6  C   UNL     1       5.551   4.596  17.113  0.00  0.00    +0.000 C 
ATOM      7  O   UNL     1       4.667   3.887  16.646  0.00  0.00    +0.000 OA
ENDROOT
BRANCH   1   8
ATOM      8  C   UNL     1       5.987   5.764  14.992  0.00  0.00    +0.000 C 
BRANCH   8   9
ATOM      9  C   UNL     1       6.963   4.992  14.124  0.00  0.00    +0.000 C 
ATOM     10  O   UNL     1       8.067   5.390  13.773  0.00  0.00    +0.000 OA
BRANCH   9  11
ATOM     11  O   UNL     1       6.367   3.837  13.711  0.00  0.00    +0.000 OA
BRANCH  11  13
ATOM     12  C   UNL     1       5.106   3.069  11.842  0.00  0.00    +0.000 C 
ATOM     13  C   UNL     1       6.463   3.569  12.306  0.00  0.00    +0.000 C 
ENDBRANCH  11  13
ENDBRANCH   9  11
ENDBRANCH   8   9
ENDBRANCH   1   8
BRANCH   5  14
ATOM     14  C   UNL     1       4.780   4.889  19.485  0.00  0.00    +0.000 C 
BRANCH  14  15
ATOM     15  C   UNL     1       3.533   4.070  19.219  0.00  0.00    +0.000 A 
ATOM     16  C   UNL     1       2.386   4.687  18.692  0.00  0.00    +0.000 A 
ATOM     17  C   UNL     1       1.220   3.950  18.478  0.00  0.00    +0.000 A 
ATOM     18  C   UNL     1       1.198   2.596  18.786  0.00  0.00    +0.000 A 
ATOM     19  F   UNL     1       0.075   1.892  18.594  0.00  0.00    +0.000 F 
ATOM     20  C   UNL     1       2.327   1.961  19.290  0.00  0.00    +0.000 A 
ATOM     21  C   UNL     1       3.497   2.695  19.502  0.00  0.00    +0.000 A 
ENDBRANCH  14  15
ENDBRANCH   5  14
TORSDOF 6
ENDMDL
MODEL 3
REMARK VINA RESULT:      -7.1      2.294      4.084
REMARK  Name = 
REMARK  7 active torsions:
REMARK  status: ('A' for Active; 'I' for Inactive)
REMARK    1  A    between atoms: C_1  and  C_2
REMARK    2  A    between atoms: C_2  and  O_3
REMARK    3  A    between atoms: O_3  and  C_4
REMARK    4  A    between atoms: C_4  and  C_6
REMARK    5  A    between atoms: C_6  and  N_7
REMARK    6  A    between atoms: C_11  and  C_12
REMARK    7  A    between atoms: C_12  and  C_13
REMARK                            x       y       z     vdW  Elec       q    Type
REMARK                         _______ _______ _______ _____ _____    ______ ____
ROOT
ATOM      1  N   UNL     1       6.260   5.516  16.341  0.00  0.00    +0.000 N 
ATOM      2  C   UNL     1       7.187   6.256  17.012  0.00  0.00    +0.000 C 
ATOM      3  O   UNL     1       7.863   7.164  16.553  0.00  0.00    +0.000 OA
ATOM      4  S   UNL     1       7.317   5.726  18.663  0.00  0.00    +0.000 S 
ATOM      5  C   UNL     1       5.923   4.558  18.518  0.00  0.00    +0.000 C 
ATOM      6  C   UNL     1       5.510   4.618  17.057  0.00  0.00    +0.000 C 
ATOM      7  O   UNL     1       4.606   3.938  16.584  0.00  0.00    +0.000 OA
ENDROOT
BRANCH   1   8
ATOM      8  C   UNL     1       5.982   5.785  14.943  0.00  0.00    +0.000 C 
BRANCH   8   9
ATOM      9  C   UNL     1       6.952   5.008  14.072  0.00  0.00    +0.000 C 
ATOM     10  O   UNL     1       8.068   5.389  13.741  0.00  0.00    +0.000 OA
BRANCH   9  11
ATOM     11  O   UNL     1       6.337   3.874  13.631  0.00  0.00    +0.000 OA
BRANCH  11  13
ATOM     12  C   UNL     1       5.480   2.572  11.829  0.00  0.00    +0.000 C 
ATOM     13  C   UNL     1       6.558   3.556  12.250  0.00  0.00    +0.000 C 
ENDBRANCH  11  13
ENDBRANCH   9  11
ENDBRANCH   8   9
ENDBRANCH   1   8
BRANCH   5  14
ATOM     14  C   UNL     1       4.745   4.921  19.429  0.00  0.00    +0.000 C 
BRANCH  14  15
ATOM     15  C   UNL     1       3.503   4.078  19.217  0.00  0.00    +0.000 A 
ATOM     16  C   UNL     1       3.537   2.698  19.482  0.00  0.00    +0.000 A 
ATOM     17  C   UNL     1       2.411   1.904  19.255  0.00  0.00    +0.000 A 
ATOM     18  C   UNL     1       1.248   2.488  18.768  0.00  0.00    +0.000 A 
ATOM     19  F   UNL     1       0.173   1.725  18.538  0.00  0.00    +0.000 F 
ATOM     20  C   UNL     1       1.186   3.853  18.518  0.00  0.00    +0.000 A 
ATOM     21  C   UNL     1       2.311   4.650  18.747  0.00  0.00    +0.000 A 
ENDBRANCH  14  15
ENDBRANCH   5  14
TORSDOF 6
ENDMDL
MODEL 4
REMARK VINA RESULT:      -7.0      2.149      4.104
REMARK  Name = 
REMARK  7 active torsions:
REMARK  status: ('A' for Active; 'I' for Inactive)
REMARK    1  A    between atoms: C_1  and  C_2
REMARK    2  A    between atoms: C_2  and  O_3
REMARK    3  A    between atoms: O_3  and  C_4
REMARK    4  A    between atoms: C_4  and  C_6
REMARK    5  A    between atoms: C_6  and  N_7
REMARK    6  A    between atoms: C_11  and  C_12
REMARK    7  A    between atoms: C_12  and  C_13
REMARK                            x       y       z     vdW  Elec       q    Type
REMARK                         _______ _______ _______ _____ _____    ______ ____
ROOT
ATOM      1  N   UNL     1       5.950   5.575  16.258  0.00  0.00    +0.000 N 
ATOM      2  C   UNL     1       6.922   6.233  16.951  0.00  0.00    +0.000 C 
ATOM      3  O   UNL     1       7.769   6.978  16.485  0.00  0.00    +0.000 OA
ATOM      4  S   UNL     1       6.823   5.861  18.647  0.00  0.00    +0.000 S 
ATOM      5  C   UNL     1       5.279   4.906  18.465  0.00  0.00    +0.000 C 
ATOM      6  C   UNL     1       5.009   4.877  16.970  0.00  0.00    +0.000 C 
ATOM      7  O   UNL     1       4.053   4.295  16.470  0.00  0.00    +0.000 OA
ENDROOT
BRANCH   1   8
ATOM      8  C   UNL     1       5.840   5.738  14.821  0.00  0.00    +0.000 C 
BRANCH   8   9
ATOM      9  C   UNL     1       6.880   4.877  14.129  0.00  0.00    +0.000 C 
ATOM     10  O   UNL     1       8.031   5.216  13.881  0.00  0.00    +0.000 OA
BRANCH   9  11
ATOM     11  O   UNL     1       6.292   3.711  13.731  0.00  0.00    +0.000 OA
BRANCH  11  13
ATOM     12  C   UNL     1       4.929   3.096  11.878  0.00  0.00    +0.000 C 
ATOM     13  C   UNL     1       6.337   3.455  12.321  0.00  0.00    +0.000 C 
ENDBRANCH  11  13
ENDBRANCH   9  11
ENDBRANCH   8   9
ENDBRANCH   1   8
BRANCH   5  14
ATOM     14  C   UNL     1       4.099   5.531  19.217  0.00  0.00    +0.000 C 
BRANCH  14  15
ATOM     15  C   UNL     1       3.251   4.543  19.992  0.00  0.00    +0.000 A 
ATOM     16  C   UNL     1       1.911   4.846  20.286  0.00  0.00    +0.000 A 
ATOM     17  C   UNL     1       1.131   3.960  21.032  0.00  0.00    +0.000 A 
ATOM     18  C   UNL     1       1.687   2.769  21.481  0.00  0.00    +0.000 A 
ATOM     19  F   UNL     1       0.943   1.926  22.208  0.00  0.00    +0.000 F 
ATOM     20  C   UNL     1       3.005   2.441  21.186  0.00  0.00    +0.000 A 
ATOM     21  C   UNL     1       3.786   3.324  20.437  0.00  0.00    +0.000 A 
ENDBRANCH  14  15
ENDBRANCH   5  14
TORSDOF 6
ENDMDL
MODEL 5
REMARK VINA RESULT:      -7.0      2.548      4.391
REMARK  Name = 
REMARK  7 active torsions:
REMARK  status: ('A' for Active; 'I' for Inactive)
REMARK    1  A    between atoms: C_1  and  C_2
REMARK    2  A    between atoms: C_2  and  O_3
REMARK    3  A    between atoms: O_3  and  C_4
REMARK    4  A    between atoms: C_4  and  C_6
REMARK    5  A    between atoms: C_6  and  N_7
REMARK    6  A    between atoms: C_11  and  C_12
REMARK    7  A    between atoms: C_12  and  C_13
REMARK                            x       y       z     vdW  Elec       q    Type
REMARK                         _______ _______ _______ _____ _____    ______ ____
ROOT
ATOM      1  N   UNL     1       6.698   5.530  16.035  0.00  0.00    +0.000 N 
ATOM      2  C   UNL     1       5.599   6.334  16.104  0.00  0.00    +0.000 C 
ATOM      3  O   UNL     1       4.983   6.805  15.160  0.00  0.00    +0.000 OA
ATOM      4  S   UNL     1       5.163   6.637  17.760  0.00  0.00    +0.000 S 
ATOM      5  C   UNL     1       6.411   5.480  18.419  0.00  0.00    +0.000 C 
ATOM      6  C   UNL     1       7.180   4.995  17.202  0.00  0.00    +0.000 C 
ATOM      7  O   UNL     1       8.122   4.214  17.268  0.00  0.00    +0.000 OA
ENDROOT
BRANCH   1   8
ATOM      8  C   UNL     1       7.240   5.142  14.747  0.00  0.00    +0.000 C 
BRANCH   8   9
ATOM      9  C   UNL     1       6.419   4.004  14.170  0.00  0.00    +0.000 C 
ATOM     10  O   UNL     1       5.826   3.155  14.825  0.00  0.00    +0.000 OA
BRANCH   9  11
ATOM     11  O   UNL     1       6.541   4.017  12.812  0.00  0.00    +0.000 OA
BRANCH  11  13
ATOM     12  C   UNL     1       4.576   3.357  11.639  0.00  0.00    +0.000 C 
ATOM     13  C   UNL     1       5.940   2.906  12.133  0.00  0.00    +0.000 C 
ENDBRANCH  11  13
ENDBRANCH   9  11
ENDBRANCH   8   9
ENDBRANCH   1   8
BRANCH   5  14
ATOM     14  C   UNL     1       5.789   4.299  19.172  0.00  0.00    +0.000 C 
BRANCH  14  15
ATOM     15  C   UNL     1       4.327   4.051  18.857  0.00  0.00    +0.000 A 
ATOM     16  C   UNL     1       3.330   4.534  19.722  0.00  0.00    +0.000 A 
ATOM     17  C   UNL     1       1.983   4.279  19.462  0.00  0.00    +0.000 A 
ATOM     18  C   UNL     1       1.628   3.547  18.336  0.00  0.00    +0.000 A 
ATOM     19  F   UNL     1       0.336   3.291  18.094  0.00  0.00    +0.000 F 
ATOM     20  C   UNL     1       2.596   3.076  17.457  0.00  0.00    +0.000 A 
ATOM     21  C   UNL     1       3.945   3.333  17.713  0.00  0.00    +0.000 A 
ENDBRANCH  14  15
ENDBRANCH   5  14
TORSDOF 6
ENDMDL
MODEL 6
REMARK VINA RESULT:      -6.9      0.939      1.154
REMARK  Name = 
REMARK  7 active torsions:
REMARK  status: ('A' for Active; 'I' for Inactive)
REMARK    1  A    between atoms: C_1  and  C_2
REMARK    2  A    between atoms: C_2  and  O_3
REMARK    3  A    between atoms: O_3  and  C_4
REMARK    4  A    between atoms: C_4  and  C_6
REMARK    5  A    between atoms: C_6  and  N_7
REMARK    6  A    between atoms: C_11  and  C_12
REMARK    7  A    between atoms: C_12  and  C_13
REMARK                            x       y       z     vdW  Elec       q    Type
REMARK                         _______ _______ _______ _____ _____    ______ ____
ROOT
ATOM      1  N   UNL     1       6.638   5.748  17.483  0.00  0.00    +0.000 N 
ATOM      2  C   UNL     1       6.725   5.439  16.158  0.00  0.00    +0.000 C 
ATOM      3  O   UNL     1       7.683   5.638  15.427  0.00  0.00    +0.000 OA
ATOM      4  S   UNL     1       5.247   4.714  15.599  0.00  0.00    +0.000 S 
ATOM      5  C   UNL     1       4.514   4.646  17.269  0.00  0.00    +0.000 C 
ATOM      6  C   UNL     1       5.525   5.336  18.170  0.00  0.00    +0.000 C 
ATOM      7  O   UNL     1       5.353   5.499  19.373  0.00  0.00    +0.000 OA
ENDROOT
BRANCH   1   8
ATOM      8  C   UNL     1       7.760   6.364  18.166  0.00  0.00    +0.000 C 
BRANCH   8   9
ATOM      9  C   UNL     1       7.749   7.860  17.917  0.00  0.00    +0.000 C 
ATOM     10  O   UNL     1       6.985   8.448  17.162  0.00  0.00    +0.000 OA
BRANCH   9  11
ATOM     11  O   UNL     1       8.797   8.425  18.583  0.00  0.00    +0.000 OA
BRANCH  11  13
ATOM     12  C   UNL     1       9.671  10.596  18.139  0.00  0.00    +0.000 C 
ATOM     13  C   UNL     1       8.633   9.809  18.921  0.00  0.00    +0.000 C 
ENDBRANCH  11  13
ENDBRANCH   9  11
ENDBRANCH   8   9
ENDBRANCH   1   8
BRANCH   5  14
ATOM     14  C   UNL     1       4.253   3.213  17.747  0.00  0.00    +0.000 C 
BRANCH  14  15
ATOM     15  C   UNL     1       3.311   3.107  18.929  0.00  0.00    +0.000 A 
ATOM     16  C   UNL     1       3.778   2.607  20.156  0.00  0.00    +0.000 A 
ATOM     17  C   UNL     1       2.911   2.468  21.241  0.00  0.00    +0.000 A 
ATOM     18  C   UNL     1       1.577   2.832  21.104  0.00  0.00    +0.000 A 
ATOM     19  F   UNL     1       0.742   2.686  22.141  0.00  0.00    +0.000 F 
ATOM     20  C   UNL     1       1.098   3.347  19.905  0.00  0.00    +0.000 A 
ATOM     21  C   UNL     1       1.965   3.490  18.819  0.00  0.00    +0.000 A 
ENDBRANCH  14  15
ENDBRANCH   5  14
TORSDOF 6
ENDMDL
MODEL 7
REMARK VINA RESULT:      -6.9      2.659      3.222
REMARK  Name = 
REMARK  7 active torsions:
REMARK  status: ('A' for Active; 'I' for Inactive)
REMARK    1  A    between atoms: C_1  and  C_2
REMARK    2  A    between atoms: C_2  and  O_3
REMARK    3  A    between atoms: O_3  and  C_4
REMARK    4  A    between atoms: C_4  and  C_6
REMARK    5  A    between atoms: C_6  and  N_7
REMARK    6  A    between atoms: C_11  and  C_12
REMARK    7  A    between atoms: C_12  and  C_13
REMARK                            x       y       z     vdW  Elec       q    Type
REMARK                         _______ _______ _______ _____ _____    ______ ____
ROOT
ATOM      1  N   UNL     1       6.195   4.660  17.728  0.00  0.00    +0.000 N 
ATOM      2  C   UNL     1       6.078   4.474  19.074  0.00  0.00    +0.000 C 
ATOM      3  O   UNL     1       6.816   4.925  19.936  0.00  0.00    +0.000 OA
ATOM      4  S   UNL     1       4.709   3.466  19.437  0.00  0.00    +0.000 S 
ATOM      5  C   UNL     1       4.135   3.424  17.705  0.00  0.00    +0.000 C 
ATOM      6  C   UNL     1       5.197   4.178  16.921  0.00  0.00    +0.000 C 
ATOM      7  O   UNL     1       5.154   4.331  15.705  0.00  0.00    +0.000 OA
ENDROOT
BRANCH   1   8
ATOM      8  C   UNL     1       7.270   5.474  17.193  0.00  0.00    +0.000 C 
BRANCH   8   9
ATOM      9  C   UNL     1       6.857   6.934  17.203  0.00  0.00    +0.000 C 
ATOM     10  O   UNL     1       5.999   7.433  16.486  0.00  0.00    +0.000 OA
BRANCH   9  11
ATOM     11  O   UNL     1       7.672   7.616  18.058  0.00  0.00    +0.000 OA
BRANCH  11  13
ATOM     12  C   UNL     1       8.870   9.557  18.743  0.00  0.00    +0.000 C 
ATOM     13  C   UNL     1       7.975   8.963  17.670  0.00  0.00    +0.000 C 
ENDBRANCH  11  13
ENDBRANCH   9  11
ENDBRANCH   8   9
ENDBRANCH   1   8
BRANCH   5  14
ATOM     14  C   UNL     1       2.760   4.074  17.517  0.00  0.00    +0.000 C 
BRANCH  14  15
ATOM     15  C   UNL     1       2.490   5.251  18.434  0.00  0.00    +0.000 A 
ATOM     16  C   UNL     1       1.912   5.038  19.697  0.00  0.00    +0.000 A 
ATOM     17  C   UNL     1       1.622   6.117  20.534  0.00  0.00    +0.000 A 
ATOM     18  C   UNL     1       1.915   7.409  20.114  0.00  0.00    +0.000 A 
ATOM     19  F   UNL     1       1.625   8.444  20.912  0.00  0.00    +0.000 F 
ATOM     20  C   UNL     1       2.504   7.640  18.877  0.00  0.00    +0.000 A 
ATOM     21  C   UNL     1       2.797   6.562  18.039  0.00  0.00    +0.000 A 
ENDBRANCH  14  15
ENDBRANCH   5  14
TORSDOF 6
ENDMDL
MODEL 8
REMARK VINA RESULT:      -6.9      2.403      4.474
REMARK  Name = 
REMARK  7 active torsions:
REMARK  status: ('A' for Active; 'I' for Inactive)
REMARK    1  A    between atoms: C_1  and  C_2
REMARK    2  A    between atoms: C_2  and  O_3
REMARK    3  A    between atoms: O_3  and  C_4
REMARK    4  A    between atoms: C_4  and  C_6
REMARK    5  A    between atoms: C_6  and  N_7
REMARK    6  A    between atoms: C_11  and  C_12
REMARK    7  A    between atoms: C_12  and  C_13
REMARK                            x       y       z     vdW  Elec       q    Type
REMARK                         _______ _______ _______ _____ _____    ______ ____
ROOT
ATOM      1  N   UNL     1       6.626   5.238  15.878  0.00  0.00    +0.000 N 
ATOM      2  C   UNL     1       5.784   6.309  15.848  0.00  0.00    +0.000 C 
ATOM      3  O   UNL     1       5.014   6.602  14.947  0.00  0.00    +0.000 OA
ATOM      4  S   UNL     1       5.950   7.262  17.293  0.00  0.00    +0.000 S 
ATOM      5  C   UNL     1       7.085   6.072  18.084  0.00  0.00    +0.000 C 
ATOM      6  C   UNL     1       7.330   5.003  17.032  0.00  0.00    +0.000 C 
ATOM      7  O   UNL     1       8.072   4.043  17.208  0.00  0.00    +0.000 OA
ENDROOT
BRANCH   1   8
ATOM      8  C   UNL     1       6.657   4.300  14.773  0.00  0.00    +0.000 C 
BRANCH   8   9
ATOM      9  C   UNL     1       7.446   4.895  13.622  0.00  0.00    +0.000 C 
ATOM     10  O   UNL     1       8.314   5.753  13.726  0.00  0.00    +0.000 OA
BRANCH   9  11
ATOM     11  O   UNL     1       6.955   4.401  12.449  0.00  0.00    +0.000 OA
BRANCH  11  13
ATOM     12  C   UNL     1       4.869   3.453  11.798  0.00  0.00    +0.000 C 
ATOM     13  C   UNL     1       6.154   3.218  12.571  0.00  0.00    +0.000 C 
ENDBRANCH  11  13
ENDBRANCH   9  11
ENDBRANCH   8   9
ENDBRANCH   1   8
BRANCH   5  14
ATOM     14  C   UNL     1       6.505   5.453  19.360  0.00  0.00    +0.000 C 
BRANCH  14  15
ATOM     15  C   UNL     1       5.102   4.899  19.210  0.00  0.00    +0.000 A 
ATOM     16  C   UNL     1       3.992   5.720  19.470  0.00  0.00    +0.000 A 
ATOM     17  C   UNL     1       2.696   5.210  19.372  0.00  0.00    +0.000 A 
ATOM     18  C   UNL     1       2.507   3.882  19.009  0.00  0.00    +0.000 A 
ATOM     19  F   UNL     1       1.265   3.389  18.928  0.00  0.00    +0.000 F 
ATOM     20  C   UNL     1       3.591   3.058  18.729  0.00  0.00    +0.000 A 
ATOM     21  C   UNL     1       4.888   3.567  18.823  0.00  0.00    +0.000 A 
ENDBRANCH  14  15
ENDBRANCH   5  14
TORSDOF 6
ENDMDL
MODEL 9
REMARK VINA RESULT:      -6.9      2.404      4.427
REMARK  Name = 
REMARK  7 active torsions:
REMARK  status: ('A' for Active; 'I' for Inactive)
REMARK    1  A    between atoms: C_1  and  C_2
REMARK    2  A    between atoms: C_2  and  O_3
REMARK    3  A    between atoms: O_3  and  C_4
REMARK    4  A    between atoms: C_4  and  C_6
REMARK    5  A    between atoms: C_6  and  N_7
REMARK    6  A    between atoms: C_11  and  C_12
REMARK    7  A    between atoms: C_12  and  C_13
REMARK                            x       y       z     vdW  Elec       q    Type
REMARK                         _______ _______ _______ _____ _____    ______ ____
ROOT
ATOM      1  N   UNL     1       6.624   5.077  15.885  0.00  0.00    +0.000 N 
ATOM      2  C   UNL     1       5.645   6.020  15.777  0.00  0.00    +0.000 C 
ATOM      3  O   UNL     1       4.898   6.186  14.825  0.00  0.00    +0.000 OA
ATOM      4  S   UNL     1       5.589   7.013  17.204  0.00  0.00    +0.000 S 
ATOM      5  C   UNL     1       6.827   6.008  18.091  0.00  0.00    +0.000 C 
ATOM      6  C   UNL     1       7.280   4.964  17.084  0.00  0.00    +0.000 C 
ATOM      7  O   UNL     1       8.136   4.120  17.328  0.00  0.00    +0.000 OA
ENDROOT
BRANCH   1   8
ATOM      8  C   UNL     1       6.851   4.132  14.808  0.00  0.00    +0.000 C 
BRANCH   8   9
ATOM      9  C   UNL     1       7.459   4.852  13.619  0.00  0.00    +0.000 C 
ATOM     10  O   UNL     1       8.288   5.751  13.683  0.00  0.00    +0.000 OA
BRANCH   9  11
ATOM     11  O   UNL     1       6.851   4.412  12.480  0.00  0.00    +0.000 OA
BRANCH  11  13
ATOM     12  C   UNL     1       4.810   3.444  11.726  0.00  0.00    +0.000 C 
ATOM     13  C   UNL     1       6.008   3.263  12.642  0.00  0.00    +0.000 C 
ENDBRANCH  11  13
ENDBRANCH   9  11
ENDBRANCH   8   9
ENDBRANCH   1   8
BRANCH   5  14
ATOM     14  C   UNL     1       6.260   5.338  19.347  0.00  0.00    +0.000 C 
BRANCH  14  15
ATOM     15  C   UNL     1       4.839   4.831  19.204  0.00  0.00    +0.000 A 
ATOM     16  C   UNL     1       4.593   3.596  18.582  0.00  0.00    +0.000 A 
ATOM     17  C   UNL     1       3.286   3.137  18.409  0.00  0.00    +0.000 A 
ATOM     18  C   UNL     1       2.223   3.908  18.863  0.00  0.00    +0.000 A 
ATOM     19  F   UNL     1       0.969   3.474  18.686  0.00  0.00    +0.000 F 
ATOM     20  C   UNL     1       2.444   5.124  19.498  0.00  0.00    +0.000 A 
ATOM     21  C   UNL     1       3.752   5.584  19.674  0.00  0.00    +0.000 A 
ENDBRANCH  14  15
ENDBRANCH   5  14
TORSDOF 6
ENDMDL
