MODEL 1
REMARK VINA RESULT:      -8.0      0.000      0.000
REMARK  Name = 
REMARK  14 active torsions:
REMARK  status: ('A' for Active; 'I' for Inactive)
REMARK    1  A    between atoms: N_1  and  CA_2
REMARK    2  A    between atoms: CA_2  and  C_3
REMARK    3  A    between atoms: CA_2  and  C_34
REMARK    4  A    between atoms: C_3  and  C_4
REMARK    5  A    between atoms: C_4  and  N_5
REMARK    6  A    between atoms: N_5  and  C_6
REMARK    7  A    between atoms: N_5  and  C_20
REMARK    8  A    between atoms: C_6  and  C_7
REMARK    9  A    between atoms: C_12  and  O_13
REMARK   10  A    between atoms: O_13  and  C_14
REMARK   11  A    between atoms: C_20  and  C_21
REMARK   12  A    between atoms: C_26  and  O_27
REMARK   13  A    between atoms: O_27  and  C_28
REMARK   14  A    between atoms: C_34  and  OXT_36
REMARK                            x       y       z     vdW  Elec       q    Type
REMARK                         _______ _______ _______ _____ _____    ______ ____
ROOT
ATOM      1  N   UNL     1       2.937   7.101  18.278  0.00  0.00    +0.000 NA
ENDROOT
BRANCH   1   2
ATOM      2  C   UNL     1       2.127   5.889  17.983  0.00  0.00    +0.000 C 
BRANCH   2   3
ATOM      3  C   UNL     1       2.022   4.872  19.130  0.00  0.00    +0.000 C 
BRANCH   3   4
ATOM      4  CA  UNL     1       1.408   3.518  18.728  0.00  0.00    +0.000 C 
BRANCH   4   5
ATOM      5  N   UNL     1       0.567   2.894  19.790  0.00  0.00    +0.000 NA
ATOM      6  H1  UNL     1      -0.409   3.131  19.600  0.00  0.00    +0.000 HD
ATOM      7  H2  UNL     1       0.773   3.347  20.687  0.00  0.00    +0.000 HD
ENDBRANCH   4   5
BRANCH   4   8
ATOM      8  C   UNL     1       2.444   2.483  18.247  0.00  0.00    +0.000 C 
ATOM      9  O   UNL     1       3.381   2.699  17.503  0.00  0.00    +0.000 OA
BRANCH   8  10
ATOM     10  OXT UNL     1       2.137   1.244  18.730  0.00  0.00    +0.000 OA
ATOM     11  HXT UNL     1       1.456   0.868  18.121  0.00  0.00    +0.000 HD
ENDBRANCH   8  10
ENDBRANCH   4   8
ENDBRANCH   3   4
ENDBRANCH   2   3
ENDBRANCH   1   2
BRANCH   1  12
ATOM     12  C   UNL     1       4.082   7.226  17.325  0.00  0.00    +0.000 C 
BRANCH  12  13
ATOM     13  C   UNL     1       5.244   6.275  17.576  0.00  0.00    +0.000 A 
ATOM     14  C   UNL     1       5.480   5.836  18.893  0.00  0.00    +0.000 A 
ATOM     15  C   UNL     1       6.587   5.042  19.208  0.00  0.00    +0.000 A 
ATOM     16  C   UNL     1       7.481   4.668  18.211  0.00  0.00    +0.000 A 
ATOM     17  C   UNL     1       7.229   5.032  16.890  0.00  0.00    +0.000 A 
ATOM     18  C   UNL     1       6.097   5.793  16.562  0.00  0.00    +0.000 A 
BRANCH  18  19
ATOM     19  O   UNL     1       5.996   6.112  15.226  0.00  0.00    +0.000 OA
BRANCH  19  20
ATOM     20  C   UNL     1       6.199   5.114  14.275  0.00  0.00    +0.000 A 
ATOM     21  C   UNL     1       7.353   5.255  13.519  0.00  0.00    +0.000 A 
ATOM     22  C   UNL     1       7.526   4.426  12.415  0.00  0.00    +0.000 A 
ATOM     23  C   UNL     1       6.557   3.472  12.125  0.00  0.00    +0.000 A 
ATOM     24  C   UNL     1       5.470   3.360  12.977  0.00  0.00    +0.000 A 
ATOM     25  N   UNL     1       5.267   4.160  14.045  0.00  0.00    +0.000 NA
ENDBRANCH  19  20
ENDBRANCH  18  19
ENDBRANCH  12  13
ENDBRANCH   1  12
BRANCH   1  26
ATOM     26  C   UNL     1       2.056   8.298  18.118  0.00  0.00    +0.000 C 
BRANCH  26  27
ATOM     27  C   UNL     1       1.419   8.822  19.396  0.00  0.00    +0.000 A 
ATOM     28  C   UNL     1       1.676   8.102  20.584  0.00  0.00    +0.000 A 
ATOM     29  C   UNL     1       1.120   8.483  21.808  0.00  0.00    +0.000 A 
ATOM     30  C   UNL     1       0.306   9.604  21.880  0.00  0.00    +0.000 A 
ATOM     31  C   UNL     1       0.052  10.342  20.727  0.00  0.00    +0.000 A 
ATOM     32  C   UNL     1       0.606   9.972  19.488  0.00  0.00    +0.000 A 
BRANCH  32  33
ATOM     33  O   UNL     1       0.110  10.729  18.450  0.00  0.00    +0.000 OA
BRANCH  33  34
ATOM     34  C   UNL     1      -1.241  10.736  18.156  0.00  0.00    +0.000 A 
ATOM     35  C   UNL     1      -1.644   9.768  17.247  0.00  0.00    +0.000 A 
ATOM     36  C   UNL     1      -2.952   9.802  16.784  0.00  0.00    +0.000 A 
ATOM     37  C   UNL     1      -3.812  10.786  17.263  0.00  0.00    +0.000 A 
ATOM     38  C   UNL     1      -3.331  11.680  18.210  0.00  0.00    +0.000 A 
ATOM     39  N   UNL     1      -2.064  11.671  18.680  0.00  0.00    +0.000 NA
ENDBRANCH  33  34
ENDBRANCH  32  33
ENDBRANCH  26  27
ENDBRANCH   1  26
TORSDOF 14
ENDMDL
MODEL 2
REMARK VINA RESULT:      -7.9      2.737      8.943
REMARK  Name = 
REMARK  14 active torsions:
REMARK  status: ('A' for Active; 'I' for Inactive)
REMARK    1  A    between atoms: N_1  and  CA_2
REMARK    2  A    between atoms: CA_2  and  C_3
REMARK    3  A    between atoms: CA_2  and  C_34
REMARK    4  A    between atoms: C_3  and  C_4
REMARK    5  A    between atoms: C_4  and  N_5
REMARK    6  A    between atoms: N_5  and  C_6
REMARK    7  A    between atoms: N_5  and  C_20
REMARK    8  A    between atoms: C_6  and  C_7
REMARK    9  A    between atoms: C_12  and  O_13
REMARK   10  A    between atoms: O_13  and  C_14
REMARK   11  A    between atoms: C_20  and  C_21
REMARK   12  A    between atoms: C_26  and  O_27
REMARK   13  A    between atoms: O_27  and  C_28
REMARK   14  A    between atoms: C_34  and  OXT_36
REMARK                            x       y       z     vdW  Elec       q    Type
REMARK                         _______ _______ _______ _____ _____    ______ ____
ROOT
ATOM      1  N   UNL     1       1.308   8.285  19.491  0.00  0.00    +0.000 NA
ENDROOT
BRANCH   1   2
ATOM      2  C   UNL     1       1.267   9.238  20.631  0.00  0.00    +0.000 C 
BRANCH   2   3
ATOM      3  C   UNL     1       0.013   9.155  21.515  0.00  0.00    +0.000 C 
BRANCH   3   4
ATOM      4  CA  UNL     1      -0.031  10.182  22.660  0.00  0.00    +0.000 C 
BRANCH   4   5
ATOM      5  N   UNL     1       0.106   9.583  24.019  0.00  0.00    +0.000 NA
ATOM      6  H1  UNL     1      -0.808   9.219  24.297  0.00  0.00    +0.000 HD
ATOM      7  H2  UNL     1       0.304  10.330  24.693  0.00  0.00    +0.000 HD
ENDBRANCH   4   5
BRANCH   4   8
ATOM      8  C   UNL     1      -1.281  11.084  22.642  0.00  0.00    +0.000 C 
ATOM      9  O   UNL     1      -2.081  11.218  23.548  0.00  0.00    +0.000 OA
BRANCH   8  10
ATOM     10  OXT UNL     1      -1.414  11.688  21.425  0.00  0.00    +0.000 OA
ATOM     11  HXT UNL     1      -0.829  12.483  21.443  0.00  0.00    +0.000 HD
ENDBRANCH   8  10
ENDBRANCH   4   8
ENDBRANCH   3   4
ENDBRANCH   2   3
ENDBRANCH   1   2
BRANCH   1  12
ATOM     12  C   UNL     1       1.421   9.010  18.188  0.00  0.00    +0.000 C 
BRANCH  12  13
ATOM     13  C   UNL     1       1.274  10.523  18.271  0.00  0.00    +0.000 A 
ATOM     14  C   UNL     1       2.426  11.318  18.120  0.00  0.00    +0.000 A 
ATOM     15  C   UNL     1       2.378  12.706  18.282  0.00  0.00    +0.000 A 
ATOM     16  C   UNL     1       1.175  13.329  18.597  0.00  0.00    +0.000 A 
ATOM     17  C   UNL     1       0.011  12.569  18.682  0.00  0.00    +0.000 A 
ATOM     18  C   UNL     1       0.045  11.181  18.478  0.00  0.00    +0.000 A 
BRANCH  18  19
ATOM     19  O   UNL     1      -1.172  10.556  18.631  0.00  0.00    +0.000 OA
BRANCH  19  20
ATOM     20  C   UNL     1      -2.183  10.807  17.705  0.00  0.00    +0.000 A 
ATOM     21  C   UNL     1      -3.309  11.428  18.225  0.00  0.00    +0.000 A 
ATOM     22  C   UNL     1      -4.441  11.526  17.422  0.00  0.00    +0.000 A 
ATOM     23  C   UNL     1      -4.397  11.028  16.125  0.00  0.00    +0.000 A 
ATOM     24  C   UNL     1      -3.206  10.485  15.670  0.00  0.00    +0.000 A 
ATOM     25  N   UNL     1      -2.098  10.362  16.431  0.00  0.00    +0.000 NA
ENDBRANCH  19  20
ENDBRANCH  18  19
ENDBRANCH  12  13
ENDBRANCH   1  12
BRANCH   1  26
ATOM     26  C   UNL     1       2.514   7.417  19.655  0.00  0.00    +0.000 C 
BRANCH  26  27
ATOM     27  C   UNL     1       2.272   5.921  19.523  0.00  0.00    +0.000 A 
ATOM     28  C   UNL     1       1.417   5.323  20.474  0.00  0.00    +0.000 A 
ATOM     29  C   UNL     1       1.147   3.951  20.459  0.00  0.00    +0.000 A 
ATOM     30  C   UNL     1       1.713   3.145  19.482  0.00  0.00    +0.000 A 
ATOM     31  C   UNL     1       2.545   3.713  18.522  0.00  0.00    +0.000 A 
ATOM     32  C   UNL     1       2.824   5.092  18.523  0.00  0.00    +0.000 A 
BRANCH  32  33
ATOM     33  O   UNL     1       3.786   5.428  17.597  0.00  0.00    +0.000 OA
BRANCH  33  34
ATOM     34  C   UNL     1       5.062   5.783  17.994  0.00  0.00    +0.000 A 
ATOM     35  C   UNL     1       5.689   6.713  17.177  0.00  0.00    +0.000 A 
ATOM     36  C   UNL     1       7.024   7.010  17.419  0.00  0.00    +0.000 A 
ATOM     37  C   UNL     1       7.673   6.383  18.477  0.00  0.00    +0.000 A 
ATOM     38  C   UNL     1       6.948   5.504  19.270  0.00  0.00    +0.000 A 
ATOM     39  N   UNL     1       5.649   5.197  19.061  0.00  0.00    +0.000 NA
ENDBRANCH  33  34
ENDBRANCH  32  33
ENDBRANCH  26  27
ENDBRANCH   1  26
TORSDOF 14
ENDMDL
MODEL 3
REMARK VINA RESULT:      -7.8      1.088      1.362
REMARK  Name = 
REMARK  14 active torsions:
REMARK  status: ('A' for Active; 'I' for Inactive)
REMARK    1  A    between atoms: N_1  and  CA_2
REMARK    2  A    between atoms: CA_2  and  C_3
REMARK    3  A    between atoms: CA_2  and  C_34
REMARK    4  A    between atoms: C_3  and  C_4
REMARK    5  A    between atoms: C_4  and  N_5
REMARK    6  A    between atoms: N_5  and  C_6
REMARK    7  A    between atoms: N_5  and  C_20
REMARK    8  A    between atoms: C_6  and  C_7
REMARK    9  A    between atoms: C_12  and  O_13
REMARK   10  A    between atoms: O_13  and  C_14
REMARK   11  A    between atoms: C_20  and  C_21
REMARK   12  A    between atoms: C_26  and  O_27
REMARK   13  A    between atoms: O_27  and  C_28
REMARK   14  A    between atoms: C_34  and  OXT_36
REMARK                            x       y       z     vdW  Elec       q    Type
REMARK                         _______ _______ _______ _____ _____    ______ ____
ROOT
ATOM      1  N   UNL     1       3.301   7.024  18.643  0.00  0.00    +0.000 NA
ENDROOT
BRANCH   1   2
ATOM      2  C   UNL     1       2.811   5.707  19.131  0.00  0.00    +0.000 C 
BRANCH   2   3
ATOM      3  C   UNL     1       2.066   4.855  18.091  0.00  0.00    +0.000 C 
BRANCH   3   4
ATOM      4  CA  UNL     1       2.158   3.337  18.327  0.00  0.00    +0.000 C 
BRANCH   4   5
ATOM      5  N   UNL     1       2.341   2.539  17.080  0.00  0.00    +0.000 NA
ATOM      6  H1  UNL     1       1.435   2.140  16.824  0.00  0.00    +0.000 HD
ATOM      7  H2  UNL     1       2.931   1.727  17.289  0.00  0.00    +0.000 HD
ENDBRANCH   4   5
BRANCH   4   8
ATOM      8  C   UNL     1       0.967   2.755  19.114  0.00  0.00    +0.000 C 
ATOM      9  O   UNL     1       0.675   3.013  20.266  0.00  0.00    +0.000 OA
BRANCH   8  10
ATOM     10  OXT UNL     1       0.293   1.845  18.353  0.00  0.00    +0.000 OA
ATOM     11  HXT UNL     1      -0.006   2.324  17.543  0.00  0.00    +0.000 HD
ENDBRANCH   8  10
ENDBRANCH   4   8
ENDBRANCH   3   4
ENDBRANCH   2   3
ENDBRANCH   1   2
BRANCH   1  12
ATOM     12  C   UNL     1       4.122   6.865  17.404  0.00  0.00    +0.000 C 
BRANCH  12  13
ATOM     13  C   UNL     1       5.383   6.026  17.562  0.00  0.00    +0.000 A 
ATOM     14  C   UNL     1       6.203   6.252  18.685  0.00  0.00    +0.000 A 
ATOM     15  C   UNL     1       7.423   5.587  18.840  0.00  0.00    +0.000 A 
ATOM     16  C   UNL     1       7.848   4.679  17.876  0.00  0.00    +0.000 A 
ATOM     17  C   UNL     1       7.021   4.389  16.793  0.00  0.00    +0.000 A 
ATOM     18  C   UNL     1       5.776   5.022  16.654  0.00  0.00    +0.000 A 
BRANCH  18  19
ATOM     19  O   UNL     1       5.084   4.667  15.519  0.00  0.00    +0.000 OA
BRANCH  19  20
ATOM     20  C   UNL     1       5.766   4.594  14.305  0.00  0.00    +0.000 A 
ATOM     21  C   UNL     1       5.276   3.648  13.417  0.00  0.00    +0.000 A 
ATOM     22  C   UNL     1       6.019   3.366  12.275  0.00  0.00    +0.000 A 
ATOM     23  C   UNL     1       7.205   4.056  12.050  0.00  0.00    +0.000 A 
ATOM     24  C   UNL     1       7.580   5.032  12.960  0.00  0.00    +0.000 A 
ATOM     25  N   UNL     1       6.888   5.316  14.084  0.00  0.00    +0.000 NA
ENDBRANCH  19  20
ENDBRANCH  18  19
ENDBRANCH  12  13
ENDBRANCH   1  12
BRANCH   1  26
ATOM     26  C   UNL     1       2.113   7.869  18.317  0.00  0.00    +0.000 C 
BRANCH  26  27
ATOM     27  C   UNL     1       1.479   8.596  19.493  0.00  0.00    +0.000 A 
ATOM     28  C   UNL     1       1.689   8.045  20.777  0.00  0.00    +0.000 A 
ATOM     29  C   UNL     1       1.131   8.620  21.922  0.00  0.00    +0.000 A 
ATOM     30  C   UNL     1       0.362   9.770  21.816  0.00  0.00    +0.000 A 
ATOM     31  C   UNL     1       0.155  10.343  20.565  0.00  0.00    +0.000 A 
ATOM     32  C   UNL     1       0.712   9.777  19.403  0.00  0.00    +0.000 A 
BRANCH  32  33
ATOM     33  O   UNL     1       0.262  10.396  18.258  0.00  0.00    +0.000 OA
BRANCH  33  34
ATOM     34  C   UNL     1      -1.091  10.551  18.017  0.00  0.00    +0.000 A 
ATOM     35  C   UNL     1      -1.619   9.681  17.074  0.00  0.00    +0.000 A 
ATOM     36  C   UNL     1      -2.932   9.869  16.666  0.00  0.00    +0.000 A 
ATOM     37  C   UNL     1      -3.672  10.904  17.228  0.00  0.00    +0.000 A 
ATOM     38  C   UNL     1      -3.072  11.692  18.202  0.00  0.00    +0.000 A 
ATOM     39  N   UNL     1      -1.798  11.532  18.621  0.00  0.00    +0.000 NA
ENDBRANCH  33  34
ENDBRANCH  32  33
ENDBRANCH  26  27
ENDBRANCH   1  26
TORSDOF 14
ENDMDL
MODEL 4
REMARK VINA RESULT:      -7.8      0.920      1.226
REMARK  Name = 
REMARK  14 active torsions:
REMARK  status: ('A' for Active; 'I' for Inactive)
REMARK    1  A    between atoms: N_1  and  CA_2
REMARK    2  A    between atoms: CA_2  and  C_3
REMARK    3  A    between atoms: CA_2  and  C_34
REMARK    4  A    between atoms: C_3  and  C_4
REMARK    5  A    between atoms: C_4  and  N_5
REMARK    6  A    between atoms: N_5  and  C_6
REMARK    7  A    between atoms: N_5  and  C_20
REMARK    8  A    between atoms: C_6  and  C_7
REMARK    9  A    between atoms: C_12  and  O_13
REMARK   10  A    between atoms: O_13  and  C_14
REMARK   11  A    between atoms: C_20  and  C_21
REMARK   12  A    between atoms: C_26  and  O_27
REMARK   13  A    between atoms: O_27  and  C_28
REMARK   14  A    between atoms: C_34  and  OXT_36
REMARK                            x       y       z     vdW  Elec       q    Type
REMARK                         _______ _______ _______ _____ _____    ______ ____
ROOT
ATOM      1  N   UNL     1       2.956   6.968  18.145  0.00  0.00    +0.000 NA
ENDROOT
BRANCH   1   2
ATOM      2  C   UNL     1       2.065   5.815  17.846  0.00  0.00    +0.000 C 
BRANCH   2   3
ATOM      3  C   UNL     1       1.782   4.877  19.029  0.00  0.00    +0.000 C 
BRANCH   3   4
ATOM      4  CA  UNL     1       2.576   3.558  19.002  0.00  0.00    +0.000 C 
BRANCH   4   5
ATOM      5  N   UNL     1       3.028   3.150  17.641  0.00  0.00    +0.000 NA
ATOM      6  H1  UNL     1       2.293   2.575  17.223  0.00  0.00    +0.000 HD
ATOM      7  H2  UNL     1       3.831   2.518  17.732  0.00  0.00    +0.000 HD
ENDBRANCH   4   5
BRANCH   4   8
ATOM      8  C   UNL     1       1.837   2.372  19.653  0.00  0.00    +0.000 C 
ATOM      9  O   UNL     1       1.613   2.231  20.840  0.00  0.00    +0.000 OA
BRANCH   8  10
ATOM     10  OXT UNL     1       1.503   1.444  18.708  0.00  0.00    +0.000 OA
ATOM     11  HXT UNL     1       1.354   1.942  17.869  0.00  0.00    +0.000 HD
ENDBRANCH   8  10
ENDBRANCH   4   8
ENDBRANCH   3   4
ENDBRANCH   2   3
ENDBRANCH   1   2
BRANCH   1  12
ATOM     12  C   UNL     1       4.099   7.027  17.184  0.00  0.00    +0.000 C 
BRANCH  12  13
ATOM     13  C   UNL     1       5.314   6.191  17.564  0.00  0.00    +0.000 A 
ATOM     14  C   UNL     1       5.441   5.762  18.899  0.00  0.00    +0.000 A 
ATOM     15  C   UNL     1       6.578   5.076  19.338  0.00  0.00    +0.000 A 
ATOM     16  C   UNL     1       7.612   4.804  18.448  0.00  0.00    +0.000 A 
ATOM     17  C   UNL     1       7.476   5.158  17.108  0.00  0.00    +0.000 A 
ATOM     18  C   UNL     1       6.319   5.808  16.653  0.00  0.00    +0.000 A 
BRANCH  18  19
ATOM     19  O   UNL     1       6.339   6.131  15.315  0.00  0.00    +0.000 OA
BRANCH  19  20
ATOM     20  C   UNL     1       6.319   5.106  14.371  0.00  0.00    +0.000 A 
ATOM     21  C   UNL     1       7.377   5.119  13.474  0.00  0.00    +0.000 A 
ATOM     22  C   UNL     1       7.324   4.264  12.377  0.00  0.00    +0.000 A 
ATOM     23  C   UNL     1       6.236   3.411  12.234  0.00  0.00    +0.000 A 
ATOM     24  C   UNL     1       5.259   3.422  13.217  0.00  0.00    +0.000 A 
ATOM     25  N   UNL     1       5.275   4.251  14.282  0.00  0.00    +0.000 NA
ENDBRANCH  19  20
ENDBRANCH  18  19
ENDBRANCH  12  13
ENDBRANCH   1  12
BRANCH   1  26
ATOM     26  C   UNL     1       2.156   8.222  18.005  0.00  0.00    +0.000 C 
BRANCH  26  27
ATOM     27  C   UNL     1       1.514   8.740  19.283  0.00  0.00    +0.000 A 
ATOM     28  C   UNL     1       1.744   7.998  20.463  0.00  0.00    +0.000 A 
ATOM     29  C   UNL     1       1.181   8.373  21.687  0.00  0.00    +0.000 A 
ATOM     30  C   UNL     1       0.388   9.508  21.766  0.00  0.00    +0.000 A 
ATOM     31  C   UNL     1       0.161  10.266  20.621  0.00  0.00    +0.000 A 
ATOM     32  C   UNL     1       0.722   9.903  19.383  0.00  0.00    +0.000 A 
BRANCH  32  33
ATOM     33  O   UNL     1       0.252  10.685  18.351  0.00  0.00    +0.000 OA
BRANCH  33  34
ATOM     34  C   UNL     1      -1.088  10.683  18.009  0.00  0.00    +0.000 A 
ATOM     35  C   UNL     1      -1.821  11.743  18.523  0.00  0.00    +0.000 A 
ATOM     36  C   UNL     1      -3.199  11.735  18.354  0.00  0.00    +0.000 A 
ATOM     37  C   UNL     1      -3.787  10.681  17.661  0.00  0.00    +0.000 A 
ATOM     38  C   UNL     1      -2.964   9.692  17.141  0.00  0.00    +0.000 A 
ATOM     39  N   UNL     1      -1.622   9.673  17.288  0.00  0.00    +0.000 NA
ENDBRANCH  33  34
ENDBRANCH  32  33
ENDBRANCH  26  27
ENDBRANCH   1  26
TORSDOF 14
ENDMDL
MODEL 5
REMARK VINA RESULT:      -7.7      2.000      2.586
REMARK  Name = 
REMARK  14 active torsions:
REMARK  status: ('A' for Active; 'I' for Inactive)
REMARK    1  A    between atoms: N_1  and  CA_2
REMARK    2  A    between atoms: CA_2  and  C_3
REMARK    3  A    between atoms: CA_2  and  C_34
REMARK    4  A    between atoms: C_3  and  C_4
REMARK    5  A    between atoms: C_4  and  N_5
REMARK    6  A    between atoms: N_5  and  C_6
REMARK    7  A    between atoms: N_5  and  C_20
REMARK    8  A    between atoms: C_6  and  C_7
REMARK    9  A    between atoms: C_12  and  O_13
REMARK   10  A    between atoms: O_13  and  C_14
REMARK   11  A    between atoms: C_20  and  C_21
REMARK   12  A    between atoms: C_26  and  O_27
REMARK   13  A    between atoms: O_27  and  C_28
REMARK   14  A    between atoms: C_34  and  OXT_36
REMARK                            x       y       z     vdW  Elec       q    Type
REMARK                         _______ _______ _______ _____ _____    ______ ____
ROOT
ATOM      1  N   UNL     1       3.287   6.903  18.457  0.00  0.00    +0.000 NA
ENDROOT
BRANCH   1   2
ATOM      2  C   UNL     1       2.656   5.561  18.567  0.00  0.00    +0.000 C 
BRANCH   2   3
ATOM      3  C   UNL     1       3.085   4.730  19.787  0.00  0.00    +0.000 C 
BRANCH   3   4
ATOM      4  CA  UNL     1       2.589   3.272  19.772  0.00  0.00    +0.000 C 
BRANCH   4   5
ATOM      5  N   UNL     1       2.042   2.831  18.457  0.00  0.00    +0.000 NA
ATOM      6  H1  UNL     1       1.462   3.586  18.086  0.00  0.00    +0.000 HD
ATOM      7  H2  UNL     1       1.390   2.054  18.611  0.00  0.00    +0.000 HD
ENDBRANCH   4   5
BRANCH   4   8
ATOM      8  C   UNL     1       1.554   2.955  20.869  0.00  0.00    +0.000 C 
ATOM      9  O   UNL     1       1.798   2.551  21.990  0.00  0.00    +0.000 OA
BRANCH   8  10
ATOM     10  OXT UNL     1       0.287   3.134  20.393  0.00  0.00    +0.000 OA
ATOM     11  HXT UNL     1      -0.323   2.778  21.082  0.00  0.00    +0.000 HD
ENDBRANCH   8  10
ENDBRANCH   4   8
ENDBRANCH   3   4
ENDBRANCH   2   3
ENDBRANCH   1   2
BRANCH   1  12
ATOM     12  C   UNL     1       4.279   6.940  17.340  0.00  0.00    +0.000 C 
BRANCH  12  13
ATOM     13  C   UNL     1       5.507   6.061  17.531  0.00  0.00    +0.000 A 
ATOM     14  C   UNL     1       6.332   6.294  18.648  0.00  0.00    +0.000 A 
ATOM     15  C   UNL     1       7.526   5.590  18.830  0.00  0.00    +0.000 A 
ATOM     16  C   UNL     1       7.920   4.636  17.899  0.00  0.00    +0.000 A 
ATOM     17  C   UNL     1       7.086   4.340  16.824  0.00  0.00    +0.000 A 
ATOM     18  C   UNL     1       5.866   5.013  16.659  0.00  0.00    +0.000 A 
BRANCH  18  19
ATOM     19  O   UNL     1       5.164   4.646  15.533  0.00  0.00    +0.000 OA
BRANCH  19  20
ATOM     20  C   UNL     1       5.828   4.591  14.309  0.00  0.00    +0.000 A 
ATOM     21  C   UNL     1       5.309   3.677  13.403  0.00  0.00    +0.000 A 
ATOM     22  C   UNL     1       6.031   3.410  12.245  0.00  0.00    +0.000 A 
ATOM     23  C   UNL     1       7.227   4.083  12.021  0.00  0.00    +0.000 A 
ATOM     24  C   UNL     1       7.633   5.028  12.951  0.00  0.00    +0.000 A 
ATOM     25  N   UNL     1       6.961   5.297  14.091  0.00  0.00    +0.000 NA
ENDBRANCH  19  20
ENDBRANCH  18  19
ENDBRANCH  12  13
ENDBRANCH   1  12
BRANCH   1  26
ATOM     26  C   UNL     1       2.211   7.898  18.167  0.00  0.00    +0.000 C 
BRANCH  26  27
ATOM     27  C   UNL     1       1.645   8.628  19.376  0.00  0.00    +0.000 A 
ATOM     28  C   UNL     1       1.622   7.922  20.599  0.00  0.00    +0.000 A 
ATOM     29  C   UNL     1       1.101   8.491  21.765  0.00  0.00    +0.000 A 
ATOM     30  C   UNL     1       0.604   9.786  21.742  0.00  0.00    +0.000 A 
ATOM     31  C   UNL     1       0.631  10.509  20.553  0.00  0.00    +0.000 A 
ATOM     32  C   UNL     1       1.154   9.951  19.372  0.00  0.00    +0.000 A 
BRANCH  32  33
ATOM     33  O   UNL     1       0.946  10.762  18.278  0.00  0.00    +0.000 OA
BRANCH  33  34
ATOM     34  C   UNL     1       1.117  12.131  18.364  0.00  0.00    +0.000 A 
ATOM     35  C   UNL     1       2.435  12.559  18.294  0.00  0.00    +0.000 A 
ATOM     36  C   UNL     1       2.705  13.902  18.523  0.00  0.00    +0.000 A 
ATOM     37  C   UNL     1       1.649  14.766  18.791  0.00  0.00    +0.000 A 
ATOM     38  C   UNL     1       0.358  14.253  18.789  0.00  0.00    +0.000 A 
ATOM     39  N   UNL     1       0.065  12.954  18.569  0.00  0.00    +0.000 NA
ENDBRANCH  33  34
ENDBRANCH  32  33
ENDBRANCH  26  27
ENDBRANCH   1  26
TORSDOF 14
ENDMDL
MODEL 6
REMARK VINA RESULT:      -7.6      1.648      2.110
REMARK  Name = 
REMARK  14 active torsions:
REMARK  status: ('A' for Active; 'I' for Inactive)
REMARK    1  A    between atoms: N_1  and  CA_2
REMARK    2  A    between atoms: CA_2  and  C_3
REMARK    3  A    between atoms: CA_2  and  C_34
REMARK    4  A    between atoms: C_3  and  C_4
REMARK    5  A    between atoms: C_4  and  N_5
REMARK    6  A    between atoms: N_5  and  C_6
REMARK    7  A    between atoms: N_5  and  C_20
REMARK    8  A    between atoms: C_6  and  C_7
REMARK    9  A    between atoms: C_12  and  O_13
REMARK   10  A    between atoms: O_13  and  C_14
REMARK   11  A    between atoms: C_20  and  C_21
REMARK   12  A    between atoms: C_26  and  O_27
REMARK   13  A    between atoms: O_27  and  C_28
REMARK   14  A    between atoms: C_34  and  OXT_36
REMARK                            x       y       z     vdW  Elec       q    Type
REMARK                         _______ _______ _______ _____ _____    ______ ____
ROOT
ATOM      1  N   UNL     1       3.035   4.907  18.175  0.00  0.00    +0.000 NA
ENDROOT
BRANCH   1   2
ATOM      2  C   UNL     1       1.819   4.128  17.818  0.00  0.00    +0.000 C 
BRANCH   2   3
ATOM      3  C   UNL     1       1.823   2.658  18.267  0.00  0.00    +0.000 C 
BRANCH   3   4
ATOM      4  CA  UNL     1       1.514   2.446  19.760  0.00  0.00    +0.000 C 
BRANCH   4   5
ATOM      5  N   UNL     1       0.394   3.287  20.274  0.00  0.00    +0.000 NA
ATOM      6  H1  UNL     1      -0.349   3.287  19.572  0.00  0.00    +0.000 HD
ATOM      7  H2  UNL     1       0.706   4.263  20.321  0.00  0.00    +0.000 HD
ENDBRANCH   4   5
BRANCH   4   8
ATOM      8  C   UNL     1       2.735   2.635  20.682  0.00  0.00    +0.000 C 
ATOM      9  O   UNL     1       3.896   2.423  20.387  0.00  0.00    +0.000 OA
BRANCH   8  10
ATOM     10  OXT UNL     1       2.335   3.028  21.927  0.00  0.00    +0.000 OA
ATOM     11  HXT UNL     1       2.388   2.228  22.503  0.00  0.00    +0.000 HD
ENDBRANCH   8  10
ENDBRANCH   4   8
ENDBRANCH   3   4
ENDBRANCH   2   3
ENDBRANCH   1   2
BRANCH   1  12
ATOM     12  C   UNL     1       4.179   4.554  17.281  0.00  0.00    +0.000 C 
BRANCH  12  13
ATOM     13  C   UNL     1       5.513   5.190  17.649  0.00  0.00    +0.000 A 
ATOM     14  C   UNL     1       6.006   5.005  18.955  0.00  0.00    +0.000 A 
ATOM     15  C   UNL     1       7.174   5.641  19.388  0.00  0.00    +0.000 A 
ATOM     16  C   UNL     1       7.874   6.475  18.523  0.00  0.00    +0.000 A 
ATOM     17  C   UNL     1       7.441   6.618  17.207  0.00  0.00    +0.000 A 
ATOM     18  C   UNL     1       6.295   5.948  16.754  0.00  0.00    +0.000 A 
BRANCH  18  19
ATOM     19  O   UNL     1       5.965   6.212  15.444  0.00  0.00    +0.000 OA
BRANCH  19  20
ATOM     20  C   UNL     1       6.271   5.268  14.466  0.00  0.00    +0.000 A 
ATOM     21  C   UNL     1       7.469   5.483  13.800  0.00  0.00    +0.000 A 
ATOM     22  C   UNL     1       7.749   4.714  12.675  0.00  0.00    +0.000 A 
ATOM     23  C   UNL     1       6.838   3.743  12.274  0.00  0.00    +0.000 A 
ATOM     24  C   UNL     1       5.699   3.554  13.041  0.00  0.00    +0.000 A 
ATOM     25  N   UNL     1       5.393   4.295  14.127  0.00  0.00    +0.000 NA
ENDBRANCH  19  20
ENDBRANCH  18  19
ENDBRANCH  12  13
ENDBRANCH   1  12
BRANCH   1  26
ATOM     26  C   UNL     1       2.724   6.358  17.996  0.00  0.00    +0.000 C 
BRANCH  26  27
ATOM     27  C   UNL     1       2.137   7.060  19.211  0.00  0.00    +0.000 A 
ATOM     28  C   UNL     1       1.958   6.283  20.378  0.00  0.00    +0.000 A 
ATOM     29  C   UNL     1       1.403   6.824  21.541  0.00  0.00    +0.000 A 
ATOM     30  C   UNL     1       1.028   8.159  21.574  0.00  0.00    +0.000 A 
ATOM     31  C   UNL     1       1.210   8.950  20.444  0.00  0.00    +0.000 A 
ATOM     32  C   UNL     1       1.769   8.421  19.266  0.00  0.00    +0.000 A 
BRANCH  32  33
ATOM     33  O   UNL     1       1.718   9.316  18.220  0.00  0.00    +0.000 OA
BRANCH  33  34
ATOM     34  C   UNL     1       1.062  10.526  18.349  0.00  0.00    +0.000 A 
ATOM     35  C   UNL     1      -0.320  10.451  18.259  0.00  0.00    +0.000 A 
ATOM     36  C   UNL     1      -1.044  11.636  18.228  0.00  0.00    +0.000 A 
ATOM     37  C   UNL     1      -0.362  12.845  18.309  0.00  0.00    +0.000 A 
ATOM     38  C   UNL     1       1.019  12.817  18.448  0.00  0.00    +0.000 A 
ATOM     39  N   UNL     1       1.750  11.681  18.483  0.00  0.00    +0.000 NA
ENDBRANCH  33  34
ENDBRANCH  32  33
ENDBRANCH  26  27
ENDBRANCH   1  26
TORSDOF 14
ENDMDL
MODEL 7
REMARK VINA RESULT:      -7.6      0.792      1.041
REMARK  Name = 
REMARK  14 active torsions:
REMARK  status: ('A' for Active; 'I' for Inactive)
REMARK    1  A    between atoms: N_1  and  CA_2
REMARK    2  A    between atoms: CA_2  and  C_3
REMARK    3  A    between atoms: CA_2  and  C_34
REMARK    4  A    between atoms: C_3  and  C_4
REMARK    5  A    between atoms: C_4  and  N_5
REMARK    6  A    between atoms: N_5  and  C_6
REMARK    7  A    between atoms: N_5  and  C_20
REMARK    8  A    between atoms: C_6  and  C_7
REMARK    9  A    between atoms: C_12  and  O_13
REMARK   10  A    between atoms: O_13  and  C_14
REMARK   11  A    between atoms: C_20  and  C_21
REMARK   12  A    between atoms: C_26  and  O_27
REMARK   13  A    between atoms: O_27  and  C_28
REMARK   14  A    between atoms: C_34  and  OXT_36
REMARK                            x       y       z     vdW  Elec       q    Type
REMARK                         _______ _______ _______ _____ _____    ______ ____
ROOT
ATOM      1  N   UNL     1       2.831   6.920  18.538  0.00  0.00    +0.000 NA
ENDROOT
BRANCH   1   2
ATOM      2  C   UNL     1       1.822   5.828  18.589  0.00  0.00    +0.000 C 
BRANCH   2   3
ATOM      3  C   UNL     1       1.983   4.836  19.752  0.00  0.00    +0.000 C 
BRANCH   3   4
ATOM      4  CA  UNL     1       1.020   3.636  19.705  0.00  0.00    +0.000 C 
BRANCH   4   5
ATOM      5  N   UNL     1       0.861   2.934  21.011  0.00  0.00    +0.000 NA
ATOM      6  H1  UNL     1       0.027   2.346  20.955  0.00  0.00    +0.000 HD
ATOM      7  H2  UNL     1       0.643   3.625  21.736  0.00  0.00    +0.000 HD
ENDBRANCH   4   5
BRANCH   4   8
ATOM      8  C   UNL     1       1.374   2.595  18.625  0.00  0.00    +0.000 C 
ATOM      9  O   UNL     1       2.445   2.485  18.058  0.00  0.00    +0.000 OA
BRANCH   8  10
ATOM     10  OXT UNL     1       0.287   1.822  18.334  0.00  0.00    +0.000 OA
ATOM     11  HXT UNL     1       0.636   0.940  18.062  0.00  0.00    +0.000 HD
ENDBRANCH   8  10
ENDBRANCH   4   8
ENDBRANCH   3   4
ENDBRANCH   2   3
ENDBRANCH   1   2
BRANCH   1  12
ATOM     12  C   UNL     1       3.797   6.706  17.417  0.00  0.00    +0.000 C 
BRANCH  12  13
ATOM     13  C   UNL     1       5.155   6.151  17.825  0.00  0.00    +0.000 A 
ATOM     14  C   UNL     1       5.309   5.647  19.131  0.00  0.00    +0.000 A 
ATOM     15  C   UNL     1       6.552   5.214  19.601  0.00  0.00    +0.000 A 
ATOM     16  C   UNL     1       7.668   5.274  18.774  0.00  0.00    +0.000 A 
ATOM     17  C   UNL     1       7.525   5.704  17.457  0.00  0.00    +0.000 A 
ATOM     18  C   UNL     1       6.271   6.099  16.966  0.00  0.00    +0.000 A 
BRANCH  18  19
ATOM     19  O   UNL     1       6.286   6.535  15.660  0.00  0.00    +0.000 OA
BRANCH  19  20
ATOM     20  C   UNL     1       6.312   5.594  14.633  0.00  0.00    +0.000 A 
ATOM     21  C   UNL     1       5.249   4.703  14.630  0.00  0.00    +0.000 A 
ATOM     22  C   UNL     1       5.305   3.609  13.772  0.00  0.00    +0.000 A 
ATOM     23  C   UNL     1       6.403   3.463  12.931  0.00  0.00    +0.000 A 
ATOM     24  C   UNL     1       7.385   4.441  12.956  0.00  0.00    +0.000 A 
ATOM     25  N   UNL     1       7.365   5.503  13.789  0.00  0.00    +0.000 NA
ENDBRANCH  19  20
ENDBRANCH  18  19
ENDBRANCH  12  13
ENDBRANCH   1  12
BRANCH   1  26
ATOM     26  C   UNL     1       2.110   8.207  18.301  0.00  0.00    +0.000 C 
BRANCH  26  27
ATOM     27  C   UNL     1       1.439   8.820  19.522  0.00  0.00    +0.000 A 
ATOM     28  C   UNL     1       1.688   8.204  20.768  0.00  0.00    +0.000 A 
ATOM     29  C   UNL     1       1.102   8.671  21.948  0.00  0.00    +0.000 A 
ATOM     30  C   UNL     1       0.266   9.778  21.915  0.00  0.00    +0.000 A 
ATOM     31  C   UNL     1       0.019  10.414  20.702  0.00  0.00    +0.000 A 
ATOM     32  C   UNL     1       0.603   9.956  19.507  0.00  0.00    +0.000 A 
BRANCH  32  33
ATOM     33  O   UNL     1       0.112  10.617  18.402  0.00  0.00    +0.000 OA
BRANCH  33  34
ATOM     34  C   UNL     1      -1.245  10.648  18.137  0.00  0.00    +0.000 A 
ATOM     35  C   UNL     1      -1.669   9.753  17.165  0.00  0.00    +0.000 A 
ATOM     36  C   UNL     1      -2.986   9.824  16.733  0.00  0.00    +0.000 A 
ATOM     37  C   UNL     1      -3.833  10.771  17.301  0.00  0.00    +0.000 A 
ATOM     38  C   UNL     1      -3.329  11.589  18.303  0.00  0.00    +0.000 A 
ATOM     39  N   UNL     1      -2.054  11.543  18.745  0.00  0.00    +0.000 NA
ENDBRANCH  33  34
ENDBRANCH  32  33
ENDBRANCH  26  27
ENDBRANCH   1  26
TORSDOF 14
ENDMDL
MODEL 8
REMARK VINA RESULT:      -7.6      1.094      1.319
REMARK  Name = 
REMARK  14 active torsions:
REMARK  status: ('A' for Active; 'I' for Inactive)
REMARK    1  A    between atoms: N_1  and  CA_2
REMARK    2  A    between atoms: CA_2  and  C_3
REMARK    3  A    between atoms: CA_2  and  C_34
REMARK    4  A    between atoms: C_3  and  C_4
REMARK    5  A    between atoms: C_4  and  N_5
REMARK    6  A    between atoms: N_5  and  C_6
REMARK    7  A    between atoms: N_5  and  C_20
REMARK    8  A    between atoms: C_6  and  C_7
REMARK    9  A    between atoms: C_12  and  O_13
REMARK   10  A    between atoms: O_13  and  C_14
REMARK   11  A    between atoms: C_20  and  C_21
REMARK   12  A    between atoms: C_26  and  O_27
REMARK   13  A    between atoms: O_27  and  C_28
REMARK   14  A    between atoms: C_34  and  OXT_36
REMARK                            x       y       z     vdW  Elec       q    Type
REMARK                         _______ _______ _______ _____ _____    ______ ____
ROOT
ATOM      1  N   UNL     1       3.164   6.996  18.133  0.00  0.00    +0.000 NA
ENDROOT
BRANCH   1   2
ATOM      2  C   UNL     1       2.237   5.849  17.941  0.00  0.00    +0.000 C 
BRANCH   2   3
ATOM      3  C   UNL     1       2.507   4.627  18.834  0.00  0.00    +0.000 C 
BRANCH   3   4
ATOM      4  CA  UNL     1       3.185   3.448  18.114  0.00  0.00    +0.000 C 
BRANCH   4   5
ATOM      5  N   UNL     1       2.523   3.056  16.836  0.00  0.00    +0.000 NA
ATOM      6  H1  UNL     1       2.492   2.035  16.796  0.00  0.00    +0.000 HD
ATOM      7  H2  UNL     1       3.127   3.328  16.052  0.00  0.00    +0.000 HD
ENDBRANCH   4   5
BRANCH   4   8
ATOM      8  C   UNL     1       3.345   2.191  18.992  0.00  0.00    +0.000 C 
ATOM      9  O   UNL     1       3.654   1.081  18.604  0.00  0.00    +0.000 OA
BRANCH   8  10
ATOM     10  OXT UNL     1       3.033   2.474  20.290  0.00  0.00    +0.000 OA
ATOM     11  HXT UNL     1       3.838   2.267  20.822  0.00  0.00    +0.000 HD
ENDBRANCH   8  10
ENDBRANCH   4   8
ENDBRANCH   3   4
ENDBRANCH   2   3
ENDBRANCH   1   2
BRANCH   1  12
ATOM     12  C   UNL     1       4.228   7.007  17.082  0.00  0.00    +0.000 C 
BRANCH  12  13
ATOM     13  C   UNL     1       5.429   6.114  17.362  0.00  0.00    +0.000 A 
ATOM     14  C   UNL     1       6.211   6.380  18.502  0.00  0.00    +0.000 A 
ATOM     15  C   UNL     1       7.382   5.662  18.764  0.00  0.00    +0.000 A 
ATOM     16  C   UNL     1       7.794   4.661  17.891  0.00  0.00    +0.000 A 
ATOM     17  C   UNL     1       6.999   4.335  16.795  0.00  0.00    +0.000 A 
ATOM     18  C   UNL     1       5.801   5.023  16.550  0.00  0.00    +0.000 A 
BRANCH  18  19
ATOM     19  O   UNL     1       5.139   4.622  15.412  0.00  0.00    +0.000 OA
BRANCH  19  20
ATOM     20  C   UNL     1       5.877   4.330  14.267  0.00  0.00    +0.000 A 
ATOM     21  C   UNL     1       7.001   5.121  14.080  0.00  0.00    +0.000 A 
ATOM     22  C   UNL     1       7.674   5.038  12.865  0.00  0.00    +0.000 A 
ATOM     23  C   UNL     1       7.217   4.151  11.896  0.00  0.00    +0.000 A 
ATOM     24  C   UNL     1       6.125   3.353  12.199  0.00  0.00    +0.000 A 
ATOM     25  N   UNL     1       5.444   3.423  13.362  0.00  0.00    +0.000 NA
ENDBRANCH  19  20
ENDBRANCH  18  19
ENDBRANCH  12  13
ENDBRANCH   1  12
BRANCH   1  26
ATOM     26  C   UNL     1       2.372   8.257  18.017  0.00  0.00    +0.000 C 
BRANCH  26  27
ATOM     27  C   UNL     1       1.608   8.672  19.266  0.00  0.00    +0.000 A 
ATOM     28  C   UNL     1       1.809   7.895  20.429  0.00  0.00    +0.000 A 
ATOM     29  C   UNL     1       1.138   8.175  21.622  0.00  0.00    +0.000 A 
ATOM     30  C   UNL     1       0.261   9.248  21.690  0.00  0.00    +0.000 A 
ATOM     31  C   UNL     1       0.060  10.040  20.563  0.00  0.00    +0.000 A 
ATOM     32  C   UNL     1       0.730   9.773  19.355  0.00  0.00    +0.000 A 
BRANCH  32  33
ATOM     33  O   UNL     1       0.278  10.566  18.324  0.00  0.00    +0.000 OA
BRANCH  33  34
ATOM     34  C   UNL     1      -1.067  10.624  18.008  0.00  0.00    +0.000 A 
ATOM     35  C   UNL     1      -1.748  11.702  18.554  0.00  0.00    +0.000 A 
ATOM     36  C   UNL     1      -3.128  11.751  18.410  0.00  0.00    +0.000 A 
ATOM     37  C   UNL     1      -3.770  10.736  17.710  0.00  0.00    +0.000 A 
ATOM     38  C   UNL     1      -2.997   9.725  17.155  0.00  0.00    +0.000 A 
ATOM     39  N   UNL     1      -1.654   9.650  17.277  0.00  0.00    +0.000 NA
ENDBRANCH  33  34
ENDBRANCH  32  33
ENDBRANCH  26  27
ENDBRANCH   1  26
TORSDOF 14
ENDMDL
MODEL 9
REMARK VINA RESULT:      -7.6      1.194      1.605
REMARK  Name = 
REMARK  14 active torsions:
REMARK  status: ('A' for Active; 'I' for Inactive)
REMARK    1  A    between atoms: N_1  and  CA_2
REMARK    2  A    between atoms: CA_2  and  C_3
REMARK    3  A    between atoms: CA_2  and  C_34
REMARK    4  A    between atoms: C_3  and  C_4
REMARK    5  A    between atoms: C_4  and  N_5
REMARK    6  A    between atoms: N_5  and  C_6
REMARK    7  A    between atoms: N_5  and  C_20
REMARK    8  A    between atoms: C_6  and  C_7
REMARK    9  A    between atoms: C_12  and  O_13
REMARK   10  A    between atoms: O_13  and  C_14
REMARK   11  A    between atoms: C_20  and  C_21
REMARK   12  A    between atoms: C_26  and  O_27
REMARK   13  A    between atoms: O_27  and  C_28
REMARK   14  A    between atoms: C_34  and  OXT_36
REMARK                            x       y       z     vdW  Elec       q    Type
REMARK                         _______ _______ _______ _____ _____    ______ ____
ROOT
ATOM      1  N   UNL     1       3.006   6.713  18.461  0.00  0.00    +0.000 NA
ENDROOT
BRANCH   1   2
ATOM      2  C   UNL     1       2.029   5.632  18.758  0.00  0.00    +0.000 C 
BRANCH   2   3
ATOM      3  C   UNL     1       2.091   4.414  17.823  0.00  0.00    +0.000 C 
BRANCH   3   4
ATOM      4  CA  UNL     1       2.621   3.129  18.484  0.00  0.00    +0.000 C 
BRANCH   4   5
ATOM      5  N   UNL     1       2.416   1.897  17.669  0.00  0.00    +0.000 NA
ATOM      6  H1  UNL     1       1.452   1.901  17.328  0.00  0.00    +0.000 HD
ATOM      7  H2  UNL     1       2.470   1.078  18.284  0.00  0.00    +0.000 HD
ENDBRANCH   4   5
BRANCH   4   8
ATOM      8  C   UNL     1       2.065   2.881  19.900  0.00  0.00    +0.000 C 
ATOM      9  O   UNL     1       0.890   2.822  20.208  0.00  0.00    +0.000 OA
BRANCH   8  10
ATOM     10  OXT UNL     1       3.085   2.789  20.803  0.00  0.00    +0.000 OA
ATOM     11  HXT UNL     1       3.675   2.065  20.484  0.00  0.00    +0.000 HD
ENDBRANCH   8  10
ENDBRANCH   4   8
ENDBRANCH   3   4
ENDBRANCH   2   3
ENDBRANCH   1   2
BRANCH   1  12
ATOM     12  C   UNL     1       3.805   6.394  17.238  0.00  0.00    +0.000 C 
BRANCH  12  13
ATOM     13  C   UNL     1       5.164   5.758  17.496  0.00  0.00    +0.000 A 
ATOM     14  C   UNL     1       5.866   6.124  18.661  0.00  0.00    +0.000 A 
ATOM     15  C   UNL     1       7.159   5.653  18.909  0.00  0.00    +0.000 A 
ATOM     16  C   UNL     1       7.777   4.804  17.997  0.00  0.00    +0.000 A 
ATOM     17  C   UNL     1       7.075   4.375  16.874  0.00  0.00    +0.000 A 
ATOM     18  C   UNL     1       5.761   4.809  16.641  0.00  0.00    +0.000 A 
BRANCH  18  19
ATOM     19  O   UNL     1       5.205   4.335  15.475  0.00  0.00    +0.000 OA
BRANCH  19  20
ATOM     20  C   UNL     1       5.923   4.454  14.286  0.00  0.00    +0.000 A 
ATOM     21  C   UNL     1       5.568   3.547  13.298  0.00  0.00    +0.000 A 
ATOM     22  C   UNL     1       6.369   3.458  12.163  0.00  0.00    +0.000 A 
ATOM     23  C   UNL     1       7.473   4.294  12.046  0.00  0.00    +0.000 A 
ATOM     24  C   UNL     1       7.710   5.215  13.054  0.00  0.00    +0.000 A 
ATOM     25  N   UNL     1       6.961   5.313  14.173  0.00  0.00    +0.000 NA
ENDBRANCH  19  20
ENDBRANCH  18  19
ENDBRANCH  12  13
ENDBRANCH   1  12
BRANCH   1  26
ATOM     26  C   UNL     1       2.242   7.973  18.211  0.00  0.00    +0.000 C 
BRANCH  26  27
ATOM     27  C   UNL     1       1.594   8.604  19.434  0.00  0.00    +0.000 A 
ATOM     28  C   UNL     1       1.762   7.935  20.667  0.00  0.00    +0.000 A 
ATOM     29  C   UNL     1       1.188   8.415  21.847  0.00  0.00    +0.000 A 
ATOM     30  C   UNL     1       0.444   9.587  21.828  0.00  0.00    +0.000 A 
ATOM     31  C   UNL     1       0.279  10.275  20.630  0.00  0.00    +0.000 A 
ATOM     32  C   UNL     1       0.853   9.805  19.435  0.00  0.00    +0.000 A 
BRANCH  32  33
ATOM     33  O   UNL     1       0.443  10.534  18.340  0.00  0.00    +0.000 OA
BRANCH  33  34
ATOM     34  C   UNL     1      -0.893  10.609  17.995  0.00  0.00    +0.000 A 
ATOM     35  C   UNL     1      -1.561  11.721  18.489  0.00  0.00    +0.000 A 
ATOM     36  C   UNL     1      -2.936  11.796  18.315  0.00  0.00    +0.000 A 
ATOM     37  C   UNL     1      -3.587  10.769  17.639  0.00  0.00    +0.000 A 
ATOM     38  C   UNL     1      -2.826   9.722  17.137  0.00  0.00    +0.000 A 
ATOM     39  N   UNL     1      -1.488   9.623  17.288  0.00  0.00    +0.000 NA
ENDBRANCH  33  34
ENDBRANCH  32  33
ENDBRANCH  26  27
ENDBRANCH   1  26
TORSDOF 14
ENDMDL
