MODEL 1
REMARK VINA RESULT:      -8.2      0.000      0.000
REMARK  Name = 
REMARK  7 active torsions:
REMARK  status: ('A' for Active; 'I' for Inactive)
REMARK    1  A    between atoms: C_1  and  O_2
REMARK    2  A    between atoms: O_2  and  C_3
REMARK    3  A    between atoms: C_6  and  C_7
REMARK    4  A    between atoms: N_9  and  C_10
REMARK    5  A    between atoms: N_14  and  C_15
REMARK    6  A    between atoms: N_18  and  C_19
REMARK    7  A    between atoms: C_19  and  C_20
REMARK                            x       y       z     vdW  Elec       q    Type
REMARK                         _______ _______ _______ _____ _____    ______ ____
ROOT
ATOM      1  C   UNL     1       1.704   4.351  20.616  0.00  0.00    +0.000 A 
ATOM      2  C   UNL     1       2.145   3.940  21.860  0.00  0.00    +0.000 A 
ATOM      3  C   UNL     1       2.382   2.566  21.748  0.00  0.00    +0.000 A 
ATOM      4  N   UNL     1       2.086   2.112  20.537  0.00  0.00    +0.000 NA
ATOM      5  N   UNL     1       1.695   3.200  19.838  0.00  0.00    +0.000 N 
ENDROOT
BRANCH   5   6
ATOM      6  C   UNL     1       1.430   3.037  18.408  0.00  0.00    +0.000 C 
ATOM      7  C   UNL     1       2.252   1.922  17.746  0.00  0.00    +0.000 C 
ATOM      8  C   UNL     1       3.728   2.293  17.551  0.00  0.00    +0.000 C 
ATOM      9  N   UNL     1       3.939   3.583  16.873  0.00  0.00    +0.000 NA
ATOM     10  C   UNL     1       3.125   4.678  17.429  0.00  0.00    +0.000 C 
ATOM     11  C   UNL     1       1.644   4.329  17.609  0.00  0.00    +0.000 C 
BRANCH   9  12
ATOM     12  C   UNL     1       5.370   3.978  16.977  0.00  0.00    +0.000 C 
BRANCH  12  13
ATOM     13  C   UNL     1       6.038   4.296  15.663  0.00  0.00    +0.000 A 
ATOM     14  C   UNL     1       5.647   3.680  14.469  0.00  0.00    +0.000 A 
ATOM     15  C   UNL     1       6.328   3.965  13.289  0.00  0.00    +0.000 A 
ATOM     16  C   UNL     1       7.383   4.860  13.341  0.00  0.00    +0.000 A 
ATOM     17  N   UNL     1       7.788   5.479  14.471  0.00  0.00    +0.000 NA
ATOM     18  C   UNL     1       7.107   5.184  15.603  0.00  0.00    +0.000 A 
ENDBRANCH  12  13
ENDBRANCH   9  12
ENDBRANCH   5   6
BRANCH   1  21
ATOM     19  C   UNL     1       2.330   6.673  19.958  0.00  0.00    +0.000 C 
ATOM     20  O   UNL     1       3.525   6.418  19.922  0.00  0.00    +0.000 OA
ATOM     21  N   UNL     1       1.345   5.655  20.257  0.00  0.00    +0.000 N 
ATOM     22  H   UNL     1       0.365   5.873  20.138  0.00  0.00    +0.000 HD
BRANCH  19  26
ATOM     23  C   UNL     1       0.932  10.617  19.041  0.00  0.00    +0.000 A 
ATOM     24  C   UNL     1       0.695  10.044  20.290  0.00  0.00    +0.000 A 
ATOM     25  C   UNL     1       1.146   8.754  20.572  0.00  0.00    +0.000 A 
ATOM     26  C   UNL     1       1.843   8.024  19.599  0.00  0.00    +0.000 A 
ATOM     27  C   UNL     1       2.031   8.570  18.327  0.00  0.00    +0.000 A 
ATOM     28  C   UNL     1       1.578   9.867  18.053  0.00  0.00    +0.000 A 
BRANCH  23  30
ATOM     29  C   UNL     1      -0.950  12.045  19.163  0.00  0.00    +0.000 C 
ATOM     30  O   UNL     1       0.435  11.877  18.873  0.00  0.00    +0.000 OA
ENDBRANCH  23  30
ENDBRANCH  19  26
ENDBRANCH   1  21
TORSDOF 6
ENDMDL
MODEL 2
REMARK VINA RESULT:      -8.0      0.609      1.121
REMARK  Name = 
REMARK  7 active torsions:
REMARK  status: ('A' for Active; 'I' for Inactive)
REMARK    1  A    between atoms: C_1  and  O_2
REMARK    2  A    between atoms: O_2  and  C_3
REMARK    3  A    between atoms: C_6  and  C_7
REMARK    4  A    between atoms: N_9  and  C_10
REMARK    5  A    between atoms: N_14  and  C_15
REMARK    6  A    between atoms: N_18  and  C_19
REMARK    7  A    between atoms: C_19  and  C_20
REMARK                            x       y       z     vdW  Elec       q    Type
REMARK                         _______ _______ _______ _____ _____    ______ ____
ROOT
ATOM      1  C   UNL     1       1.703   4.333  20.777  0.00  0.00    +0.000 A 
ATOM      2  C   UNL     1       2.281   3.787  21.909  0.00  0.00    +0.000 A 
ATOM      3  C   UNL     1       2.698   2.503  21.545  0.00  0.00    +0.000 A 
ATOM      4  N   UNL     1       2.387   2.221  20.286  0.00  0.00    +0.000 NA
ATOM      5  N   UNL     1       1.802   3.342  19.809  0.00  0.00    +0.000 N 
ENDROOT
BRANCH   5   6
ATOM      6  C   UNL     1       1.467   3.386  18.385  0.00  0.00    +0.000 C 
ATOM      7  C   UNL     1       2.131   2.279  17.554  0.00  0.00    +0.000 C 
ATOM      8  C   UNL     1       3.630   2.508  17.329  0.00  0.00    +0.000 C 
ATOM      9  N   UNL     1       3.962   3.841  16.798  0.00  0.00    +0.000 NA
ATOM     10  C   UNL     1       3.300   4.940  17.521  0.00  0.00    +0.000 C 
ATOM     11  C   UNL     1       1.796   4.736  17.735  0.00  0.00    +0.000 C 
BRANCH   9  12
ATOM     12  C   UNL     1       5.432   4.061  16.874  0.00  0.00    +0.000 C 
BRANCH  12  13
ATOM     13  C   UNL     1       6.099   4.352  15.554  0.00  0.00    +0.000 A 
ATOM     14  C   UNL     1       5.707   3.713  14.372  0.00  0.00    +0.000 A 
ATOM     15  C   UNL     1       6.388   3.973  13.187  0.00  0.00    +0.000 A 
ATOM     16  C   UNL     1       7.444   4.867  13.221  0.00  0.00    +0.000 A 
ATOM     17  N   UNL     1       7.850   5.508  14.338  0.00  0.00    +0.000 NA
ATOM     18  C   UNL     1       7.169   5.237  15.475  0.00  0.00    +0.000 A 
ENDBRANCH  12  13
ENDBRANCH   9  12
ENDBRANCH   5   6
BRANCH   1  21
ATOM     19  C   UNL     1       1.945   6.786  20.405  0.00  0.00    +0.000 C 
ATOM     20  O   UNL     1       3.143   6.706  20.174  0.00  0.00    +0.000 OA
ATOM     21  N   UNL     1       1.143   5.610  20.671  0.00  0.00    +0.000 N 
ATOM     22  H   UNL     1       0.138   5.704  20.716  0.00  0.00    +0.000 HD
BRANCH  19  26
ATOM     23  C   UNL     1      -0.056  10.555  20.037  0.00  0.00    +0.000 A 
ATOM     24  C   UNL     1       0.825  10.112  19.052  0.00  0.00    +0.000 A 
ATOM     25  C   UNL     1       1.479   8.887  19.190  0.00  0.00    +0.000 A 
ATOM     26  C   UNL     1       1.253   8.092  20.322  0.00  0.00    +0.000 A 
ATOM     27  C   UNL     1       0.417   8.558  21.340  0.00  0.00    +0.000 A 
ATOM     28  C   UNL     1      -0.238   9.788  21.192  0.00  0.00    +0.000 A 
BRANCH  23  30
ATOM     29  C   UNL     1      -0.278  12.402  18.574  0.00  0.00    +0.000 C 
ATOM     30  O   UNL     1      -0.629  11.772  19.804  0.00  0.00    +0.000 OA
ENDBRANCH  23  30
ENDBRANCH  19  26
ENDBRANCH   1  21
TORSDOF 6
ENDMDL
MODEL 3
REMARK VINA RESULT:      -7.6      1.965      2.754
REMARK  Name = 
REMARK  7 active torsions:
REMARK  status: ('A' for Active; 'I' for Inactive)
REMARK    1  A    between atoms: C_1  and  O_2
REMARK    2  A    between atoms: O_2  and  C_3
REMARK    3  A    between atoms: C_6  and  C_7
REMARK    4  A    between atoms: N_9  and  C_10
REMARK    5  A    between atoms: N_14  and  C_15
REMARK    6  A    between atoms: N_18  and  C_19
REMARK    7  A    between atoms: C_19  and  C_20
REMARK                            x       y       z     vdW  Elec       q    Type
REMARK                         _______ _______ _______ _____ _____    ______ ____
ROOT
ATOM      1  C   UNL     1       2.891   5.192  20.273  0.00  0.00    +0.000 A 
ATOM      2  C   UNL     1       2.410   3.913  20.491  0.00  0.00    +0.000 A 
ATOM      3  C   UNL     1       3.292   3.054  19.829  0.00  0.00    +0.000 A 
ATOM      4  N   UNL     1       4.253   3.720  19.202  0.00  0.00    +0.000 NA
ATOM      5  N   UNL     1       4.025   5.021  19.488  0.00  0.00    +0.000 N 
ENDROOT
BRANCH   5   6
ATOM      6  C   UNL     1       5.012   6.004  19.042  0.00  0.00    +0.000 C 
ATOM      7  C   UNL     1       4.754   6.549  17.630  0.00  0.00    +0.000 C 
ATOM      8  C   UNL     1       5.083   5.540  16.522  0.00  0.00    +0.000 C 
ATOM      9  N   UNL     1       6.430   4.952  16.626  0.00  0.00    +0.000 NA
ATOM     10  C   UNL     1       6.755   4.469  17.979  0.00  0.00    +0.000 C 
ATOM     11  C   UNL     1       6.451   5.474  19.095  0.00  0.00    +0.000 C 
BRANCH   9  12
ATOM     12  C   UNL     1       6.550   3.803  15.688  0.00  0.00    +0.000 C 
BRANCH  12  13
ATOM     13  C   UNL     1       6.790   4.182  14.249  0.00  0.00    +0.000 A 
ATOM     14  C   UNL     1       6.261   3.434  13.191  0.00  0.00    +0.000 A 
ATOM     15  C   UNL     1       6.554   3.790  11.878  0.00  0.00    +0.000 A 
ATOM     16  C   UNL     1       7.372   4.886  11.663  0.00  0.00    +0.000 A 
ATOM     17  N   UNL     1       7.897   5.637  12.655  0.00  0.00    +0.000 NA
ATOM     18  C   UNL     1       7.595   5.268  13.921  0.00  0.00    +0.000 A 
ENDBRANCH  12  13
ENDBRANCH   9  12
ENDBRANCH   5   6
BRANCH   1  21
ATOM     19  C   UNL     1       1.826   7.409  19.862  0.00  0.00    +0.000 C 
ATOM     20  O   UNL     1       1.797   7.251  18.650  0.00  0.00    +0.000 OA
ATOM     21  N   UNL     1       2.325   6.379  20.749  0.00  0.00    +0.000 N 
ATOM     22  H   UNL     1       2.201   6.491  21.746  0.00  0.00    +0.000 HD
BRANCH  19  26
ATOM     23  C   UNL     1       0.232  10.915  21.735  0.00  0.00    +0.000 A 
ATOM     24  C   UNL     1       0.448   9.747  22.465  0.00  0.00    +0.000 A 
ATOM     25  C   UNL     1       0.958   8.608  21.840  0.00  0.00    +0.000 A 
ATOM     26  C   UNL     1       1.256   8.631  20.471  0.00  0.00    +0.000 A 
ATOM     27  C   UNL     1       0.985   9.780  19.722  0.00  0.00    +0.000 A 
ATOM     28  C   UNL     1       0.476  10.920  20.359  0.00  0.00    +0.000 A 
BRANCH  23  30
ATOM     29  C   UNL     1      -1.670  11.884  22.757  0.00  0.00    +0.000 C 
ATOM     30  O   UNL     1      -0.281  11.961  22.446  0.00  0.00    +0.000 OA
ENDBRANCH  23  30
ENDBRANCH  19  26
ENDBRANCH   1  21
TORSDOF 6
ENDMDL
MODEL 4
REMARK VINA RESULT:      -7.5      1.740      2.682
REMARK  Name = 
REMARK  7 active torsions:
REMARK  status: ('A' for Active; 'I' for Inactive)
REMARK    1  A    between atoms: C_1  and  O_2
REMARK    2  A    between atoms: O_2  and  C_3
REMARK    3  A    between atoms: C_6  and  C_7
REMARK    4  A    between atoms: N_9  and  C_10
REMARK    5  A    between atoms: N_14  and  C_15
REMARK    6  A    between atoms: N_18  and  C_19
REMARK    7  A    between atoms: C_19  and  C_20
REMARK                            x       y       z     vdW  Elec       q    Type
REMARK                         _______ _______ _______ _____ _____    ______ ____
ROOT
ATOM      1  C   UNL     1       2.354   5.805  20.108  0.00  0.00    +0.000 A 
ATOM      2  C   UNL     1       1.623   4.664  20.382  0.00  0.00    +0.000 A 
ATOM      3  C   UNL     1       2.424   3.590  19.981  0.00  0.00    +0.000 A 
ATOM      4  N   UNL     1       3.571   3.999  19.455  0.00  0.00    +0.000 NA
ATOM      5  N   UNL     1       3.542   5.347  19.552  0.00  0.00    +0.000 N 
ENDROOT
BRANCH   5   6
ATOM      6  C   UNL     1       4.745   6.087  19.172  0.00  0.00    +0.000 C 
ATOM      7  C   UNL     1       4.654   6.759  17.794  0.00  0.00    +0.000 C 
ATOM      8  C   UNL     1       4.754   5.767  16.629  0.00  0.00    +0.000 C 
ATOM      9  N   UNL     1       5.917   4.867  16.704  0.00  0.00    +0.000 NA
ATOM     10  C   UNL     1       6.089   4.242  18.028  0.00  0.00    +0.000 C 
ATOM     11  C   UNL     1       6.013   5.225  19.201  0.00  0.00    +0.000 C 
BRANCH   9  12
ATOM     12  C   UNL     1       5.778   3.779  15.699  0.00  0.00    +0.000 C 
BRANCH  12  13
ATOM     13  C   UNL     1       6.336   4.100  14.336  0.00  0.00    +0.000 A 
ATOM     14  C   UNL     1       5.988   3.356  13.202  0.00  0.00    +0.000 A 
ATOM     15  C   UNL     1       6.570   3.655  11.974  0.00  0.00    +0.000 A 
ATOM     16  C   UNL     1       7.486   4.691  11.918  0.00  0.00    +0.000 A 
ATOM     17  N   UNL     1       7.844   5.435  12.986  0.00  0.00    +0.000 NA
ATOM     18  C   UNL     1       7.262   5.124  14.167  0.00  0.00    +0.000 A 
ENDBRANCH  12  13
ENDBRANCH   9  12
ENDBRANCH   5   6
BRANCH   1  21
ATOM     19  C   UNL     1       1.680   8.055  19.270  0.00  0.00    +0.000 C 
ATOM     20  O   UNL     1       1.715   7.709  18.098  0.00  0.00    +0.000 OA
ATOM     21  N   UNL     1       1.947   7.122  20.345  0.00  0.00    +0.000 N 
ATOM     22  H   UNL     1       1.770   7.411  21.297  0.00  0.00    +0.000 HD
BRANCH  19  26
ATOM     23  C   UNL     1       0.444  12.050  20.195  0.00  0.00    +0.000 A 
ATOM     24  C   UNL     1       0.925  11.723  18.928  0.00  0.00    +0.000 A 
ATOM     25  C   UNL     1       1.335  10.420  18.643  0.00  0.00    +0.000 A 
ATOM     26  C   UNL     1       1.266   9.429  19.632  0.00  0.00    +0.000 A 
ATOM     27  C   UNL     1       0.841   9.764  20.920  0.00  0.00    +0.000 A 
ATOM     28  C   UNL     1       0.428  11.075  21.197  0.00  0.00    +0.000 A 
BRANCH  23  30
ATOM     29  C   UNL     1       1.147  14.305  20.338  0.00  0.00    +0.000 C 
ATOM     30  O   UNL     1       0.084  13.356  20.364  0.00  0.00    +0.000 OA
ENDBRANCH  23  30
ENDBRANCH  19  26
ENDBRANCH   1  21
TORSDOF 6
ENDMDL
MODEL 5
REMARK VINA RESULT:      -7.5      1.796      2.689
REMARK  Name = 
REMARK  7 active torsions:
REMARK  status: ('A' for Active; 'I' for Inactive)
REMARK    1  A    between atoms: C_1  and  O_2
REMARK    2  A    between atoms: O_2  and  C_3
REMARK    3  A    between atoms: C_6  and  C_7
REMARK    4  A    between atoms: N_9  and  C_10
REMARK    5  A    between atoms: N_14  and  C_15
REMARK    6  A    between atoms: N_18  and  C_19
REMARK    7  A    between atoms: C_19  and  C_20
REMARK                            x       y       z     vdW  Elec       q    Type
REMARK                         _______ _______ _______ _____ _____    ______ ____
ROOT
ATOM      1  C   UNL     1       2.346   5.916  19.716  0.00  0.00    +0.000 A 
ATOM      2  C   UNL     1       1.642   4.854  20.256  0.00  0.00    +0.000 A 
ATOM      3  C   UNL     1       2.569   3.817  20.405  0.00  0.00    +0.000 A 
ATOM      4  N   UNL     1       3.772   4.163  19.968  0.00  0.00    +0.000 NA
ATOM      5  N   UNL     1       3.646   5.448  19.568  0.00  0.00    +0.000 N 
ENDROOT
BRANCH   5   6
ATOM      6  C   UNL     1       4.856   6.159  19.155  0.00  0.00    +0.000 C 
ATOM      7  C   UNL     1       4.744   6.829  17.777  0.00  0.00    +0.000 C 
ATOM      8  C   UNL     1       4.791   5.830  16.614  0.00  0.00    +0.000 C 
ATOM      9  N   UNL     1       5.935   4.904  16.662  0.00  0.00    +0.000 NA
ATOM     10  C   UNL     1       6.127   4.279  17.983  0.00  0.00    +0.000 C 
ATOM     11  C   UNL     1       6.104   5.268  19.154  0.00  0.00    +0.000 C 
BRANCH   9  12
ATOM     12  C   UNL     1       5.745   3.816  15.665  0.00  0.00    +0.000 C 
BRANCH  12  13
ATOM     13  C   UNL     1       6.306   4.106  14.296  0.00  0.00    +0.000 A 
ATOM     14  C   UNL     1       5.917   3.373  13.169  0.00  0.00    +0.000 A 
ATOM     15  C   UNL     1       6.502   3.640  11.935  0.00  0.00    +0.000 A 
ATOM     16  C   UNL     1       7.462   4.635  11.866  0.00  0.00    +0.000 A 
ATOM     17  N   UNL     1       7.861   5.368  12.927  0.00  0.00    +0.000 NA
ATOM     18  C   UNL     1       7.275   5.087  14.115  0.00  0.00    +0.000 A 
ENDBRANCH  12  13
ENDBRANCH   9  12
ENDBRANCH   5   6
BRANCH   1  21
ATOM     19  C   UNL     1       1.417   8.124  20.407  0.00  0.00    +0.000 C 
ATOM     20  O   UNL     1       1.592   7.905  21.597  0.00  0.00    +0.000 OA
ATOM     21  N   UNL     1       1.824   7.173  19.394  0.00  0.00    +0.000 N 
ATOM     22  H   UNL     1       1.793   7.451  18.422  0.00  0.00    +0.000 HD
BRANCH  19  26
ATOM     23  C   UNL     1      -0.132  11.856  18.988  0.00  0.00    +0.000 A 
ATOM     24  C   UNL     1       0.989  11.274  18.397  0.00  0.00    +0.000 A 
ATOM     25  C   UNL     1       1.490  10.063  18.877  0.00  0.00    +0.000 A 
ATOM     26  C   UNL     1       0.868   9.422  19.958  0.00  0.00    +0.000 A 
ATOM     27  C   UNL     1      -0.219  10.031  20.591  0.00  0.00    +0.000 A 
ATOM     28  C   UNL     1      -0.717  11.246  20.101  0.00  0.00    +0.000 A 
BRANCH  23  30
ATOM     29  C   UNL     1       0.155  14.204  18.921  0.00  0.00    +0.000 C 
ATOM     30  O   UNL     1      -0.526  13.046  18.446  0.00  0.00    +0.000 OA
ENDBRANCH  23  30
ENDBRANCH  19  26
ENDBRANCH   1  21
TORSDOF 6
ENDMDL
MODEL 6
REMARK VINA RESULT:      -7.5      3.920      9.172
REMARK  Name = 
REMARK  7 active torsions:
REMARK  status: ('A' for Active; 'I' for Inactive)
REMARK    1  A    between atoms: C_1  and  O_2
REMARK    2  A    between atoms: O_2  and  C_3
REMARK    3  A    between atoms: C_6  and  C_7
REMARK    4  A    between atoms: N_9  and  C_10
REMARK    5  A    between atoms: N_14  and  C_15
REMARK    6  A    between atoms: N_18  and  C_19
REMARK    7  A    between atoms: C_19  and  C_20
REMARK                            x       y       z     vdW  Elec       q    Type
REMARK                         _______ _______ _______ _____ _____    ______ ____
ROOT
ATOM      1  C   UNL     1       1.562   8.385  20.125  0.00  0.00    +0.000 A 
ATOM      2  C   UNL     1       1.403   8.195  21.486  0.00  0.00    +0.000 A 
ATOM      3  C   UNL     1       0.523   9.195  21.912  0.00  0.00    +0.000 A 
ATOM      4  N   UNL     1       0.163   9.993  20.916  0.00  0.00    +0.000 NA
ATOM      5  N   UNL     1       0.775   9.489  19.822  0.00  0.00    +0.000 N 
ENDROOT
BRANCH   5   6
ATOM      6  C   UNL     1       0.457  10.084  18.523  0.00  0.00    +0.000 C 
ATOM      7  C   UNL     1       1.647  10.785  17.852  0.00  0.00    +0.000 C 
ATOM      8  C   UNL     1       2.011  12.123  18.509  0.00  0.00    +0.000 C 
ATOM      9  N   UNL     1       0.873  13.044  18.666  0.00  0.00    +0.000 NA
ATOM     10  C   UNL     1      -0.320  12.406  19.250  0.00  0.00    +0.000 C 
ATOM     11  C   UNL     1      -0.709  11.079  18.589  0.00  0.00    +0.000 C 
BRANCH   9  12
ATOM     12  C   UNL     1       1.262  14.178  19.547  0.00  0.00    +0.000 C 
BRANCH  12  13
ATOM     13  C   UNL     1       1.081  15.545  18.938  0.00  0.00    +0.000 A 
ATOM     14  C   UNL     1      -0.186  16.055  18.632  0.00  0.00    +0.000 A 
ATOM     15  C   UNL     1      -0.302  17.300  18.021  0.00  0.00    +0.000 A 
ATOM     16  C   UNL     1       0.858  17.998  17.732  0.00  0.00    +0.000 A 
ATOM     17  N   UNL     1       2.098  17.545  18.015  0.00  0.00    +0.000 NA
ATOM     18  C   UNL     1       2.181  16.332  18.610  0.00  0.00    +0.000 A 
ENDBRANCH  12  13
ENDBRANCH   9  12
ENDBRANCH   5   6
BRANCH   1  21
ATOM     19  C   UNL     1       2.430   6.171  19.375  0.00  0.00    +0.000 C 
ATOM     20  O   UNL     1       1.729   5.550  20.159  0.00  0.00    +0.000 OA
ATOM     21  N   UNL     1       2.358   7.614  19.272  0.00  0.00    +0.000 N 
ATOM     22  H   UNL     1       2.847   8.075  18.517  0.00  0.00    +0.000 HD
BRANCH  19  26
ATOM     23  C   UNL     1       5.074   4.179  16.658  0.00  0.00    +0.000 A 
ATOM     24  C   UNL     1       5.136   5.560  16.835  0.00  0.00    +0.000 A 
ATOM     25  C   UNL     1       4.261   6.198  17.715  0.00  0.00    +0.000 A 
ATOM     26  C   UNL     1       3.312   5.453  18.429  0.00  0.00    +0.000 A 
ATOM     27  C   UNL     1       3.206   4.077  18.210  0.00  0.00    +0.000 A 
ATOM     28  C   UNL     1       4.091   3.443  17.326  0.00  0.00    +0.000 A 
BRANCH  23  30
ATOM     29  C   UNL     1       6.863   4.600  15.167  0.00  0.00    +0.000 C 
ATOM     30  O   UNL     1       5.968   3.664  15.764  0.00  0.00    +0.000 OA
ENDBRANCH  23  30
ENDBRANCH  19  26
ENDBRANCH   1  21
TORSDOF 6
ENDMDL
MODEL 7
REMARK VINA RESULT:      -7.4      3.804      9.391
REMARK  Name = 
REMARK  7 active torsions:
REMARK  status: ('A' for Active; 'I' for Inactive)
REMARK    1  A    between atoms: C_1  and  O_2
REMARK    2  A    between atoms: O_2  and  C_3
REMARK    3  A    between atoms: C_6  and  C_7
REMARK    4  A    between atoms: N_9  and  C_10
REMARK    5  A    between atoms: N_14  and  C_15
REMARK    6  A    between atoms: N_18  and  C_19
REMARK    7  A    between atoms: C_19  and  C_20
REMARK                            x       y       z     vdW  Elec       q    Type
REMARK                         _______ _______ _______ _____ _____    ______ ____
ROOT
ATOM      1  C   UNL     1       1.065   8.829  20.357  0.00  0.00    +0.000 A 
ATOM      2  C   UNL     1       0.723   8.311  21.593  0.00  0.00    +0.000 A 
ATOM      3  C   UNL     1      -0.080   9.279  22.205  0.00  0.00    +0.000 A 
ATOM      4  N   UNL     1      -0.223  10.355  21.443  0.00  0.00    +0.000 NA
ATOM      5  N   UNL     1       0.454  10.076  20.308  0.00  0.00    +0.000 N 
ENDROOT
BRANCH   5   6
ATOM      6  C   UNL     1       0.366  11.032  19.204  0.00  0.00    +0.000 C 
ATOM      7  C   UNL     1      -0.768  12.057  19.357  0.00  0.00    +0.000 C 
ATOM      8  C   UNL     1      -2.159  11.462  19.109  0.00  0.00    +0.000 C 
ATOM      9  N   UNL     1      -2.280  10.724  17.840  0.00  0.00    +0.000 NA
ATOM     10  C   UNL     1      -1.181   9.769  17.612  0.00  0.00    +0.000 C 
ATOM     11  C   UNL     1       0.217  10.355  17.835  0.00  0.00    +0.000 C 
BRANCH   9  12
ATOM     12  C   UNL     1      -3.559   9.964  17.820  0.00  0.00    +0.000 C 
BRANCH  12  13
ATOM     13  C   UNL     1      -4.802  10.816  17.790  0.00  0.00    +0.000 A 
ATOM     14  C   UNL     1      -4.929  11.907  16.923  0.00  0.00    +0.000 A 
ATOM     15  C   UNL     1      -6.073  12.697  16.968  0.00  0.00    +0.000 A 
ATOM     16  C   UNL     1      -7.059  12.372  17.884  0.00  0.00    +0.000 A 
ATOM     17  N   UNL     1      -6.978  11.326  18.734  0.00  0.00    +0.000 NA
ATOM     18  C   UNL     1      -5.855  10.574  18.667  0.00  0.00    +0.000 A 
ENDBRANCH  12  13
ENDBRANCH   9  12
ENDBRANCH   5   6
BRANCH   1  21
ATOM     19  C   UNL     1       2.259   6.815  19.499  0.00  0.00    +0.000 C 
ATOM     20  O   UNL     1       1.840   6.097  20.395  0.00  0.00    +0.000 OA
ATOM     21  N   UNL     1       1.863   8.205  19.394  0.00  0.00    +0.000 N 
ATOM     22  H   UNL     1       2.117   8.723  18.563  0.00  0.00    +0.000 HD
BRANCH  19  26
ATOM     23  C   UNL     1       4.815   5.293  16.418  0.00  0.00    +0.000 A 
ATOM     24  C   UNL     1       4.723   6.663  16.661  0.00  0.00    +0.000 A 
ATOM     25  C   UNL     1       3.877   7.146  17.661  0.00  0.00    +0.000 A 
ATOM     26  C   UNL     1       3.114   6.256  18.429  0.00  0.00    +0.000 A 
ATOM     27  C   UNL     1       3.158   4.887  18.149  0.00  0.00    +0.000 A 
ATOM     28  C   UNL     1       4.012   4.410  17.145  0.00  0.00    +0.000 A 
BRANCH  23  30
ATOM     29  C   UNL     1       7.018   4.704  15.785  0.00  0.00    +0.000 C 
ATOM     30  O   UNL     1       5.663   4.935  15.409  0.00  0.00    +0.000 OA
ENDBRANCH  23  30
ENDBRANCH  19  26
ENDBRANCH   1  21
TORSDOF 6
ENDMDL
MODEL 8
REMARK VINA RESULT:      -7.3      1.646      2.450
REMARK  Name = 
REMARK  7 active torsions:
REMARK  status: ('A' for Active; 'I' for Inactive)
REMARK    1  A    between atoms: C_1  and  O_2
REMARK    2  A    between atoms: O_2  and  C_3
REMARK    3  A    between atoms: C_6  and  C_7
REMARK    4  A    between atoms: N_9  and  C_10
REMARK    5  A    between atoms: N_14  and  C_15
REMARK    6  A    between atoms: N_18  and  C_19
REMARK    7  A    between atoms: C_19  and  C_20
REMARK                            x       y       z     vdW  Elec       q    Type
REMARK                         _______ _______ _______ _____ _____    ______ ____
ROOT
ATOM      1  C   UNL     1       1.795   4.601  20.695  0.00  0.00    +0.000 A 
ATOM      2  C   UNL     1       2.314   3.863  21.745  0.00  0.00    +0.000 A 
ATOM      3  C   UNL     1       2.871   2.717  21.169  0.00  0.00    +0.000 A 
ATOM      4  N   UNL     1       2.700   2.692  19.854  0.00  0.00    +0.000 NA
ATOM      5  N   UNL     1       2.066   3.848  19.559  0.00  0.00    +0.000 N 
ENDROOT
BRANCH   5   6
ATOM      6  C   UNL     1       1.857   4.175  18.148  0.00  0.00    +0.000 C 
ATOM      7  C   UNL     1       2.284   3.060  17.181  0.00  0.00    +0.000 C 
ATOM      8  C   UNL     1       3.806   2.925  17.048  0.00  0.00    +0.000 C 
ATOM      9  N   UNL     1       4.497   4.188  16.738  0.00  0.00    +0.000 NA
ATOM     10  C   UNL     1       4.078   5.310  17.597  0.00  0.00    +0.000 C 
ATOM     11  C   UNL     1       2.559   5.471  17.723  0.00  0.00    +0.000 C 
BRANCH   9  12
ATOM     12  C   UNL     1       5.965   4.011  16.900  0.00  0.00    +0.000 C 
BRANCH  12  13
ATOM     13  C   UNL     1       6.711   5.252  17.318  0.00  0.00    +0.000 A 
ATOM     14  C   UNL     1       7.391   5.328  18.539  0.00  0.00    +0.000 A 
ATOM     15  C   UNL     1       8.021   6.513  18.907  0.00  0.00    +0.000 A 
ATOM     16  C   UNL     1       7.951   7.590  18.039  0.00  0.00    +0.000 A 
ATOM     17  N   UNL     1       7.311   7.555  16.851  0.00  0.00    +0.000 NA
ATOM     18  C   UNL     1       6.708   6.390  16.518  0.00  0.00    +0.000 A 
ENDBRANCH  12  13
ENDBRANCH   9  12
ENDBRANCH   5   6
BRANCH   1  21
ATOM     19  C   UNL     1       1.825   7.092  20.598  0.00  0.00    +0.000 C 
ATOM     20  O   UNL     1       2.995   7.136  20.247  0.00  0.00    +0.000 OA
ATOM     21  N   UNL     1       1.139   5.832  20.796  0.00  0.00    +0.000 N 
ATOM     22  H   UNL     1       0.140   5.838  20.947  0.00  0.00    +0.000 HD
BRANCH  19  26
ATOM     23  C   UNL     1      -0.466  10.700  20.876  0.00  0.00    +0.000 A 
ATOM     24  C   UNL     1       0.310  10.428  19.750  0.00  0.00    +0.000 A 
ATOM     25  C   UNL     1       1.061   9.254  19.677  0.00  0.00    +0.000 A 
ATOM     26  C   UNL     1       1.039   8.338  20.738  0.00  0.00    +0.000 A 
ATOM     27  C   UNL     1       0.310   8.633  21.893  0.00  0.00    +0.000 A 
ATOM     28  C   UNL     1      -0.443   9.813  21.957  0.00  0.00    +0.000 A 
BRANCH  23  30
ATOM     29  C   UNL     1      -1.727  12.235  19.590  0.00  0.00    +0.000 C 
ATOM     30  O   UNL     1      -1.147  11.883  20.844  0.00  0.00    +0.000 OA
ENDBRANCH  23  30
ENDBRANCH  19  26
ENDBRANCH   1  21
TORSDOF 6
ENDMDL
MODEL 9
REMARK VINA RESULT:      -7.3      2.431      7.378
REMARK  Name = 
REMARK  7 active torsions:
REMARK  status: ('A' for Active; 'I' for Inactive)
REMARK    1  A    between atoms: C_1  and  O_2
REMARK    2  A    between atoms: O_2  and  C_3
REMARK    3  A    between atoms: C_6  and  C_7
REMARK    4  A    between atoms: N_9  and  C_10
REMARK    5  A    between atoms: N_14  and  C_15
REMARK    6  A    between atoms: N_18  and  C_19
REMARK    7  A    between atoms: C_19  and  C_20
REMARK                            x       y       z     vdW  Elec       q    Type
REMARK                         _______ _______ _______ _____ _____    ______ ____
ROOT
ATOM      1  C   UNL     1       4.154   2.562  19.421  0.00  0.00    +0.000 A 
ATOM      2  C   UNL     1       4.814   1.933  20.461  0.00  0.00    +0.000 A 
ATOM      3  C   UNL     1       3.877   1.810  21.491  0.00  0.00    +0.000 A 
ATOM      4  N   UNL     1       2.709   2.345  21.162  0.00  0.00    +0.000 NA
ATOM      5  N   UNL     1       2.867   2.784  19.894  0.00  0.00    +0.000 N 
ENDROOT
BRANCH   5   6
ATOM      6  C   UNL     1       1.691   3.310  19.199  0.00  0.00    +0.000 C 
ATOM      7  C   UNL     1       2.025   4.286  18.061  0.00  0.00    +0.000 C 
ATOM      8  C   UNL     1       2.492   5.659  18.560  0.00  0.00    +0.000 C 
ATOM      9  N   UNL     1       1.588   6.280  19.544  0.00  0.00    +0.000 NA
ATOM     10  C   UNL     1       1.184   5.366  20.626  0.00  0.00    +0.000 C 
ATOM     11  C   UNL     1       0.695   3.997  20.142  0.00  0.00    +0.000 C 
BRANCH   9  12
ATOM     12  C   UNL     1       2.252   7.459  20.163  0.00  0.00    +0.000 C 
BRANCH  12  13
ATOM     13  C   UNL     1       1.323   8.581  20.549  0.00  0.00    +0.000 A 
ATOM     14  C   UNL     1       0.742   8.653  21.821  0.00  0.00    +0.000 A 
ATOM     15  C   UNL     1      -0.153   9.678  22.115  0.00  0.00    +0.000 A 
ATOM     16  C   UNL     1      -0.441  10.601  21.124  0.00  0.00    +0.000 A 
ATOM     17  N   UNL     1       0.101  10.569  19.888  0.00  0.00    +0.000 NA
ATOM     18  C   UNL     1       0.969   9.563  19.630  0.00  0.00    +0.000 A 
ENDBRANCH  12  13
ENDBRANCH   9  12
ENDBRANCH   5   6
BRANCH   1  21
ATOM     19  C   UNL     1       5.638   3.986  18.011  0.00  0.00    +0.000 C 
ATOM     20  O   UNL     1       6.063   4.616  18.969  0.00  0.00    +0.000 OA
ATOM     21  N   UNL     1       4.701   2.895  18.178  0.00  0.00    +0.000 N 
ATOM     22  H   UNL     1       4.485   2.311  17.381  0.00  0.00    +0.000 HD
BRANCH  19  26
ATOM     23  C   UNL     1       6.999   4.756  14.024  0.00  0.00    +0.000 A 
ATOM     24  C   UNL     1       5.959   3.859  14.267  0.00  0.00    +0.000 A 
ATOM     25  C   UNL     1       5.533   3.609  15.572  0.00  0.00    +0.000 A 
ATOM     26  C   UNL     1       6.149   4.260  16.650  0.00  0.00    +0.000 A 
ATOM     27  C   UNL     1       7.230   5.114  16.417  0.00  0.00    +0.000 A 
ATOM     28  C   UNL     1       7.650   5.362  15.103  0.00  0.00    +0.000 A 
BRANCH  23  30
ATOM     29  C   UNL     1       7.005   3.832  11.846  0.00  0.00    +0.000 C 
ATOM     30  O   UNL     1       7.340   4.913  12.711  0.00  0.00    +0.000 OA
ENDBRANCH  23  30
ENDBRANCH  19  26
ENDBRANCH   1  21
TORSDOF 6
ENDMDL
