MODEL 1
REMARK VINA RESULT:      -8.0      0.000      0.000
REMARK  Name = 
REMARK  5 active torsions:
REMARK  status: ('A' for Active; 'I' for Inactive)
REMARK    1  A    between atoms: C_1  and  O_2
REMARK    2  A    between atoms: O_2  and  C_3
REMARK    3  A    between atoms: C_7  and  N_8
REMARK    4  A    between atoms: N_12  and  C_13
REMARK    5  A    between atoms: N_12  and  C_14
REMARK                            x       y       z     vdW  Elec       q    Type
REMARK                         _______ _______ _______ _____ _____    ______ ____
ROOT
ATOM      1  N   UNL     1       5.648   3.855  16.418  0.00  0.00    +0.000 N 
ATOM      2  C   UNL     1       4.652   4.441  17.197  0.00  0.00    +0.000 A 
ATOM      3  N   UNL     1       4.162   3.601  18.114  0.00  0.00    +0.000 NA
ATOM      4  C   UNL     1       3.274   4.061  19.005  0.00  0.00    +0.000 A 
ATOM      5  N   UNL     1       2.474   3.126  19.689  0.00  0.00    +0.000 N 
ATOM      6  C   UNL     1       2.161   1.931  18.905  0.00  0.00    +0.000 C 
ATOM      7  C   UNL     1       2.789   2.905  21.092  0.00  0.00    +0.000 C 
ATOM      8  C   UNL     1       2.974   5.425  19.099  0.00  0.00    +0.000 A 
ATOM      9  C   UNL     1       2.204   6.026  20.133  0.00  0.00    +0.000 A 
ATOM     10  C   UNL     1       1.830   7.362  20.068  0.00  0.00    +0.000 A 
ATOM     11  C   UNL     1       2.181   8.100  18.948  0.00  0.00    +0.000 A 
ATOM     12  C   UNL     1       2.980   7.516  17.953  0.00  0.00    +0.000 A 
ATOM     13  C   UNL     1       3.436   6.199  18.026  0.00  0.00    +0.000 A 
ATOM     14  N   UNL     1       4.258   5.714  17.076  0.00  0.00    +0.000 NA
ATOM     15  H   UNL     1       5.784   2.927  16.797  0.00  0.00    +0.000 HD
ENDROOT
BRANCH   1  20
ATOM     16  C   UNL     1       5.996   3.553  12.705  0.00  0.00    +0.000 A 
ATOM     17  C   UNL     1       7.080   4.401  12.498  0.00  0.00    +0.000 A 
ATOM     18  C   UNL     1       7.664   5.072  13.569  0.00  0.00    +0.000 A 
ATOM     19  C   UNL     1       7.159   4.876  14.851  0.00  0.00    +0.000 A 
ATOM     20  C   UNL     1       6.086   3.998  15.096  0.00  0.00    +0.000 A 
ATOM     21  C   UNL     1       5.486   3.368  14.000  0.00  0.00    +0.000 A 
BRANCH  16  23
ATOM     22  C   UNL     1       4.144   3.130  11.285  0.00  0.00    +0.000 C 
ATOM     23  O   UNL     1       5.527   2.961  11.563  0.00  0.00    +0.000 OA
ENDBRANCH  16  23
ENDBRANCH   1  20
TORSDOF 2
ENDMDL
MODEL 2
REMARK VINA RESULT:      -7.7      3.880      7.727
REMARK  Name = 
REMARK  5 active torsions:
REMARK  status: ('A' for Active; 'I' for Inactive)
REMARK    1  A    between atoms: C_1  and  O_2
REMARK    2  A    between atoms: O_2  and  C_3
REMARK    3  A    between atoms: C_7  and  N_8
REMARK    4  A    between atoms: N_12  and  C_13
REMARK    5  A    between atoms: N_12  and  C_14
REMARK                            x       y       z     vdW  Elec       q    Type
REMARK                         _______ _______ _______ _____ _____    ______ ____
ROOT
ATOM      1  N   UNL     1       2.566   8.015  19.022  0.00  0.00    +0.000 N 
ATOM      2  C   UNL     1       2.742   6.706  18.577  0.00  0.00    +0.000 A 
ATOM      3  N   UNL     1       3.894   6.541  17.920  0.00  0.00    +0.000 NA
ATOM      4  C   UNL     1       4.246   5.309  17.528  0.00  0.00    +0.000 A 
ATOM      5  N   UNL     1       5.217   5.187  16.517  0.00  0.00    +0.000 N 
ATOM      6  C   UNL     1       5.198   6.278  15.543  0.00  0.00    +0.000 C 
ATOM      7  C   UNL     1       6.533   4.725  16.933  0.00  0.00    +0.000 C 
ATOM      8  C   UNL     1       3.522   4.181  17.930  0.00  0.00    +0.000 A 
ATOM      9  C   UNL     1       3.929   2.833  17.733  0.00  0.00    +0.000 A 
ATOM     10  C   UNL     1       3.081   1.774  18.030  0.00  0.00    +0.000 A 
ATOM     11  C   UNL     1       1.800   2.052  18.483  0.00  0.00    +0.000 A 
ATOM     12  C   UNL     1       1.419   3.381  18.721  0.00  0.00    +0.000 A 
ATOM     13  C   UNL     1       2.275   4.462  18.505  0.00  0.00    +0.000 A 
ATOM     14  N   UNL     1       1.880   5.711  18.817  0.00  0.00    +0.000 NA
ATOM     15  H   UNL     1       3.412   8.508  18.768  0.00  0.00    +0.000 HD
ENDROOT
BRANCH   1  20
ATOM     16  C   UNL     1      -0.155  10.022  20.623  0.00  0.00    +0.000 A 
ATOM     17  C   UNL     1      -0.754  10.560  19.487  0.00  0.00    +0.000 A 
ATOM     18  C   UNL     1      -0.247  10.275  18.222  0.00  0.00    +0.000 A 
ATOM     19  C   UNL     1       0.858   9.437  18.105  0.00  0.00    +0.000 A 
ATOM     20  C   UNL     1       1.464   8.851  19.234  0.00  0.00    +0.000 A 
ATOM     21  C   UNL     1       0.965   9.186  20.497  0.00  0.00    +0.000 A 
BRANCH  16  23
ATOM     22  C   UNL     1      -0.361   9.680  22.961  0.00  0.00    +0.000 C 
ATOM     23  O   UNL     1      -0.761  10.387  21.796  0.00  0.00    +0.000 OA
ENDBRANCH  16  23
ENDBRANCH   1  20
TORSDOF 2
ENDMDL
MODEL 3
REMARK VINA RESULT:      -7.5      1.268      1.923
REMARK  Name = 
REMARK  5 active torsions:
REMARK  status: ('A' for Active; 'I' for Inactive)
REMARK    1  A    between atoms: C_1  and  O_2
REMARK    2  A    between atoms: O_2  and  C_3
REMARK    3  A    between atoms: C_7  and  N_8
REMARK    4  A    between atoms: N_12  and  C_13
REMARK    5  A    between atoms: N_12  and  C_14
REMARK                            x       y       z     vdW  Elec       q    Type
REMARK                         _______ _______ _______ _____ _____    ______ ____
ROOT
ATOM      1  N   UNL     1       5.393   3.940  16.974  0.00  0.00    +0.000 N 
ATOM      2  C   UNL     1       4.372   4.503  17.738  0.00  0.00    +0.000 A 
ATOM      3  N   UNL     1       3.836   3.631  18.596  0.00  0.00    +0.000 NA
ATOM      4  C   UNL     1       2.916   4.063  19.470  0.00  0.00    +0.000 A 
ATOM      5  N   UNL     1       2.080   3.109  20.079  0.00  0.00    +0.000 N 
ATOM      6  C   UNL     1       1.786   1.953  19.231  0.00  0.00    +0.000 C 
ATOM      7  C   UNL     1       2.334   2.824  21.483  0.00  0.00    +0.000 C 
ATOM      8  C   UNL     1       2.627   5.425  19.611  0.00  0.00    +0.000 A 
ATOM      9  C   UNL     1       1.822   5.991  20.637  0.00  0.00    +0.000 A 
ATOM     10  C   UNL     1       1.466   7.332  20.616  0.00  0.00    +0.000 A 
ATOM     11  C   UNL     1       1.870   8.113  19.545  0.00  0.00    +0.000 A 
ATOM     12  C   UNL     1       2.703   7.564  18.558  0.00  0.00    +0.000 A 
ATOM     13  C   UNL     1       3.141   6.239  18.592  0.00  0.00    +0.000 A 
ATOM     14  N   UNL     1       3.997   5.785  17.656  0.00  0.00    +0.000 NA
ATOM     15  H   UNL     1       5.503   2.994  17.318  0.00  0.00    +0.000 HD
ENDROOT
BRANCH   1  20
ATOM     16  C   UNL     1       7.450   5.043  14.050  0.00  0.00    +0.000 A 
ATOM     17  C   UNL     1       6.756   4.414  13.020  0.00  0.00    +0.000 A 
ATOM     18  C   UNL     1       5.643   3.626  13.300  0.00  0.00    +0.000 A 
ATOM     19  C   UNL     1       5.225   3.482  14.620  0.00  0.00    +0.000 A 
ATOM     20  C   UNL     1       5.886   4.134  15.679  0.00  0.00    +0.000 A 
ATOM     21  C   UNL     1       7.028   4.886  15.380  0.00  0.00    +0.000 A 
BRANCH  16  23
ATOM     22  C   UNL     1       8.531   6.155  12.256  0.00  0.00    +0.000 C 
ATOM     23  O   UNL     1       8.520   5.786  13.627  0.00  0.00    +0.000 OA
ENDBRANCH  16  23
ENDBRANCH   1  20
TORSDOF 2
ENDMDL
MODEL 4
REMARK VINA RESULT:      -7.5      4.039      6.700
REMARK  Name = 
REMARK  5 active torsions:
REMARK  status: ('A' for Active; 'I' for Inactive)
REMARK    1  A    between atoms: C_1  and  O_2
REMARK    2  A    between atoms: O_2  and  C_3
REMARK    3  A    between atoms: C_7  and  N_8
REMARK    4  A    between atoms: N_12  and  C_13
REMARK    5  A    between atoms: N_12  and  C_14
REMARK                            x       y       z     vdW  Elec       q    Type
REMARK                         _______ _______ _______ _____ _____    ______ ____
ROOT
ATOM      1  N   UNL     1       2.062   8.035  17.973  0.00  0.00    +0.000 N 
ATOM      2  C   UNL     1       1.592   8.897  18.962  0.00  0.00    +0.000 A 
ATOM      3  N   UNL     1       1.423  10.145  18.514  0.00  0.00    +0.000 NA
ATOM      4  C   UNL     1       0.874  11.057  19.328  0.00  0.00    +0.000 A 
ATOM      5  N   UNL     1       1.061  12.418  19.021  0.00  0.00    +0.000 N 
ATOM      6  C   UNL     1       2.338  12.707  18.367  0.00  0.00    +0.000 C 
ATOM      7  C   UNL     1      -0.096  13.133  18.506  0.00  0.00    +0.000 C 
ATOM      8  C   UNL     1       0.329  10.697  20.565  0.00  0.00    +0.000 A 
ATOM      9  C   UNL     1      -0.445  11.549  21.400  0.00  0.00    +0.000 A 
ATOM     10  C   UNL     1      -0.820  11.158  22.678  0.00  0.00    +0.000 A 
ATOM     11  C   UNL     1      -0.388   9.930  23.154  0.00  0.00    +0.000 A 
ATOM     12  C   UNL     1       0.336   9.072  22.311  0.00  0.00    +0.000 A 
ATOM     13  C   UNL     1       0.663   9.406  20.996  0.00  0.00    +0.000 A 
ATOM     14  N   UNL     1       1.297   8.514  20.210  0.00  0.00    +0.000 NA
ATOM     15  H   UNL     1       2.107   8.588  17.126  0.00  0.00    +0.000 HD
ENDROOT
BRANCH   1  20
ATOM     16  C   UNL     1       3.351   4.541  18.322  0.00  0.00    +0.000 A 
ATOM     17  C   UNL     1       4.644   4.714  17.836  0.00  0.00    +0.000 A 
ATOM     18  C   UNL     1       5.065   5.962  17.384  0.00  0.00    +0.000 A 
ATOM     19  C   UNL     1       4.182   7.037  17.435  0.00  0.00    +0.000 A 
ATOM     20  C   UNL     1       2.880   6.900  17.953  0.00  0.00    +0.000 A 
ATOM     21  C   UNL     1       2.463   5.627  18.361  0.00  0.00    +0.000 A 
BRANCH  16  23
ATOM     22  C   UNL     1       2.561   2.379  17.748  0.00  0.00    +0.000 C 
ATOM     23  O   UNL     1       3.078   3.263  18.732  0.00  0.00    +0.000 OA
ENDBRANCH  16  23
ENDBRANCH   1  20
TORSDOF 2
ENDMDL
MODEL 5
REMARK VINA RESULT:      -7.5      3.583      7.345
REMARK  Name = 
REMARK  5 active torsions:
REMARK  status: ('A' for Active; 'I' for Inactive)
REMARK    1  A    between atoms: C_1  and  O_2
REMARK    2  A    between atoms: O_2  and  C_3
REMARK    3  A    between atoms: C_7  and  N_8
REMARK    4  A    between atoms: N_12  and  C_13
REMARK    5  A    between atoms: N_12  and  C_14
REMARK                            x       y       z     vdW  Elec       q    Type
REMARK                         _______ _______ _______ _____ _____    ______ ____
ROOT
ATOM      1  N   UNL     1       2.467   8.150  18.872  0.00  0.00    +0.000 N 
ATOM      2  C   UNL     1       2.685   6.844  18.439  0.00  0.00    +0.000 A 
ATOM      3  N   UNL     1       3.852   6.706  17.801  0.00  0.00    +0.000 NA
ATOM      4  C   UNL     1       4.243   5.481  17.423  0.00  0.00    +0.000 A 
ATOM      5  N   UNL     1       5.233   5.379  16.429  0.00  0.00    +0.000 N 
ATOM      6  C   UNL     1       5.201   6.463  15.447  0.00  0.00    +0.000 C 
ATOM      7  C   UNL     1       6.554   4.955  16.869  0.00  0.00    +0.000 C 
ATOM      8  C   UNL     1       3.543   4.337  17.821  0.00  0.00    +0.000 A 
ATOM      9  C   UNL     1       3.989   2.998  17.640  0.00  0.00    +0.000 A 
ATOM     10  C   UNL     1       3.165   1.919  17.930  0.00  0.00    +0.000 A 
ATOM     11  C   UNL     1       1.870   2.165  18.361  0.00  0.00    +0.000 A 
ATOM     12  C   UNL     1       1.449   3.485  18.583  0.00  0.00    +0.000 A 
ATOM     13  C   UNL     1       2.280   4.587  18.374  0.00  0.00    +0.000 A 
ATOM     14  N   UNL     1       1.846   5.827  18.672  0.00  0.00    +0.000 NA
ATOM     15  H   UNL     1       3.303   8.664  18.628  0.00  0.00    +0.000 HD
ENDROOT
BRANCH   1  20
ATOM     16  C   UNL     1      -0.554  10.279  18.290  0.00  0.00    +0.000 A 
ATOM     17  C   UNL     1      -0.908  10.556  19.607  0.00  0.00    +0.000 A 
ATOM     18  C   UNL     1      -0.168  10.027  20.661  0.00  0.00    +0.000 A 
ATOM     19  C   UNL     1       0.937   9.227  20.383  0.00  0.00    +0.000 A 
ATOM     20  C   UNL     1       1.339   8.958  19.060  0.00  0.00    +0.000 A 
ATOM     21  C   UNL     1       0.555   9.464  18.017  0.00  0.00    +0.000 A 
BRANCH  16  23
ATOM     22  C   UNL     1      -2.349  10.033  16.759  0.00  0.00    +0.000 C 
ATOM     23  O   UNL     1      -1.370  10.867  17.360  0.00  0.00    +0.000 OA
ENDBRANCH  16  23
ENDBRANCH   1  20
TORSDOF 2
ENDMDL
MODEL 6
REMARK VINA RESULT:      -7.5      3.865      6.600
REMARK  Name = 
REMARK  5 active torsions:
REMARK  status: ('A' for Active; 'I' for Inactive)
REMARK    1  A    between atoms: C_1  and  O_2
REMARK    2  A    between atoms: O_2  and  C_3
REMARK    3  A    between atoms: C_7  and  N_8
REMARK    4  A    between atoms: N_12  and  C_13
REMARK    5  A    between atoms: N_12  and  C_14
REMARK                            x       y       z     vdW  Elec       q    Type
REMARK                         _______ _______ _______ _____ _____    ______ ____
ROOT
ATOM      1  N   UNL     1       2.189   8.029  17.822  0.00  0.00    +0.000 N 
ATOM      2  C   UNL     1       1.713   8.854  18.839  0.00  0.00    +0.000 A 
ATOM      3  N   UNL     1       1.492  10.104  18.421  0.00  0.00    +0.000 NA
ATOM      4  C   UNL     1       0.931  10.980  19.265  0.00  0.00    +0.000 A 
ATOM      5  N   UNL     1       1.066  12.352  18.983  0.00  0.00    +0.000 N 
ATOM      6  C   UNL     1       2.316  12.698  18.307  0.00  0.00    +0.000 C 
ATOM      7  C   UNL     1      -0.127  13.038  18.509  0.00  0.00    +0.000 C 
ATOM      8  C   UNL     1       0.428  10.577  20.507  0.00  0.00    +0.000 A 
ATOM      9  C   UNL     1      -0.355  11.385  21.376  0.00  0.00    +0.000 A 
ATOM     10  C   UNL     1      -0.688  10.956  22.654  0.00  0.00    +0.000 A 
ATOM     11  C   UNL     1      -0.203   9.734  23.095  0.00  0.00    +0.000 A 
ATOM     12  C   UNL     1       0.529   8.918  22.218  0.00  0.00    +0.000 A 
ATOM     13  C   UNL     1       0.814   9.289  20.903  0.00  0.00    +0.000 A 
ATOM     14  N   UNL     1       1.460   8.436  20.085  0.00  0.00    +0.000 NA
ATOM     15  H   UNL     1       2.196   8.599  16.986  0.00  0.00    +0.000 HD
ENDROOT
BRANCH   1  20
ATOM     16  C   UNL     1       5.179   5.832  17.343  0.00  0.00    +0.000 A 
ATOM     17  C   UNL     1       4.632   4.603  17.701  0.00  0.00    +0.000 A 
ATOM     18  C   UNL     1       3.304   4.517  18.110  0.00  0.00    +0.000 A 
ATOM     19  C   UNL     1       2.527   5.671  18.148  0.00  0.00    +0.000 A 
ATOM     20  C   UNL     1       3.044   6.922  17.760  0.00  0.00    +0.000 A 
ATOM     21  C   UNL     1       4.392   6.993  17.393  0.00  0.00    +0.000 A 
BRANCH  16  23
ATOM     22  C   UNL     1       7.258   4.701  17.507  0.00  0.00    +0.000 C 
ATOM     23  O   UNL     1       6.493   5.765  16.960  0.00  0.00    +0.000 OA
ENDBRANCH  16  23
ENDBRANCH   1  20
TORSDOF 2
ENDMDL
MODEL 7
REMARK VINA RESULT:      -7.3      3.910      7.756
REMARK  Name = 
REMARK  5 active torsions:
REMARK  status: ('A' for Active; 'I' for Inactive)
REMARK    1  A    between atoms: C_1  and  O_2
REMARK    2  A    between atoms: O_2  and  C_3
REMARK    3  A    between atoms: C_7  and  N_8
REMARK    4  A    between atoms: N_12  and  C_13
REMARK    5  A    between atoms: N_12  and  C_14
REMARK                            x       y       z     vdW  Elec       q    Type
REMARK                         _______ _______ _______ _____ _____    ______ ____
ROOT
ATOM      1  N   UNL     1       2.491   7.742  20.188  0.00  0.00    +0.000 N 
ATOM      2  C   UNL     1       2.595   6.524  19.519  0.00  0.00    +0.000 A 
ATOM      3  N   UNL     1       3.712   6.435  18.791  0.00  0.00    +0.000 NA
ATOM      4  C   UNL     1       3.996   5.277  18.180  0.00  0.00    +0.000 A 
ATOM      5  N   UNL     1       4.921   5.297  17.120  0.00  0.00    +0.000 N 
ATOM      6  C   UNL     1       4.910   6.539  16.347  0.00  0.00    +0.000 C 
ATOM      7  C   UNL     1       6.232   4.725  17.390  0.00  0.00    +0.000 C 
ATOM      8  C   UNL     1       3.242   4.122  18.417  0.00  0.00    +0.000 A 
ATOM      9  C   UNL     1       3.584   2.815  17.975  0.00  0.00    +0.000 A 
ATOM     10  C   UNL     1       2.705   1.751  18.126  0.00  0.00    +0.000 A 
ATOM     11  C   UNL     1       1.456   1.990  18.678  0.00  0.00    +0.000 A 
ATOM     12  C   UNL     1       1.140   3.272  19.155  0.00  0.00    +0.000 A 
ATOM     13  C   UNL     1       2.032   4.343  19.087  0.00  0.00    +0.000 A 
ATOM     14  N   UNL     1       1.701   5.533  19.626  0.00  0.00    +0.000 NA
ATOM     15  H   UNL     1       3.346   8.242  19.982  0.00  0.00    +0.000 HD
ENDROOT
BRANCH   1  20
ATOM     16  C   UNL     1      -0.357  10.168  20.197  0.00  0.00    +0.000 A 
ATOM     17  C   UNL     1      -0.672  10.161  21.553  0.00  0.00    +0.000 A 
ATOM     18  C   UNL     1       0.036   9.350  22.436  0.00  0.00    +0.000 A 
ATOM     19  C   UNL     1       1.070   8.555  21.949  0.00  0.00    +0.000 A 
ATOM     20  C   UNL     1       1.433   8.567  20.588  0.00  0.00    +0.000 A 
ATOM     21  C   UNL     1       0.680   9.357  19.712  0.00  0.00    +0.000 A 
BRANCH  16  23
ATOM     22  C   UNL     1      -1.527  10.546  18.168  0.00  0.00    +0.000 C 
ATOM     23  O   UNL     1      -1.134  11.014  19.450  0.00  0.00    +0.000 OA
ENDBRANCH  16  23
ENDBRANCH   1  20
TORSDOF 2
ENDMDL
MODEL 8
REMARK VINA RESULT:      -7.1      3.802      7.347
REMARK  Name = 
REMARK  5 active torsions:
REMARK  status: ('A' for Active; 'I' for Inactive)
REMARK    1  A    between atoms: C_1  and  O_2
REMARK    2  A    between atoms: O_2  and  C_3
REMARK    3  A    between atoms: C_7  and  N_8
REMARK    4  A    between atoms: N_12  and  C_13
REMARK    5  A    between atoms: N_12  and  C_14
REMARK                            x       y       z     vdW  Elec       q    Type
REMARK                         _______ _______ _______ _____ _____    ______ ____
ROOT
ATOM      1  N   UNL     1       1.659   7.485  18.565  0.00  0.00    +0.000 N 
ATOM      2  C   UNL     1       2.776   6.697  18.298  0.00  0.00    +0.000 A 
ATOM      3  N   UNL     1       2.540   5.395  18.488  0.00  0.00    +0.000 NA
ATOM      4  C   UNL     1       3.493   4.510  18.166  0.00  0.00    +0.000 A 
ATOM      5  N   UNL     1       3.415   3.220  18.722  0.00  0.00    +0.000 N 
ATOM      6  C   UNL     1       2.817   3.186  20.058  0.00  0.00    +0.000 C 
ATOM      7  C   UNL     1       3.025   2.146  17.821  0.00  0.00    +0.000 C 
ATOM      8  C   UNL     1       4.654   4.901  17.490  0.00  0.00    +0.000 A 
ATOM      9  C   UNL     1       5.618   4.015  16.935  0.00  0.00    +0.000 A 
ATOM     10  C   UNL     1       6.814   4.488  16.413  0.00  0.00    +0.000 A 
ATOM     11  C   UNL     1       7.082   5.847  16.481  0.00  0.00    +0.000 A 
ATOM     12  C   UNL     1       6.109   6.723  16.987  0.00  0.00    +0.000 A 
ATOM     13  C   UNL     1       4.866   6.286  17.449  0.00  0.00    +0.000 A 
ATOM     14  N   UNL     1       3.945   7.179  17.857  0.00  0.00    +0.000 NA
ATOM     15  H   UNL     1       0.914   6.839  18.793  0.00  0.00    +0.000 HD
ENDROOT
BRANCH   1  20
ATOM     16  C   UNL     1       0.884  10.404  20.773  0.00  0.00    +0.000 A 
ATOM     17  C   UNL     1       1.090  11.445  19.873  0.00  0.00    +0.000 A 
ATOM     18  C   UNL     1       1.498  11.178  18.569  0.00  0.00    +0.000 A 
ATOM     19  C   UNL     1       1.686   9.857  18.172  0.00  0.00    +0.000 A 
ATOM     20  C   UNL     1       1.452   8.782  19.051  0.00  0.00    +0.000 A 
ATOM     21  C   UNL     1       1.085   9.075  20.369  0.00  0.00    +0.000 A 
BRANCH  16  23
ATOM     22  C   UNL     1      -0.357   9.926  22.738  0.00  0.00    +0.000 C 
ATOM     23  O   UNL     1       0.483  10.816  22.017  0.00  0.00    +0.000 OA
ENDBRANCH  16  23
ENDBRANCH   1  20
TORSDOF 2
ENDMDL
MODEL 9
REMARK VINA RESULT:      -7.1      3.628      7.434
REMARK  Name = 
REMARK  5 active torsions:
REMARK  status: ('A' for Active; 'I' for Inactive)
REMARK    1  A    between atoms: C_1  and  O_2
REMARK    2  A    between atoms: O_2  and  C_3
REMARK    3  A    between atoms: C_7  and  N_8
REMARK    4  A    between atoms: N_12  and  C_13
REMARK    5  A    between atoms: N_12  and  C_14
REMARK                            x       y       z     vdW  Elec       q    Type
REMARK                         _______ _______ _______ _____ _____    ______ ____
ROOT
ATOM      1  N   UNL     1       1.682   6.648  19.378  0.00  0.00    +0.000 N 
ATOM      2  C   UNL     1       2.718   6.018  18.692  0.00  0.00    +0.000 A 
ATOM      3  N   UNL     1       2.822   4.722  19.004  0.00  0.00    +0.000 NA
ATOM      4  C   UNL     1       3.707   3.966  18.340  0.00  0.00    +0.000 A 
ATOM      5  N   UNL     1       4.100   2.744  18.918  0.00  0.00    +0.000 N 
ATOM      6  C   UNL     1       4.114   2.759  20.381  0.00  0.00    +0.000 C 
ATOM      7  C   UNL     1       3.581   1.535  18.297  0.00  0.00    +0.000 C 
ATOM      8  C   UNL     1       4.399   4.458  17.228  0.00  0.00    +0.000 A 
ATOM      9  C   UNL     1       5.199   3.678  16.349  0.00  0.00    +0.000 A 
ATOM     10  C   UNL     1       5.970   4.272  15.359  0.00  0.00    +0.000 A 
ATOM     11  C   UNL     1       5.988   5.655  15.266  0.00  0.00    +0.000 A 
ATOM     12  C   UNL     1       5.162   6.419  16.105  0.00  0.00    +0.000 A 
ATOM     13  C   UNL     1       4.318   5.846  17.058  0.00  0.00    +0.000 A 
ATOM     14  N   UNL     1       3.495   6.625  17.787  0.00  0.00    +0.000 NA
ATOM     15  H   UNL     1       1.227   5.922  19.917  0.00  0.00    +0.000 HD
ENDROOT
BRANCH   1  20
ATOM     16  C   UNL     1       1.012   9.568  21.620  0.00  0.00    +0.000 A 
ATOM     17  C   UNL     1       1.032  10.597  20.683  0.00  0.00    +0.000 A 
ATOM     18  C   UNL     1       1.283  10.323  19.342  0.00  0.00    +0.000 A 
ATOM     19  C   UNL     1       1.504   9.007  18.946  0.00  0.00    +0.000 A 
ATOM     20  C   UNL     1       1.456   7.941  19.865  0.00  0.00    +0.000 A 
ATOM     21  C   UNL     1       1.245   8.244  21.215  0.00  0.00    +0.000 A 
BRANCH  16  23
ATOM     22  C   UNL     1      -0.617  10.130  23.249  0.00  0.00    +0.000 C 
ATOM     23  O   UNL     1       0.751   9.985  22.898  0.00  0.00    +0.000 OA
ENDBRANCH  16  23
ENDBRANCH   1  20
TORSDOF 2
ENDMDL
