MODEL 1
REMARK VINA RESULT:      -7.1      0.000      0.000
REMARK  Name = 
REMARK  7 active torsions:
REMARK  status: ('A' for Active; 'I' for Inactive)
REMARK    1  A    between atoms: C_1  and  C_2
REMARK    2  A    between atoms: C_2  and  O_3
REMARK    3  A    between atoms: O_3  and  C_4
REMARK    4  A    between atoms: C_4  and  C_6
REMARK    5  A    between atoms: C_9  and  C_10
REMARK    6  A    between atoms: C_10  and  O_11
REMARK    7  A    between atoms: O_11  and  C_12
REMARK                            x       y       z     vdW  Elec       q    Type
REMARK                         _______ _______ _______ _____ _____    ______ ____
ROOT
ATOM      1  C   UNL     1       5.589   5.077  15.806  0.00  0.00    +0.000 A 
ATOM      2  C   UNL     1       4.817   4.025  16.310  0.00  0.00    +0.000 A 
ATOM      3  C   UNL     1       3.854   4.259  17.292  0.00  0.00    +0.000 A 
ATOM      4  C   UNL     1       3.641   5.555  17.783  0.00  0.00    +0.000 A 
ATOM      5  C   UNL     1       4.438   6.603  17.301  0.00  0.00    +0.000 A 
ATOM      6  C   UNL     1       5.405   6.371  16.313  0.00  0.00    +0.000 A 
ENDROOT
BRANCH   1   7
ATOM      7  C   UNL     1       6.622   4.752  14.790  0.00  0.00    +0.000 C 
ATOM      8  O   UNL     1       7.576   5.477  14.547  0.00  0.00    +0.000 OA
BRANCH   7   9
ATOM      9  O   UNL     1       6.292   3.620  14.120  0.00  0.00    +0.000 OA
BRANCH   9  11
ATOM     10  C   UNL     1       5.243   3.263  12.008  0.00  0.00    +0.000 C 
ATOM     11  C   UNL     1       6.528   3.665  12.705  0.00  0.00    +0.000 C 
ENDBRANCH   9  11
ENDBRANCH   7   9
ENDBRANCH   1   7
BRANCH   4  12
ATOM     12  C   UNL     1       2.577   5.816  18.822  0.00  0.00    +0.000 C 
BRANCH  12  13
ATOM     13  O   UNL     1       2.913   7.001  19.543  0.00  0.00    +0.000 OA
BRANCH  13  14
ATOM     14  C   UNL     1       1.988   8.007  19.497  0.00  0.00    +0.000 A 
ATOM     15  C   UNL     1       1.302   8.241  20.693  0.00  0.00    +0.000 A 
ATOM     16  C   UNL     1       0.343   9.251  20.778  0.00  0.00    +0.000 A 
ATOM     17  C   UNL     1       0.077  10.045  19.664  0.00  0.00    +0.000 A 
ATOM     18 CL   UNL     1      -1.100  11.294  19.763  0.00  0.00    +0.000 Cl
ATOM     19  C   UNL     1       0.769   9.835  18.475  0.00  0.00    +0.000 A 
ATOM     20  C   UNL     1       1.725   8.816  18.387  0.00  0.00    +0.000 A 
ENDBRANCH  13  14
ENDBRANCH  12  13
ENDBRANCH   4  12
TORSDOF 6
ENDMDL
MODEL 2
REMARK VINA RESULT:      -6.9      1.079      1.583
REMARK  Name = 
REMARK  7 active torsions:
REMARK  status: ('A' for Active; 'I' for Inactive)
REMARK    1  A    between atoms: C_1  and  C_2
REMARK    2  A    between atoms: C_2  and  O_3
REMARK    3  A    between atoms: O_3  and  C_4
REMARK    4  A    between atoms: C_4  and  C_6
REMARK    5  A    between atoms: C_9  and  C_10
REMARK    6  A    between atoms: C_10  and  O_11
REMARK    7  A    between atoms: O_11  and  C_12
REMARK                            x       y       z     vdW  Elec       q    Type
REMARK                         _______ _______ _______ _____ _____    ______ ____
ROOT
ATOM      1  C   UNL     1       6.139   5.006  15.710  0.00  0.00    +0.000 A 
ATOM      2  C   UNL     1       5.127   4.125  16.105  0.00  0.00    +0.000 A 
ATOM      3  C   UNL     1       4.498   4.275  17.341  0.00  0.00    +0.000 A 
ATOM      4  C   UNL     1       4.869   5.316  18.204  0.00  0.00    +0.000 A 
ATOM      5  C   UNL     1       5.907   6.178  17.821  0.00  0.00    +0.000 A 
ATOM      6  C   UNL     1       6.538   6.031  16.579  0.00  0.00    +0.000 A 
ENDROOT
BRANCH   1   7
ATOM      7  C   UNL     1       6.792   4.766  14.397  0.00  0.00    +0.000 C 
ATOM      8  O   UNL     1       7.788   5.366  14.024  0.00  0.00    +0.000 OA
BRANCH   7   9
ATOM      9  O   UNL     1       6.069   3.887  13.660  0.00  0.00    +0.000 OA
BRANCH   9  11
ATOM     10  C   UNL     1       5.838   2.471  11.754  0.00  0.00    +0.000 C 
ATOM     11  C   UNL     1       6.548   3.684  12.322  0.00  0.00    +0.000 C 
ENDBRANCH   9  11
ENDBRANCH   7   9
ENDBRANCH   1   7
BRANCH   4  12
ATOM     12  C   UNL     1       4.168   5.500  19.529  0.00  0.00    +0.000 C 
BRANCH  12  13
ATOM     13  O   UNL     1       2.767   5.635  19.298  0.00  0.00    +0.000 OA
BRANCH  13  14
ATOM     14  C   UNL     1       2.282   6.914  19.310  0.00  0.00    +0.000 A 
ATOM     15  C   UNL     1       2.332   7.581  18.082  0.00  0.00    +0.000 A 
ATOM     16  C   UNL     1       1.854   8.887  17.962  0.00  0.00    +0.000 A 
ATOM     17  C   UNL     1       1.307   9.526  19.073  0.00  0.00    +0.000 A 
ATOM     18 CL   UNL     1       0.712  11.133  18.931  0.00  0.00    +0.000 Cl
ATOM     19  C   UNL     1       1.232   8.864  20.294  0.00  0.00    +0.000 A 
ATOM     20  C   UNL     1       1.720   7.557  20.417  0.00  0.00    +0.000 A 
ENDBRANCH  13  14
ENDBRANCH  12  13
ENDBRANCH   4  12
TORSDOF 6
ENDMDL
MODEL 3
REMARK VINA RESULT:      -6.8      1.035      1.109
REMARK  Name = 
REMARK  7 active torsions:
REMARK  status: ('A' for Active; 'I' for Inactive)
REMARK    1  A    between atoms: C_1  and  C_2
REMARK    2  A    between atoms: C_2  and  O_3
REMARK    3  A    between atoms: O_3  and  C_4
REMARK    4  A    between atoms: C_4  and  C_6
REMARK    5  A    between atoms: C_9  and  C_10
REMARK    6  A    between atoms: C_10  and  O_11
REMARK    7  A    between atoms: O_11  and  C_12
REMARK                            x       y       z     vdW  Elec       q    Type
REMARK                         _______ _______ _______ _____ _____    ______ ____
ROOT
ATOM      1  C   UNL     1       6.192   4.955  15.635  0.00  0.00    +0.000 A 
ATOM      2  C   UNL     1       5.386   3.944  16.167  0.00  0.00    +0.000 A 
ATOM      3  C   UNL     1       4.728   4.128  17.384  0.00  0.00    +0.000 A 
ATOM      4  C   UNL     1       4.860   5.333  18.088  0.00  0.00    +0.000 A 
ATOM      5  C   UNL     1       5.696   6.333  17.570  0.00  0.00    +0.000 A 
ATOM      6  C   UNL     1       6.356   6.152  16.347  0.00  0.00    +0.000 A 
ENDROOT
BRANCH   1   7
ATOM      7  C   UNL     1       6.894   4.679  14.355  0.00  0.00    +0.000 C 
ATOM      8  O   UNL     1       7.815   5.362  13.934  0.00  0.00    +0.000 OA
BRANCH   7   9
ATOM      9  O   UNL     1       6.300   3.652  13.699  0.00  0.00    +0.000 OA
BRANCH   9  11
ATOM     10  C   UNL     1       5.910   2.410  11.700  0.00  0.00    +0.000 C 
ATOM     11  C   UNL     1       6.335   3.750  12.267  0.00  0.00    +0.000 C 
ENDBRANCH   9  11
ENDBRANCH   7   9
ENDBRANCH   1   7
BRANCH   4  12
ATOM     12  C   UNL     1       4.123   5.547  19.388  0.00  0.00    +0.000 C 
BRANCH  12  13
ATOM     13  O   UNL     1       2.730   5.687  19.114  0.00  0.00    +0.000 OA
BRANCH  13  14
ATOM     14  C   UNL     1       2.254   6.969  19.092  0.00  0.00    +0.000 A 
ATOM     15  C   UNL     1       1.775   7.447  20.316  0.00  0.00    +0.000 A 
ATOM     16  C   UNL     1       1.276   8.746  20.427  0.00  0.00    +0.000 A 
ATOM     17  C   UNL     1       1.269   9.579  19.310  0.00  0.00    +0.000 A 
ATOM     18 CL   UNL     1       0.660  11.182  19.440  0.00  0.00    +0.000 Cl
ATOM     19  C   UNL     1       1.763   9.121  18.093  0.00  0.00    +0.000 A 
ATOM     20  C   UNL     1       2.256   7.815  17.980  0.00  0.00    +0.000 A 
ENDBRANCH  13  14
ENDBRANCH  12  13
ENDBRANCH   4  12
TORSDOF 6
ENDMDL
MODEL 4
REMARK VINA RESULT:      -6.7      0.508      1.203
REMARK  Name = 
REMARK  7 active torsions:
REMARK  status: ('A' for Active; 'I' for Inactive)
REMARK    1  A    between atoms: C_1  and  C_2
REMARK    2  A    between atoms: C_2  and  O_3
REMARK    3  A    between atoms: O_3  and  C_4
REMARK    4  A    between atoms: C_4  and  C_6
REMARK    5  A    between atoms: C_9  and  C_10
REMARK    6  A    between atoms: C_10  and  O_11
REMARK    7  A    between atoms: O_11  and  C_12
REMARK                            x       y       z     vdW  Elec       q    Type
REMARK                         _______ _______ _______ _____ _____    ______ ____
ROOT
ATOM      1  C   UNL     1       5.610   5.101  16.010  0.00  0.00    +0.000 A 
ATOM      2  C   UNL     1       4.991   4.064  16.716  0.00  0.00    +0.000 A 
ATOM      3  C   UNL     1       3.939   4.333  17.592  0.00  0.00    +0.000 A 
ATOM      4  C   UNL     1       3.483   5.646  17.773  0.00  0.00    +0.000 A 
ATOM      5  C   UNL     1       4.126   6.688  17.091  0.00  0.00    +0.000 A 
ATOM      6  C   UNL     1       5.181   6.421  16.208  0.00  0.00    +0.000 A 
ENDROOT
BRANCH   1   7
ATOM      7  C   UNL     1       6.749   4.751  15.122  0.00  0.00    +0.000 C 
ATOM      8  O   UNL     1       7.741   5.452  14.996  0.00  0.00    +0.000 OA
BRANCH   7   9
ATOM      9  O   UNL     1       6.473   3.626  14.417  0.00  0.00    +0.000 OA
BRANCH   9  11
ATOM     10  C   UNL     1       6.461   3.329  12.050  0.00  0.00    +0.000 C 
ATOM     11  C   UNL     1       5.672   3.831  13.243  0.00  0.00    +0.000 C 
ENDBRANCH   9  11
ENDBRANCH   7   9
ENDBRANCH   1   7
BRANCH   4  12
ATOM     12  C   UNL     1       2.323   5.935  18.696  0.00  0.00    +0.000 C 
BRANCH  12  13
ATOM     13  O   UNL     1       2.739   6.879  19.681  0.00  0.00    +0.000 OA
BRANCH  13  14
ATOM     14  C   UNL     1       1.860   7.896  19.938  0.00  0.00    +0.000 A 
ATOM     15  C   UNL     1       1.612   8.753  18.861  0.00  0.00    +0.000 A 
ATOM     16  C   UNL     1       0.723   9.821  18.992  0.00  0.00    +0.000 A 
ATOM     17  C   UNL     1       0.066  10.026  20.204  0.00  0.00    +0.000 A 
ATOM     18 CL   UNL     1      -1.034  11.338  20.371  0.00  0.00    +0.000 Cl
ATOM     19  C   UNL     1       0.290   9.167  21.275  0.00  0.00    +0.000 A 
ATOM     20  C   UNL     1       1.188   8.101  21.146  0.00  0.00    +0.000 A 
ENDBRANCH  13  14
ENDBRANCH  12  13
ENDBRANCH   4  12
TORSDOF 6
ENDMDL
MODEL 5
REMARK VINA RESULT:      -6.7      1.134      1.210
REMARK  Name = 
REMARK  7 active torsions:
REMARK  status: ('A' for Active; 'I' for Inactive)
REMARK    1  A    between atoms: C_1  and  C_2
REMARK    2  A    between atoms: C_2  and  O_3
REMARK    3  A    between atoms: O_3  and  C_4
REMARK    4  A    between atoms: C_4  and  C_6
REMARK    5  A    between atoms: C_9  and  C_10
REMARK    6  A    between atoms: C_10  and  O_11
REMARK    7  A    between atoms: O_11  and  C_12
REMARK                            x       y       z     vdW  Elec       q    Type
REMARK                         _______ _______ _______ _____ _____    ______ ____
ROOT
ATOM      1  C   UNL     1       5.627   4.502  16.994  0.00  0.00    +0.000 A 
ATOM      2  C   UNL     1       4.338   4.075  16.659  0.00  0.00    +0.000 A 
ATOM      3  C   UNL     1       3.263   4.330  17.512  0.00  0.00    +0.000 A 
ATOM      4  C   UNL     1       3.459   5.024  18.713  0.00  0.00    +0.000 A 
ATOM      5  C   UNL     1       4.757   5.422  19.064  0.00  0.00    +0.000 A 
ATOM      6  C   UNL     1       5.838   5.170  18.208  0.00  0.00    +0.000 A 
ENDROOT
BRANCH   1   7
ATOM      7  C   UNL     1       6.732   4.164  16.060  0.00  0.00    +0.000 C 
ATOM      8  O   UNL     1       7.897   4.474  16.259  0.00  0.00    +0.000 OA
BRANCH   7   9
ATOM      9  O   UNL     1       6.245   3.577  14.939  0.00  0.00    +0.000 OA
BRANCH   9  11
ATOM     10  C   UNL     1       6.065   3.423  12.566  0.00  0.00    +0.000 C 
ATOM     11  C   UNL     1       6.472   4.310  13.726  0.00  0.00    +0.000 C 
ENDBRANCH   9  11
ENDBRANCH   7   9
ENDBRANCH   1   7
BRANCH   4  12
ATOM     12  C   UNL     1       2.292   5.330  19.622  0.00  0.00    +0.000 C 
BRANCH  12  13
ATOM     13  O   UNL     1       2.562   6.536  20.334  0.00  0.00    +0.000 OA
BRANCH  13  14
ATOM     14  C   UNL     1       1.953   7.662  19.849  0.00  0.00    +0.000 A 
ATOM     15  C   UNL     1       1.162   8.354  20.770  0.00  0.00    +0.000 A 
ATOM     16  C   UNL     1       0.500   9.526  20.401  0.00  0.00    +0.000 A 
ATOM     17  C   UNL     1       0.642  10.019  19.105  0.00  0.00    +0.000 A 
ATOM     18 CL   UNL     1      -0.167  11.464  18.644  0.00  0.00    +0.000 Cl
ATOM     19  C   UNL     1       1.444   9.349  18.186  0.00  0.00    +0.000 A 
ATOM     20  C   UNL     1       2.101   8.169  18.554  0.00  0.00    +0.000 A 
ENDBRANCH  13  14
ENDBRANCH  12  13
ENDBRANCH   4  12
TORSDOF 6
ENDMDL
MODEL 6
REMARK VINA RESULT:      -6.7      1.109      1.931
REMARK  Name = 
REMARK  7 active torsions:
REMARK  status: ('A' for Active; 'I' for Inactive)
REMARK    1  A    between atoms: C_1  and  C_2
REMARK    2  A    between atoms: C_2  and  O_3
REMARK    3  A    between atoms: O_3  and  C_4
REMARK    4  A    between atoms: C_4  and  C_6
REMARK    5  A    between atoms: C_9  and  C_10
REMARK    6  A    between atoms: C_10  and  O_11
REMARK    7  A    between atoms: O_11  and  C_12
REMARK                            x       y       z     vdW  Elec       q    Type
REMARK                         _______ _______ _______ _____ _____    ______ ____
ROOT
ATOM      1  C   UNL     1       5.180   5.198  16.175  0.00  0.00    +0.000 A 
ATOM      2  C   UNL     1       5.019   6.573  16.377  0.00  0.00    +0.000 A 
ATOM      3  C   UNL     1       4.107   7.049  17.319  0.00  0.00    +0.000 A 
ATOM      4  C   UNL     1       3.344   6.156  18.083  0.00  0.00    +0.000 A 
ATOM      5  C   UNL     1       3.482   4.778  17.856  0.00  0.00    +0.000 A 
ATOM      6  C   UNL     1       4.399   4.298  16.912  0.00  0.00    +0.000 A 
ENDROOT
BRANCH   1   7
ATOM      7  C   UNL     1       6.140   4.760  15.129  0.00  0.00    +0.000 C 
ATOM      8  O   UNL     1       7.350   4.728  15.300  0.00  0.00    +0.000 OA
BRANCH   7   9
ATOM      9  O   UNL     1       5.494   4.518  13.962  0.00  0.00    +0.000 OA
BRANCH   9  11
ATOM     10  C   UNL     1       5.158   3.172  12.022  0.00  0.00    +0.000 C 
ATOM     11  C   UNL     1       6.149   3.581  13.093  0.00  0.00    +0.000 C 
ENDBRANCH   9  11
ENDBRANCH   7   9
ENDBRANCH   1   7
BRANCH   4  12
ATOM     12  C   UNL     1       2.380   6.668  19.127  0.00  0.00    +0.000 C 
BRANCH  12  13
ATOM     13  O   UNL     1       2.156   8.060  18.909  0.00  0.00    +0.000 OA
BRANCH  13  14
ATOM     14  C   UNL     1       1.438   8.705  19.878  0.00  0.00    +0.000 A 
ATOM     15  C   UNL     1       0.724   9.826  19.442  0.00  0.00    +0.000 A 
ATOM     16  C   UNL     1      -0.059  10.562  20.333  0.00  0.00    +0.000 A 
ATOM     17  C   UNL     1      -0.143  10.166  21.666  0.00  0.00    +0.000 A 
ATOM     18 CL   UNL     1      -1.109  11.065  22.768  0.00  0.00    +0.000 Cl
ATOM     19  C   UNL     1       0.546   9.039  22.106  0.00  0.00    +0.000 A 
ATOM     20  C   UNL     1       1.338   8.307  21.214  0.00  0.00    +0.000 A 
ENDBRANCH  13  14
ENDBRANCH  12  13
ENDBRANCH   4  12
TORSDOF 6
ENDMDL
MODEL 7
REMARK VINA RESULT:      -6.6      3.665      4.359
REMARK  Name = 
REMARK  7 active torsions:
REMARK  status: ('A' for Active; 'I' for Inactive)
REMARK    1  A    between atoms: C_1  and  C_2
REMARK    2  A    between atoms: C_2  and  O_3
REMARK    3  A    between atoms: O_3  and  C_4
REMARK    4  A    between atoms: C_4  and  C_6
REMARK    5  A    between atoms: C_9  and  C_10
REMARK    6  A    between atoms: C_10  and  O_11
REMARK    7  A    between atoms: O_11  and  C_12
REMARK                            x       y       z     vdW  Elec       q    Type
REMARK                         _______ _______ _______ _____ _____    ______ ____
ROOT
ATOM      1  C   UNL     1       6.580   4.896  15.070  0.00  0.00    +0.000 A 
ATOM      2  C   UNL     1       7.415   4.351  16.052  0.00  0.00    +0.000 A 
ATOM      3  C   UNL     1       7.213   4.650  17.400  0.00  0.00    +0.000 A 
ATOM      4  C   UNL     1       6.166   5.496  17.791  0.00  0.00    +0.000 A 
ATOM      5  C   UNL     1       5.350   6.068  16.803  0.00  0.00    +0.000 A 
ATOM      6  C   UNL     1       5.550   5.768  15.449  0.00  0.00    +0.000 A 
ENDROOT
BRANCH   1   7
ATOM      7  C   UNL     1       6.874   4.567  13.652  0.00  0.00    +0.000 C 
ATOM      8  O   UNL     1       7.465   5.324  12.896  0.00  0.00    +0.000 OA
BRANCH   7   9
ATOM      9  O   UNL     1       6.307   3.384  13.310  0.00  0.00    +0.000 OA
BRANCH   9  11
ATOM     10  C   UNL     1       5.692   2.048  11.432  0.00  0.00    +0.000 C 
ATOM     11  C   UNL     1       5.552   3.407  12.089  0.00  0.00    +0.000 C 
ENDBRANCH   9  11
ENDBRANCH   7   9
ENDBRANCH   1   7
BRANCH   4  12
ATOM     12  C   UNL     1       5.925   5.794  19.251  0.00  0.00    +0.000 C 
BRANCH  12  13
ATOM     13  O   UNL     1       5.568   4.586  19.919  0.00  0.00    +0.000 OA
BRANCH  13  14
ATOM     14  C   UNL     1       4.316   4.104  19.649  0.00  0.00    +0.000 A 
ATOM     15  C   UNL     1       4.268   2.765  19.248  0.00  0.00    +0.000 A 
ATOM     16  C   UNL     1       3.048   2.152  18.957  0.00  0.00    +0.000 A 
ATOM     17  C   UNL     1       1.865   2.878  19.083  0.00  0.00    +0.000 A 
ATOM     18 CL   UNL     1       0.358   2.129  18.731  0.00  0.00    +0.000 Cl
ATOM     19  C   UNL     1       1.900   4.205  19.501  0.00  0.00    +0.000 A 
ATOM     20  C   UNL     1       3.125   4.822  19.785  0.00  0.00    +0.000 A 
ENDBRANCH  13  14
ENDBRANCH  12  13
ENDBRANCH   4  12
TORSDOF 6
ENDMDL
MODEL 8
REMARK VINA RESULT:      -6.6      3.533      4.469
REMARK  Name = 
REMARK  7 active torsions:
REMARK  status: ('A' for Active; 'I' for Inactive)
REMARK    1  A    between atoms: C_1  and  C_2
REMARK    2  A    between atoms: C_2  and  O_3
REMARK    3  A    between atoms: O_3  and  C_4
REMARK    4  A    between atoms: C_4  and  C_6
REMARK    5  A    between atoms: C_9  and  C_10
REMARK    6  A    between atoms: C_10  and  O_11
REMARK    7  A    between atoms: O_11  and  C_12
REMARK                            x       y       z     vdW  Elec       q    Type
REMARK                         _______ _______ _______ _____ _____    ______ ____
ROOT
ATOM      1  C   UNL     1       6.071   4.201  14.116  0.00  0.00    +0.000 A 
ATOM      2  C   UNL     1       7.286   4.745  14.546  0.00  0.00    +0.000 A 
ATOM      3  C   UNL     1       7.446   5.168  15.866  0.00  0.00    +0.000 A 
ATOM      4  C   UNL     1       6.393   5.047  16.783  0.00  0.00    +0.000 A 
ATOM      5  C   UNL     1       5.165   4.533  16.342  0.00  0.00    +0.000 A 
ATOM      6  C   UNL     1       5.002   4.105  15.018  0.00  0.00    +0.000 A 
ENDROOT
BRANCH   1   7
ATOM      7  C   UNL     1       5.956   3.806  12.689  0.00  0.00    +0.000 C 
ATOM      8  O   UNL     1       6.903   3.802  11.916  0.00  0.00    +0.000 OA
BRANCH   7   9
ATOM      9  O   UNL     1       4.662   3.566  12.364  0.00  0.00    +0.000 OA
BRANCH   9  11
ATOM     10  C   UNL     1       3.340   3.615  10.379  0.00  0.00    +0.000 C 
ATOM     11  C   UNL     1       4.468   2.906  11.104  0.00  0.00    +0.000 C 
ENDBRANCH   9  11
ENDBRANCH   7   9
ENDBRANCH   1   7
BRANCH   4  12
ATOM     12  C   UNL     1       6.574   5.474  18.220  0.00  0.00    +0.000 C 
BRANCH  12  13
ATOM     13  O   UNL     1       6.258   4.376  19.073  0.00  0.00    +0.000 OA
BRANCH  13  14
ATOM     14  C   UNL     1       4.934   4.225  19.384  0.00  0.00    +0.000 A 
ATOM     15  C   UNL     1       4.486   2.903  19.454  0.00  0.00    +0.000 A 
ATOM     16  C   UNL     1       3.158   2.618  19.777  0.00  0.00    +0.000 A 
ATOM     17  C   UNL     1       2.275   3.661  20.046  0.00  0.00    +0.000 A 
ATOM     18 CL   UNL     1       0.639   3.317  20.448  0.00  0.00    +0.000 Cl
ATOM     19  C   UNL     1       2.716   4.980  20.000  0.00  0.00    +0.000 A 
ATOM     20  C   UNL     1       4.045   5.266  19.668  0.00  0.00    +0.000 A 
ENDBRANCH  13  14
ENDBRANCH  12  13
ENDBRANCH   4  12
TORSDOF 6
ENDMDL
MODEL 9
REMARK VINA RESULT:      -6.6      1.379      1.923
REMARK  Name = 
REMARK  7 active torsions:
REMARK  status: ('A' for Active; 'I' for Inactive)
REMARK    1  A    between atoms: C_1  and  C_2
REMARK    2  A    between atoms: C_2  and  O_3
REMARK    3  A    between atoms: O_3  and  C_4
REMARK    4  A    between atoms: C_4  and  C_6
REMARK    5  A    between atoms: C_9  and  C_10
REMARK    6  A    between atoms: C_10  and  O_11
REMARK    7  A    between atoms: O_11  and  C_12
REMARK                            x       y       z     vdW  Elec       q    Type
REMARK                         _______ _______ _______ _____ _____    ______ ____
ROOT
ATOM      1  C   UNL     1       5.707   5.418  16.897  0.00  0.00    +0.000 A 
ATOM      2  C   UNL     1       5.123   6.669  16.669  0.00  0.00    +0.000 A 
ATOM      3  C   UNL     1       4.069   7.115  17.467  0.00  0.00    +0.000 A 
ATOM      4  C   UNL     1       3.584   6.318  18.513  0.00  0.00    +0.000 A 
ATOM      5  C   UNL     1       4.147   5.050  18.719  0.00  0.00    +0.000 A 
ATOM      6  C   UNL     1       5.208   4.601  17.921  0.00  0.00    +0.000 A 
ENDROOT
BRANCH   1   7
ATOM      7  C   UNL     1       6.800   4.988  15.987  0.00  0.00    +0.000 C 
ATOM      8  O   UNL     1       7.886   4.592  16.383  0.00  0.00    +0.000 OA
BRANCH   7   9
ATOM      9  O   UNL     1       6.454   5.202  14.694  0.00  0.00    +0.000 OA
BRANCH   9  11
ATOM     10  C   UNL     1       6.323   3.733  12.819  0.00  0.00    +0.000 C 
ATOM     11  C   UNL     1       5.649   4.168  14.106  0.00  0.00    +0.000 C 
ENDBRANCH   9  11
ENDBRANCH   7   9
ENDBRANCH   1   7
BRANCH   4  12
ATOM     12  C   UNL     1       2.465   6.813  19.398  0.00  0.00    +0.000 C 
BRANCH  12  13
ATOM     13  O   UNL     1       2.037   8.092  18.934  0.00  0.00    +0.000 OA
BRANCH  13  14
ATOM     14  C   UNL     1       1.298   8.829  19.819  0.00  0.00    +0.000 A 
ATOM     15  C   UNL     1       1.129   8.250  21.081  0.00  0.00    +0.000 A 
ATOM     16  C   UNL     1       0.407   8.910  22.077  0.00  0.00    +0.000 A 
ATOM     17  C   UNL     1      -0.138  10.165  21.815  0.00  0.00    +0.000 A 
ATOM     18 CL   UNL     1      -1.026  10.986  23.038  0.00  0.00    +0.000 Cl
ATOM     19  C   UNL     1       0.041  10.760  20.570  0.00  0.00    +0.000 A 
ATOM     20  C   UNL     1       0.759  10.094  19.569  0.00  0.00    +0.000 A 
ENDBRANCH  13  14
ENDBRANCH  12  13
ENDBRANCH   4  12
TORSDOF 6
ENDMDL
