MODEL 1
REMARK VINA RESULT:      -7.7      0.000      0.000
REMARK  Name = 
REMARK  8 active torsions:
REMARK  status: ('A' for Active; 'I' for Inactive)
REMARK    1  A    between atoms: C_1  and  C_2
REMARK    2  A    between atoms: C_2  and  C_3
REMARK    3  A    between atoms: C_3  and  N_4
REMARK    4  A    between atoms: C_6  and  C_7
REMARK    5  A    between atoms: C_13  and  N_14
REMARK    6  A    between atoms: C_15  and  C_17
REMARK    7  A    between atoms: C_21  and  C_22
REMARK    8  A    between atoms: C_24  and  C_25
REMARK                            x       y       z     vdW  Elec       q    Type
REMARK                         _______ _______ _______ _____ _____    ______ ____
ROOT
ATOM      1  N   UNL     1       4.005   1.873  19.154  0.00  0.00    +0.000 N 
ATOM      2  N   UNL     1       2.705   1.533  19.014  0.00  0.00    +0.000 NA
ATOM      3  C   UNL     1       2.125   2.620  18.483  0.00  0.00    +0.000 A 
ATOM      4  C   UNL     1       0.649   2.692  18.329  0.00  0.00    +0.000 C 
ATOM      5  C   UNL     1       3.077   3.639  18.230  0.00  0.00    +0.000 A 
ATOM      6  C   UNL     1       4.260   3.140  18.725  0.00  0.00    +0.000 A 
ATOM      7  N   UNL     1       5.392   3.919  18.816  0.00  0.00    +0.000 N 
ATOM      8  C   UNL     1       5.357   5.229  18.220  0.00  0.00    +0.000 C 
ATOM      9  O   UNL     1       6.068   6.081  18.723  0.00  0.00    +0.000 OA
ATOM     10  C   UNL     1       4.341   5.424  17.072  0.00  0.00    +0.000 C 
ATOM     11  C   UNL     1       2.956   5.027  17.679  0.00  0.00    +0.000 C 
ATOM     12  H   UNL     1       6.170   3.699  19.422  0.00  0.00    +0.000 HD
ENDROOT
BRANCH  11  13
ATOM     13  C   UNL     1       2.512   5.963  18.816  0.00  0.00    +0.000 A 
ATOM     14  C   UNL     1       2.104   5.384  20.036  0.00  0.00    +0.000 A 
ATOM     15  C   UNL     1       1.613   6.171  21.078  0.00  0.00    +0.000 A 
ATOM     16  C   UNL     1       1.540   7.548  20.929  0.00  0.00    +0.000 A 
ATOM     17  F   UNL     1       1.042   8.297  21.920  0.00  0.00    +0.000 F 
ATOM     18  C   UNL     1       1.961   8.157  19.761  0.00  0.00    +0.000 A 
ATOM     19  C   UNL     1       2.447   7.372  18.717  0.00  0.00    +0.000 A 
ENDBRANCH  11  13
BRANCH  10  20
ATOM     20  N   UNL     1       4.695   4.554  15.910  0.00  0.00    +0.000 N 
ATOM     21  C   UNL     1       5.483   5.066  14.892  0.00  0.00    +0.000 C 
ATOM     22  O   UNL     1       6.014   6.165  14.977  0.00  0.00    +0.000 OA
ATOM     23  H   UNL     1       4.040   3.830  15.636  0.00  0.00    +0.000 HD
BRANCH  21  24
ATOM     24  C   UNL     1       5.664   4.223  13.679  0.00  0.00    +0.000 A 
ATOM     25  C   UNL     1       6.911   3.690  13.332  0.00  0.00    +0.000 A 
ATOM     26  C   UNL     1       7.034   2.897  12.188  0.00  0.00    +0.000 A 
ATOM     27  C   UNL     1       5.915   2.619  11.400  0.00  0.00    +0.000 A 
ATOM     28  C   UNL     1       4.665   3.158  11.728  0.00  0.00    +0.000 A 
ATOM     29  C   UNL     1       3.444   2.793  10.934  0.00  0.00    +0.000 C 
ATOM     30  C   UNL     1       4.553   3.980  12.858  0.00  0.00    +0.000 A 
ENDBRANCH  21  24
ENDBRANCH  10  20
BRANCH   1  31
ATOM     31  C   UNL     1       4.945   0.942  19.740  0.00  0.00    +0.000 C 
BRANCH  31  33
ATOM     32  C   UNL     1       6.017   0.115  21.904  0.00  0.00    +0.000 C 
ATOM     33  C   UNL     1       5.250   1.231  21.209  0.00  0.00    +0.000 C 
ENDBRANCH  31  33
ENDBRANCH   1  31
TORSDOF 5
ENDMDL
MODEL 2
REMARK VINA RESULT:      -7.6      2.915      4.414
REMARK  Name = 
REMARK  8 active torsions:
REMARK  status: ('A' for Active; 'I' for Inactive)
REMARK    1  A    between atoms: C_1  and  C_2
REMARK    2  A    between atoms: C_2  and  C_3
REMARK    3  A    between atoms: C_3  and  N_4
REMARK    4  A    between atoms: C_6  and  C_7
REMARK    5  A    between atoms: C_13  and  N_14
REMARK    6  A    between atoms: C_15  and  C_17
REMARK    7  A    between atoms: C_21  and  C_22
REMARK    8  A    between atoms: C_24  and  C_25
REMARK                            x       y       z     vdW  Elec       q    Type
REMARK                         _______ _______ _______ _____ _____    ______ ____
ROOT
ATOM      1  N   UNL     1       4.041   4.570  18.503  0.00  0.00    +0.000 N 
ATOM      2  N   UNL     1       3.238   5.616  18.207  0.00  0.00    +0.000 NA
ATOM      3  C   UNL     1       4.005   6.436  17.473  0.00  0.00    +0.000 A 
ATOM      4  C   UNL     1       3.519   7.787  17.090  0.00  0.00    +0.000 C 
ATOM      5  C   UNL     1       5.289   5.877  17.251  0.00  0.00    +0.000 A 
ATOM      6  C   UNL     1       5.289   4.707  17.974  0.00  0.00    +0.000 A 
ATOM      7  N   UNL     1       6.434   3.962  18.145  0.00  0.00    +0.000 N 
ATOM      8  C   UNL     1       7.605   4.349  17.403  0.00  0.00    +0.000 C 
ATOM      9  O   UNL     1       8.684   4.092  17.907  0.00  0.00    +0.000 OA
ATOM     10  C   UNL     1       7.352   5.140  16.099  0.00  0.00    +0.000 C 
ATOM     11  C   UNL     1       6.504   6.380  16.532  0.00  0.00    +0.000 C 
ATOM     12  H   UNL     1       6.549   3.281  18.883  0.00  0.00    +0.000 HD
ENDROOT
BRANCH  11  13
ATOM     13  C   UNL     1       7.267   7.327  17.473  0.00  0.00    +0.000 A 
ATOM     14  C   UNL     1       7.271   8.706  17.174  0.00  0.00    +0.000 A 
ATOM     15  C   UNL     1       8.010   9.607  17.940  0.00  0.00    +0.000 A 
ATOM     16  C   UNL     1       8.740   9.152  19.029  0.00  0.00    +0.000 A 
ATOM     17  F   UNL     1       9.472  10.016  19.744  0.00  0.00    +0.000 F 
ATOM     18  C   UNL     1       8.737   7.813  19.374  0.00  0.00    +0.000 A 
ATOM     19  C   UNL     1       8.003   6.911  18.606  0.00  0.00    +0.000 A 
ENDBRANCH  11  13
BRANCH  10  20
ATOM     20  N   UNL     1       6.614   4.294  15.113  0.00  0.00    +0.000 N 
ATOM     21  C   UNL     1       6.842   4.474  13.758  0.00  0.00    +0.000 C 
ATOM     22  O   UNL     1       7.729   5.209  13.345  0.00  0.00    +0.000 OA
ATOM     23  H   UNL     1       5.688   3.963  15.363  0.00  0.00    +0.000 HD
BRANCH  21  24
ATOM     24  C   UNL     1       5.962   3.734  12.814  0.00  0.00    +0.000 A 
ATOM     25  C   UNL     1       4.719   4.239  12.414  0.00  0.00    +0.000 A 
ATOM     26  C   UNL     1       3.929   3.513  11.519  0.00  0.00    +0.000 A 
ATOM     27  C   UNL     1       4.381   2.294  11.009  0.00  0.00    +0.000 A 
ATOM     28  C   UNL     1       5.616   1.771  11.412  0.00  0.00    +0.000 A 
ATOM     29  C   UNL     1       6.144   0.504  10.802  0.00  0.00    +0.000 C 
ATOM     30  C   UNL     1       6.391   2.486  12.336  0.00  0.00    +0.000 A 
ENDBRANCH  21  24
ENDBRANCH  10  20
BRANCH   1  31
ATOM     31  C   UNL     1       3.555   3.486  19.328  0.00  0.00    +0.000 C 
BRANCH  31  33
ATOM     32  C   UNL     1       1.214   3.167  20.295  0.00  0.00    +0.000 C 
ATOM     33  C   UNL     1       2.530   3.928  20.371  0.00  0.00    +0.000 C 
ENDBRANCH  31  33
ENDBRANCH   1  31
TORSDOF 5
ENDMDL
MODEL 3
REMARK VINA RESULT:      -6.7      9.826     13.241
REMARK  Name = 
REMARK  8 active torsions:
REMARK  status: ('A' for Active; 'I' for Inactive)
REMARK    1  A    between atoms: C_1  and  C_2
REMARK    2  A    between atoms: C_2  and  C_3
REMARK    3  A    between atoms: C_3  and  N_4
REMARK    4  A    between atoms: C_6  and  C_7
REMARK    5  A    between atoms: C_13  and  N_14
REMARK    6  A    between atoms: C_15  and  C_17
REMARK    7  A    between atoms: C_21  and  C_22
REMARK    8  A    between atoms: C_24  and  C_25
REMARK                            x       y       z     vdW  Elec       q    Type
REMARK                         _______ _______ _______ _____ _____    ______ ____
ROOT
ATOM      1  N   UNL     1      -6.490  12.830  21.090  0.00  0.00    +0.000 N 
ATOM      2  N   UNL     1      -6.514  13.799  20.149  0.00  0.00    +0.000 NA
ATOM      3  C   UNL     1      -5.477  14.594  20.453  0.00  0.00    +0.000 A 
ATOM      4  C   UNL     1      -5.268  15.877  19.734  0.00  0.00    +0.000 C 
ATOM      5  C   UNL     1      -4.752  14.091  21.564  0.00  0.00    +0.000 A 
ATOM      6  C   UNL     1      -5.468  12.989  21.975  0.00  0.00    +0.000 A 
ATOM      7  N   UNL     1      -5.166  12.327  23.145  0.00  0.00    +0.000 N 
ATOM      8  C   UNL     1      -3.972  12.714  23.848  0.00  0.00    +0.000 C 
ATOM      9  O   UNL     1      -3.973  12.562  25.057  0.00  0.00    +0.000 OA
ATOM     10  C   UNL     1      -2.865  13.372  22.994  0.00  0.00    +0.000 C 
ATOM     11  C   UNL     1      -3.552  14.596  22.306  0.00  0.00    +0.000 C 
ATOM     12  H   UNL     1      -5.819  11.722  23.623  0.00  0.00    +0.000 HD
ENDROOT
BRANCH  11  13
ATOM     13  C   UNL     1      -4.018  15.663  23.311  0.00  0.00    +0.000 A 
ATOM     14  C   UNL     1      -3.048  16.276  24.132  0.00  0.00    +0.000 A 
ATOM     15  C   UNL     1      -3.414  17.191  25.119  0.00  0.00    +0.000 A 
ATOM     16  C   UNL     1      -4.749  17.526  25.290  0.00  0.00    +0.000 A 
ATOM     17  F   UNL     1      -5.099  18.382  26.257  0.00  0.00    +0.000 F 
ATOM     18  C   UNL     1      -5.727  16.972  24.484  0.00  0.00    +0.000 A 
ATOM     19  C   UNL     1      -5.364  16.053  23.501  0.00  0.00    +0.000 A 
ENDBRANCH  11  13
BRANCH  10  20
ATOM     20  N   UNL     1      -2.342  12.403  21.983  0.00  0.00    +0.000 N 
ATOM     21  C   UNL     1      -0.992  12.411  21.670  0.00  0.00    +0.000 C 
ATOM     22  O   UNL     1      -0.188  13.091  22.293  0.00  0.00    +0.000 OA
ATOM     23  H   UNL     1      -2.964  12.102  21.241  0.00  0.00    +0.000 HD
BRANCH  21  24
ATOM     24  C   UNL     1      -0.550  11.551  20.538  0.00  0.00    +0.000 A 
ATOM     25  C   UNL     1       0.727  10.978  20.503  0.00  0.00    +0.000 A 
ATOM     26  C   UNL     1       1.097  10.171  19.424  0.00  0.00    +0.000 A 
ATOM     27  C   UNL     1       0.193   9.919  18.390  0.00  0.00    +0.000 A 
ATOM     28  C   UNL     1      -1.082  10.497  18.407  0.00  0.00    +0.000 A 
ATOM     29  C   UNL     1      -2.087  10.161  17.342  0.00  0.00    +0.000 C 
ATOM     30  C   UNL     1      -1.438  11.333  19.474  0.00  0.00    +0.000 A 
ENDBRANCH  21  24
ENDBRANCH  10  20
BRANCH   1  31
ATOM     31  C   UNL     1      -7.502  11.796  21.101  0.00  0.00    +0.000 C 
BRANCH  31  33
ATOM     32  C   UNL     1      -6.800   9.850  19.604  0.00  0.00    +0.000 C 
ATOM     33  C   UNL     1      -7.666  11.094  19.754  0.00  0.00    +0.000 C 
ENDBRANCH  31  33
ENDBRANCH   1  31
TORSDOF 5
ENDMDL
MODEL 4
REMARK VINA RESULT:      -6.7     10.064     14.687
REMARK  Name = 
REMARK  8 active torsions:
REMARK  status: ('A' for Active; 'I' for Inactive)
REMARK    1  A    between atoms: C_1  and  C_2
REMARK    2  A    between atoms: C_2  and  C_3
REMARK    3  A    between atoms: C_3  and  N_4
REMARK    4  A    between atoms: C_6  and  C_7
REMARK    5  A    between atoms: C_13  and  N_14
REMARK    6  A    between atoms: C_15  and  C_17
REMARK    7  A    between atoms: C_21  and  C_22
REMARK    8  A    between atoms: C_24  and  C_25
REMARK                            x       y       z     vdW  Elec       q    Type
REMARK                         _______ _______ _______ _____ _____    ______ ____
ROOT
ATOM      1  N   UNL     1      -1.204  11.454  22.592  0.00  0.00    +0.000 N 
ATOM      2  N   UNL     1      -0.612  11.988  21.502  0.00  0.00    +0.000 NA
ATOM      3  C   UNL     1      -1.410  13.005  21.146  0.00  0.00    +0.000 A 
ATOM      4  C   UNL     1      -1.177  13.745  19.879  0.00  0.00    +0.000 C 
ATOM      5  C   UNL     1      -2.489  13.155  22.055  0.00  0.00    +0.000 A 
ATOM      6  C   UNL     1      -2.349  12.106  22.935  0.00  0.00    +0.000 A 
ATOM      7  N   UNL     1      -3.316  11.814  23.871  0.00  0.00    +0.000 N 
ATOM      8  C   UNL     1      -4.408  12.740  24.021  0.00  0.00    +0.000 C 
ATOM      9  O   UNL     1      -5.471  12.278  24.396  0.00  0.00    +0.000 OA
ATOM     10  C   UNL     1      -4.126  14.197  23.591  0.00  0.00    +0.000 C 
ATOM     11  C   UNL     1      -3.651  14.099  22.104  0.00  0.00    +0.000 C 
ATOM     12  H   UNL     1      -3.397  10.914  24.323  0.00  0.00    +0.000 HD
ENDROOT
BRANCH  11  13
ATOM     13  C   UNL     1      -4.744  13.571  21.161  0.00  0.00    +0.000 A 
ATOM     14  C   UNL     1      -6.017  14.178  21.206  0.00  0.00    +0.000 A 
ATOM     15  C   UNL     1      -7.074  13.694  20.436  0.00  0.00    +0.000 A 
ATOM     16  C   UNL     1      -6.876  12.611  19.593  0.00  0.00    +0.000 A 
ATOM     17  F   UNL     1      -7.900  12.131  18.877  0.00  0.00    +0.000 F 
ATOM     18  C   UNL     1      -5.635  12.007  19.495  0.00  0.00    +0.000 A 
ATOM     19  C   UNL     1      -4.579  12.486  20.268  0.00  0.00    +0.000 A 
ENDBRANCH  11  13
BRANCH  10  20
ATOM     20  N   UNL     1      -3.072  14.802  24.460  0.00  0.00    +0.000 N 
ATOM     21  C   UNL     1      -3.272  16.066  24.991  0.00  0.00    +0.000 C 
ATOM     22  O   UNL     1      -4.343  16.648  24.886  0.00  0.00    +0.000 OA
ATOM     23  H   UNL     1      -2.105  14.544  24.291  0.00  0.00    +0.000 HD
BRANCH  21  24
ATOM     24  C   UNL     1      -2.127  16.695  25.705  0.00  0.00    +0.000 A 
ATOM     25  C   UNL     1      -1.917  18.079  25.684  0.00  0.00    +0.000 A 
ATOM     26  C   UNL     1      -0.833  18.628  26.374  0.00  0.00    +0.000 A 
ATOM     27  C   UNL     1       0.031  17.803  27.099  0.00  0.00    +0.000 A 
ATOM     28  C   UNL     1      -0.160  16.417  27.115  0.00  0.00    +0.000 A 
ATOM     29  C   UNL     1       0.714  15.535  27.962  0.00  0.00    +0.000 C 
ATOM     30  C   UNL     1      -1.230  15.867  26.394  0.00  0.00    +0.000 A 
ENDBRANCH  21  24
ENDBRANCH  10  20
BRANCH   1  31
ATOM     31  C   UNL     1      -0.633  10.292  23.239  0.00  0.00    +0.000 C 
BRANCH  31  33
ATOM     32  C   UNL     1      -0.261   8.419  21.544  0.00  0.00    +0.000 C 
ATOM     33  C   UNL     1       0.367   9.539  22.363  0.00  0.00    +0.000 C 
ENDBRANCH  31  33
ENDBRANCH   1  31
TORSDOF 5
ENDMDL
MODEL 5
REMARK VINA RESULT:      -6.6      9.418     12.141
REMARK  Name = 
REMARK  8 active torsions:
REMARK  status: ('A' for Active; 'I' for Inactive)
REMARK    1  A    between atoms: C_1  and  C_2
REMARK    2  A    between atoms: C_2  and  C_3
REMARK    3  A    between atoms: C_3  and  N_4
REMARK    4  A    between atoms: C_6  and  C_7
REMARK    5  A    between atoms: C_13  and  N_14
REMARK    6  A    between atoms: C_15  and  C_17
REMARK    7  A    between atoms: C_21  and  C_22
REMARK    8  A    between atoms: C_24  and  C_25
REMARK                            x       y       z     vdW  Elec       q    Type
REMARK                         _______ _______ _______ _____ _____    ______ ____
ROOT
ATOM      1  N   UNL     1      -0.677  11.148  20.496  0.00  0.00    +0.000 N 
ATOM      2  N   UNL     1      -1.523  10.897  19.473  0.00  0.00    +0.000 NA
ATOM      3  C   UNL     1      -2.329  11.969  19.428  0.00  0.00    +0.000 A 
ATOM      4  C   UNL     1      -3.509  11.993  18.527  0.00  0.00    +0.000 C 
ATOM      5  C   UNL     1      -1.952  12.936  20.395  0.00  0.00    +0.000 A 
ATOM      6  C   UNL     1      -0.924  12.346  21.095  0.00  0.00    +0.000 A 
ATOM      7  N   UNL     1      -0.406  12.916  22.236  0.00  0.00    +0.000 N 
ATOM      8  C   UNL     1      -0.853  14.237  22.591  0.00  0.00    +0.000 C 
ATOM      9  O   UNL     1      -0.851  14.517  23.776  0.00  0.00    +0.000 OA
ATOM     10  C   UNL     1      -1.379  15.110  21.429  0.00  0.00    +0.000 C 
ATOM     11  C   UNL     1      -2.522  14.270  20.771  0.00  0.00    +0.000 C 
ATOM     12  H   UNL     1       0.123  12.397  22.924  0.00  0.00    +0.000 HD
ENDROOT
BRANCH  11  13
ATOM     13  C   UNL     1      -3.713  14.039  21.716  0.00  0.00    +0.000 A 
ATOM     14  C   UNL     1      -4.289  15.159  22.351  0.00  0.00    +0.000 A 
ATOM     15  C   UNL     1      -5.318  15.010  23.281  0.00  0.00    +0.000 A 
ATOM     16  C   UNL     1      -5.804  13.745  23.577  0.00  0.00    +0.000 A 
ATOM     17  F   UNL     1      -6.772  13.604  24.492  0.00  0.00    +0.000 F 
ATOM     18  C   UNL     1      -5.289  12.624  22.952  0.00  0.00    +0.000 A 
ATOM     19  C   UNL     1      -4.257  12.771  22.027  0.00  0.00    +0.000 A 
ENDBRANCH  11  13
BRANCH  10  20
ATOM     20  N   UNL     1      -0.283  15.394  20.454  0.00  0.00    +0.000 N 
ATOM     21  C   UNL     1      -0.195  16.651  19.878  0.00  0.00    +0.000 C 
ATOM     22  O   UNL     1      -0.901  17.580  20.246  0.00  0.00    +0.000 OA
ATOM     23  H   UNL     1       0.068  14.627  19.890  0.00  0.00    +0.000 HD
BRANCH  21  24
ATOM     24  C   UNL     1       0.803  16.834  18.789  0.00  0.00    +0.000 A 
ATOM     25  C   UNL     1       0.636  17.804  17.792  0.00  0.00    +0.000 A 
ATOM     26  C   UNL     1       1.601  17.946  16.792  0.00  0.00    +0.000 A 
ATOM     27  C   UNL     1       2.741  17.136  16.793  0.00  0.00    +0.000 A 
ATOM     28  C   UNL     1       2.912  16.154  17.775  0.00  0.00    +0.000 A 
ATOM     29  C   UNL     1       4.173  15.341  17.831  0.00  0.00    +0.000 C 
ATOM     30  C   UNL     1       1.924  15.993  18.758  0.00  0.00    +0.000 A 
ENDBRANCH  21  24
ENDBRANCH  10  20
BRANCH   1  31
ATOM     31  C   UNL     1       0.328  10.176  20.868  0.00  0.00    +0.000 C 
BRANCH  31  33
ATOM     32  C   UNL     1      -0.048   9.448  23.287  0.00  0.00    +0.000 C 
ATOM     33  C   UNL     1      -0.193   9.094  21.813  0.00  0.00    +0.000 C 
ENDBRANCH  31  33
ENDBRANCH   1  31
TORSDOF 5
ENDMDL
MODEL 6
REMARK VINA RESULT:      -6.5      9.313     12.419
REMARK  Name = 
REMARK  8 active torsions:
REMARK  status: ('A' for Active; 'I' for Inactive)
REMARK    1  A    between atoms: C_1  and  C_2
REMARK    2  A    between atoms: C_2  and  C_3
REMARK    3  A    between atoms: C_3  and  N_4
REMARK    4  A    between atoms: C_6  and  C_7
REMARK    5  A    between atoms: C_13  and  N_14
REMARK    6  A    between atoms: C_15  and  C_17
REMARK    7  A    between atoms: C_21  and  C_22
REMARK    8  A    between atoms: C_24  and  C_25
REMARK                            x       y       z     vdW  Elec       q    Type
REMARK                         _______ _______ _______ _____ _____    ______ ____
ROOT
ATOM      1  N   UNL     1       0.037  16.967  20.468  0.00  0.00    +0.000 N 
ATOM      2  N   UNL     1      -0.047  17.770  19.385  0.00  0.00    +0.000 NA
ATOM      3  C   UNL     1       0.725  17.177  18.462  0.00  0.00    +0.000 A 
ATOM      4  C   UNL     1       1.018  17.853  17.172  0.00  0.00    +0.000 C 
ATOM      5  C   UNL     1       1.257  15.954  18.945  0.00  0.00    +0.000 A 
ATOM      6  C   UNL     1       0.836  15.885  20.253  0.00  0.00    +0.000 A 
ATOM      7  N   UNL     1       1.299  14.912  21.111  0.00  0.00    +0.000 N 
ATOM      8  C   UNL     1       2.111  13.860  20.559  0.00  0.00    +0.000 C 
ATOM      9  O   UNL     1       2.930  13.351  21.304  0.00  0.00    +0.000 OA
ATOM     10  C   UNL     1       1.917  13.572  19.053  0.00  0.00    +0.000 C 
ATOM     11  C   UNL     1       2.175  14.938  18.338  0.00  0.00    +0.000 C 
ATOM     12  H   UNL     1       1.254  14.993  22.117  0.00  0.00    +0.000 HD
ENDROOT
BRANCH  11  13
ATOM     13  C   UNL     1       3.622  15.434  18.502  0.00  0.00    +0.000 A 
ATOM     14  C   UNL     1       4.665  14.632  17.993  0.00  0.00    +0.000 A 
ATOM     15  C   UNL     1       6.002  14.984  18.180  0.00  0.00    +0.000 A 
ATOM     16  C   UNL     1       6.320  16.151  18.859  0.00  0.00    +0.000 A 
ATOM     17  F   UNL     1       7.604  16.470  19.062  0.00  0.00    +0.000 F 
ATOM     18  C   UNL     1       5.327  16.981  19.346  0.00  0.00    +0.000 A 
ATOM     19  C   UNL     1       3.991  16.627  19.164  0.00  0.00    +0.000 A 
ENDBRANCH  11  13
BRANCH  10  20
ATOM     20  N   UNL     1       0.531  13.076  18.793  0.00  0.00    +0.000 N 
ATOM     21  C   UNL     1       0.276  11.715  18.845  0.00  0.00    +0.000 C 
ATOM     22  O   UNL     1       1.116  10.915  19.233  0.00  0.00    +0.000 OA
ATOM     23  H   UNL     1      -0.059  13.610  18.165  0.00  0.00    +0.000 HD
BRANCH  21  24
ATOM     24  C   UNL     1      -1.073  11.257  18.412  0.00  0.00    +0.000 A 
ATOM     25  C   UNL     1      -1.239  10.164  17.553  0.00  0.00    +0.000 A 
ATOM     26  C   UNL     1      -2.524   9.764  17.178  0.00  0.00    +0.000 A 
ATOM     27  C   UNL     1      -3.644  10.440  17.669  0.00  0.00    +0.000 A 
ATOM     28  C   UNL     1      -3.490  11.543  18.517  0.00  0.00    +0.000 A 
ATOM     29  C   UNL     1      -4.691  12.219  19.116  0.00  0.00    +0.000 C 
ATOM     30  C   UNL     1      -2.198  11.962  18.864  0.00  0.00    +0.000 A 
ENDBRANCH  21  24
ENDBRANCH  10  20
BRANCH   1  31
ATOM     31  C   UNL     1      -0.651  17.315  21.692  0.00  0.00    +0.000 C 
BRANCH  31  33
ATOM     32  C   UNL     1      -2.840  16.220  20.966  0.00  0.00    +0.000 C 
ATOM     33  C   UNL     1      -1.780  16.350  22.051  0.00  0.00    +0.000 C 
ENDBRANCH  31  33
ENDBRANCH   1  31
TORSDOF 5
ENDMDL
MODEL 7
REMARK VINA RESULT:      -6.5     10.128     12.806
REMARK  Name = 
REMARK  8 active torsions:
REMARK  status: ('A' for Active; 'I' for Inactive)
REMARK    1  A    between atoms: C_1  and  C_2
REMARK    2  A    between atoms: C_2  and  C_3
REMARK    3  A    between atoms: C_3  and  N_4
REMARK    4  A    between atoms: C_6  and  C_7
REMARK    5  A    between atoms: C_13  and  N_14
REMARK    6  A    between atoms: C_15  and  C_17
REMARK    7  A    between atoms: C_21  and  C_22
REMARK    8  A    between atoms: C_24  and  C_25
REMARK                            x       y       z     vdW  Elec       q    Type
REMARK                         _______ _______ _______ _____ _____    ______ ____
ROOT
ATOM      1  N   UNL     1      -1.452  15.048  22.912  0.00  0.00    +0.000 N 
ATOM      2  N   UNL     1      -1.721  16.206  22.271  0.00  0.00    +0.000 NA
ATOM      3  C   UNL     1      -1.407  15.965  20.989  0.00  0.00    +0.000 A 
ATOM      4  C   UNL     1      -1.414  17.062  19.988  0.00  0.00    +0.000 C 
ATOM      5  C   UNL     1      -0.990  14.622  20.806  0.00  0.00    +0.000 A 
ATOM      6  C   UNL     1      -0.981  14.085  22.073  0.00  0.00    +0.000 A 
ATOM      7  N   UNL     1      -0.463  12.834  22.324  0.00  0.00    +0.000 N 
ATOM      8  C   UNL     1      -0.080  12.026  21.197  0.00  0.00    +0.000 C 
ATOM      9  O   UNL     1       0.820  11.224  21.375  0.00  0.00    +0.000 OA
ATOM     10  C   UNL     1      -0.792  12.343  19.862  0.00  0.00    +0.000 C 
ATOM     11  C   UNL     1      -0.519  13.861  19.604  0.00  0.00    +0.000 C 
ATOM     12  H   UNL     1      -0.172  12.528  23.242  0.00  0.00    +0.000 HD
ENDROOT
BRANCH  11  13
ATOM     13  C   UNL     1       0.971  14.172  19.387  0.00  0.00    +0.000 A 
ATOM     14  C   UNL     1       1.664  13.459  18.387  0.00  0.00    +0.000 A 
ATOM     15  C   UNL     1       3.034  13.635  18.194  0.00  0.00    +0.000 A 
ATOM     16  C   UNL     1       3.732  14.540  18.980  0.00  0.00    +0.000 A 
ATOM     17  F   UNL     1       5.052  14.685  18.812  0.00  0.00    +0.000 F 
ATOM     18  C   UNL     1       3.083  15.283  19.950  0.00  0.00    +0.000 A 
ATOM     19  C   UNL     1       1.715  15.103  20.147  0.00  0.00    +0.000 A 
ENDBRANCH  11  13
BRANCH  10  20
ATOM     20  N   UNL     1      -2.255  12.064  19.973  0.00  0.00    +0.000 N 
ATOM     21  C   UNL     1      -2.999  11.866  18.821  0.00  0.00    +0.000 C 
ATOM     22  O   UNL     1      -2.472  11.774  17.721  0.00  0.00    +0.000 OA
ATOM     23  H   UNL     1      -2.760  12.459  20.759  0.00  0.00    +0.000 HD
BRANCH  21  24
ATOM     24  C   UNL     1      -4.476  11.764  18.971  0.00  0.00    +0.000 A 
ATOM     25  C   UNL     1      -5.271  11.114  18.020  0.00  0.00    +0.000 A 
ATOM     26  C   UNL     1      -6.653  11.036  18.205  0.00  0.00    +0.000 A 
ATOM     27  C   UNL     1      -7.244  11.588  19.345  0.00  0.00    +0.000 A 
ATOM     28  C   UNL     1      -6.462  12.253  20.296  0.00  0.00    +0.000 A 
ATOM     29  C   UNL     1      -7.079  12.773  21.563  0.00  0.00    +0.000 C 
ATOM     30  C   UNL     1      -5.079  12.359  20.090  0.00  0.00    +0.000 A 
ENDBRANCH  21  24
ENDBRANCH  10  20
BRANCH   1  31
ATOM     31  C   UNL     1      -1.639  14.944  24.344  0.00  0.00    +0.000 C 
BRANCH  31  33
ATOM     32  C   UNL     1      -3.808  13.597  24.336  0.00  0.00    +0.000 C 
ATOM     33  C   UNL     1      -3.107  14.880  24.761  0.00  0.00    +0.000 C 
ENDBRANCH  31  33
ENDBRANCH   1  31
TORSDOF 5
ENDMDL
MODEL 8
REMARK VINA RESULT:      -6.5      7.484     11.434
REMARK  Name = 
REMARK  8 active torsions:
REMARK  status: ('A' for Active; 'I' for Inactive)
REMARK    1  A    between atoms: C_1  and  C_2
REMARK    2  A    between atoms: C_2  and  C_3
REMARK    3  A    between atoms: C_3  and  N_4
REMARK    4  A    between atoms: C_6  and  C_7
REMARK    5  A    between atoms: C_13  and  N_14
REMARK    6  A    between atoms: C_15  and  C_17
REMARK    7  A    between atoms: C_21  and  C_22
REMARK    8  A    between atoms: C_24  and  C_25
REMARK                            x       y       z     vdW  Elec       q    Type
REMARK                         _______ _______ _______ _____ _____    ______ ____
ROOT
ATOM      1  N   UNL     1       0.583   9.957  19.043  0.00  0.00    +0.000 N 
ATOM      2  N   UNL     1       0.651   9.364  20.255  0.00  0.00    +0.000 NA
ATOM      3  C   UNL     1       0.293  10.322  21.123  0.00  0.00    +0.000 A 
ATOM      4  C   UNL     1       0.402  10.098  22.587  0.00  0.00    +0.000 C 
ATOM      5  C   UNL     1      -0.062  11.519  20.449  0.00  0.00    +0.000 A 
ATOM      6  C   UNL     1       0.191  11.259  19.122  0.00  0.00    +0.000 A 
ATOM      7  N   UNL     1       0.129  12.249  18.167  0.00  0.00    +0.000 N 
ATOM      8  C   UNL     1      -0.375  13.537  18.565  0.00  0.00    +0.000 C 
ATOM      9  O   UNL     1       0.047  14.504  17.955  0.00  0.00    +0.000 OA
ATOM     10  C   UNL     1      -1.316  13.548  19.790  0.00  0.00    +0.000 C 
ATOM     11  C   UNL     1      -0.502  12.865  20.938  0.00  0.00    +0.000 C 
ATOM     12  H   UNL     1       0.578  12.177  17.264  0.00  0.00    +0.000 HD
ENDROOT
BRANCH  11  13
ATOM     13  C   UNL     1       0.747  13.666  21.342  0.00  0.00    +0.000 A 
ATOM     14  C   UNL     1       0.568  14.865  22.063  0.00  0.00    +0.000 A 
ATOM     15  C   UNL     1       1.653  15.678  22.390  0.00  0.00    +0.000 A 
ATOM     16  C   UNL     1       2.935  15.301  22.021  0.00  0.00    +0.000 A 
ATOM     17  F   UNL     1       3.970  16.099  22.310  0.00  0.00    +0.000 F 
ATOM     18  C   UNL     1       3.157  14.117  21.341  0.00  0.00    +0.000 A 
ATOM     19  C   UNL     1       2.073  13.306  21.010  0.00  0.00    +0.000 A 
ENDBRANCH  11  13
BRANCH  10  20
ATOM     20  N   UNL     1      -2.571  12.793  19.490  0.00  0.00    +0.000 N 
ATOM     21  C   UNL     1      -3.771  13.229  20.026  0.00  0.00    +0.000 C 
ATOM     22  O   UNL     1      -3.862  14.292  20.625  0.00  0.00    +0.000 OA
ATOM     23  H   UNL     1      -2.501  11.795  19.322  0.00  0.00    +0.000 HD
BRANCH  21  24
ATOM     24  C   UNL     1      -4.959  12.351  19.842  0.00  0.00    +0.000 A 
ATOM     25  C   UNL     1      -5.178  11.647  18.653  0.00  0.00    +0.000 A 
ATOM     26  C   UNL     1      -6.303  10.828  18.526  0.00  0.00    +0.000 A 
ATOM     27  C   UNL     1      -7.201  10.697  19.589  0.00  0.00    +0.000 A 
ATOM     28  C   UNL     1      -7.001  11.407  20.778  0.00  0.00    +0.000 A 
ATOM     29  C   UNL     1      -7.916  11.203  21.952  0.00  0.00    +0.000 C 
ATOM     30  C   UNL     1      -5.889  12.253  20.888  0.00  0.00    +0.000 A 
ENDBRANCH  21  24
ENDBRANCH  10  20
BRANCH   1  31
ATOM     31  C   UNL     1       0.943   9.223  17.849  0.00  0.00    +0.000 C 
BRANCH  31  33
ATOM     32  C   UNL     1       2.507   7.205  17.872  0.00  0.00    +0.000 C 
ATOM     33  C   UNL     1       2.386   8.723  17.855  0.00  0.00    +0.000 C 
ENDBRANCH  31  33
ENDBRANCH   1  31
TORSDOF 5
ENDMDL
MODEL 9
REMARK VINA RESULT:      -6.3      8.300     11.705
REMARK  Name = 
REMARK  8 active torsions:
REMARK  status: ('A' for Active; 'I' for Inactive)
REMARK    1  A    between atoms: C_1  and  C_2
REMARK    2  A    between atoms: C_2  and  C_3
REMARK    3  A    between atoms: C_3  and  N_4
REMARK    4  A    between atoms: C_6  and  C_7
REMARK    5  A    between atoms: C_13  and  N_14
REMARK    6  A    between atoms: C_15  and  C_17
REMARK    7  A    between atoms: C_21  and  C_22
REMARK    8  A    between atoms: C_24  and  C_25
REMARK                            x       y       z     vdW  Elec       q    Type
REMARK                         _______ _______ _______ _____ _____    ______ ____
ROOT
ATOM      1  N   UNL     1      -0.599  10.669  19.683  0.00  0.00    +0.000 N 
ATOM      2  N   UNL     1      -1.562  10.556  18.742  0.00  0.00    +0.000 NA
ATOM      3  C   UNL     1      -2.373  11.602  18.958  0.00  0.00    +0.000 A 
ATOM      4  C   UNL     1      -3.654  11.734  18.218  0.00  0.00    +0.000 C 
ATOM      5  C   UNL     1      -1.886  12.421  20.009  0.00  0.00    +0.000 A 
ATOM      6  C   UNL     1      -0.778  11.757  20.482  0.00  0.00    +0.000 A 
ATOM      7  N   UNL     1      -0.127  12.161  21.627  0.00  0.00    +0.000 N 
ATOM      8  C   UNL     1      -0.534  13.403  22.229  0.00  0.00    +0.000 C 
ATOM      9  O   UNL     1      -0.389  13.501  23.435  0.00  0.00    +0.000 OA
ATOM     10  C   UNL     1      -1.202  14.428  21.286  0.00  0.00    +0.000 C 
ATOM     11  C   UNL     1      -2.413  13.670  20.649  0.00  0.00    +0.000 C 
ATOM     12  H   UNL     1       0.485  11.558  22.159  0.00  0.00    +0.000 HD
ENDROOT
BRANCH  11  13
ATOM     13  C   UNL     1      -3.479  13.271  21.683  0.00  0.00    +0.000 A 
ATOM     14  C   UNL     1      -4.836  13.348  21.307  0.00  0.00    +0.000 A 
ATOM     15  C   UNL     1      -5.854  13.079  22.222  0.00  0.00    +0.000 A 
ATOM     16  C   UNL     1      -5.536  12.709  23.521  0.00  0.00    +0.000 A 
ATOM     17  F   UNL     1      -6.515  12.481  24.404  0.00  0.00    +0.000 F 
ATOM     18  C   UNL     1      -4.217  12.591  23.921  0.00  0.00    +0.000 A 
ATOM     19  C   UNL     1      -3.199  12.865  23.009  0.00  0.00    +0.000 A 
ENDBRANCH  11  13
BRANCH  10  20
ATOM     20  N   UNL     1      -0.235  14.882  20.241  0.00  0.00    +0.000 N 
ATOM     21  C   UNL     1       0.010  16.236  20.084  0.00  0.00    +0.000 C 
ATOM     22  O   UNL     1      -0.434  17.067  20.865  0.00  0.00    +0.000 OA
ATOM     23  H   UNL     1      -0.133  14.317  19.404  0.00  0.00    +0.000 HD
BRANCH  21  24
ATOM     24  C   UNL     1       0.845  16.649  18.923  0.00  0.00    +0.000 A 
ATOM     25  C   UNL     1       0.473  17.709  18.088  0.00  0.00    +0.000 A 
ATOM     26  C   UNL     1       1.291  18.067  17.013  0.00  0.00    +0.000 A 
ATOM     27  C   UNL     1       2.486  17.382  16.778  0.00  0.00    +0.000 A 
ATOM     28  C   UNL     1       2.861  16.311  17.597  0.00  0.00    +0.000 A 
ATOM     29  C   UNL     1       4.184  15.627  17.402  0.00  0.00    +0.000 C 
ATOM     30  C   UNL     1       2.021  15.933  18.655  0.00  0.00    +0.000 A 
ENDBRANCH  21  24
ENDBRANCH  10  20
BRANCH   1  31
ATOM     31  C   UNL     1       0.449   9.676  19.780  0.00  0.00    +0.000 C 
BRANCH  31  33
ATOM     32  C   UNL     1       2.123   8.262  18.469  0.00  0.00    +0.000 C 
ATOM     33  C   UNL     1       1.247   9.508  18.488  0.00  0.00    +0.000 C 
ENDBRANCH  31  33
ENDBRANCH   1  31
TORSDOF 5
ENDMDL
