MODEL 1
REMARK VINA RESULT:      -6.6      0.000      0.000
REMARK  Name = 
REMARK  5 active torsions:
REMARK  status: ('A' for Active; 'I' for Inactive)
REMARK    1  A    between atoms: C_1  and  N_2
REMARK    2  A    between atoms: C_4  and  C_5
REMARK    3  A    between atoms: N_7  and  C_8
REMARK    4  A    between atoms: C_8  and  C_9
REMARK    5  A    between atoms: C_9  and  C_10
REMARK                            x       y       z     vdW  Elec       q    Type
REMARK                         _______ _______ _______ _____ _____    ______ ____
ROOT
ATOM      1  C   UNL     1       7.271   5.794  18.748  0.00  0.00    +0.000 C 
ATOM      2  O   UNL     1       8.112   5.418  19.554  0.00  0.00    +0.000 OA
ATOM      3  N   UNL     1       7.321   7.000  18.093  0.00  0.00    +0.000 N 
ATOM      4  H   UNL     1       6.562   7.257  17.465  0.00  0.00    +0.000 HD
ENDROOT
BRANCH   1   8
ATOM      5  C   UNL     1       4.033   2.395  20.054  0.00  0.00    +0.000 C 
ATOM      6  N   UNL     1       4.551   3.266  19.014  0.00  0.00    +0.000 N 
ATOM      7  N   UNL     1       5.614   4.081  19.340  0.00  0.00    +0.000 NA
ATOM      8  C   UNL     1       6.093   4.874  18.433  0.00  0.00    +0.000 C 
ATOM      9  C   UNL     1       5.580   4.996  17.030  0.00  0.00    +0.000 C 
ATOM     10  C   UNL     1       4.429   4.098  16.686  0.00  0.00    +0.000 C 
ATOM     11  C   UNL     1       3.933   3.193  17.771  0.00  0.00    +0.000 C 
ATOM     12  O   UNL     1       2.998   2.422  17.533  0.00  0.00    +0.000 OA
ENDBRANCH   1   8
BRANCH   3  13
ATOM     13  C   UNL     1       8.405   7.917  18.391  0.00  0.00    +0.000 C 
BRANCH  13  14
ATOM     14  C   UNL     1       8.210   9.347  17.887  0.00  0.00    +0.000 C 
BRANCH  14  15
ATOM     15  C   UNL     1       8.988  10.379  18.657  0.00  0.00    +0.000 A 
ATOM     16  C   UNL     1       9.367  10.335  19.987  0.00  0.00    +0.000 A 
ATOM     17  C   UNL     1      10.138  11.469  20.375  0.00  0.00    +0.000 A 
ATOM     18  C   UNL     1      10.329  12.344  19.328  0.00  0.00    +0.000 A 
ATOM     19  S   UNL     1       9.586  11.790  17.887  0.00  0.00    +0.000 S 
ENDBRANCH  14  15
ENDBRANCH  13  14
ENDBRANCH   3  13
TORSDOF 4
ENDMDL
MODEL 2
REMARK VINA RESULT:      -6.5      5.739      8.202
REMARK  Name = 
REMARK  5 active torsions:
REMARK  status: ('A' for Active; 'I' for Inactive)
REMARK    1  A    between atoms: C_1  and  N_2
REMARK    2  A    between atoms: C_4  and  C_5
REMARK    3  A    between atoms: N_7  and  C_8
REMARK    4  A    between atoms: C_8  and  C_9
REMARK    5  A    between atoms: C_9  and  C_10
REMARK                            x       y       z     vdW  Elec       q    Type
REMARK                         _______ _______ _______ _____ _____    ______ ____
ROOT
ATOM      1  C   UNL     1       3.044   6.195  18.756  0.00  0.00    +0.000 C 
ATOM      2  O   UNL     1       3.990   5.877  19.464  0.00  0.00    +0.000 OA
ATOM      3  N   UNL     1       2.589   5.445  17.700  0.00  0.00    +0.000 N 
ATOM      4  H   UNL     1       1.819   5.796  17.135  0.00  0.00    +0.000 HD
ENDROOT
BRANCH   1   8
ATOM      5  C   UNL     1       0.723   9.184  21.825  0.00  0.00    +0.000 C 
ATOM      6  N   UNL     1       1.203   8.935  20.478  0.00  0.00    +0.000 N 
ATOM      7  N   UNL     1       1.862   7.746  20.249  0.00  0.00    +0.000 NA
ATOM      8  C   UNL     1       2.308   7.500  19.057  0.00  0.00    +0.000 C 
ATOM      9  C   UNL     1       2.178   8.414  17.877  0.00  0.00    +0.000 C 
ATOM     10  C   UNL     1       1.450   9.700  18.137  0.00  0.00    +0.000 C 
ATOM     11  C   UNL     1       0.945   9.918  19.529  0.00  0.00    +0.000 C 
ATOM     12  O   UNL     1       0.326  10.954  19.791  0.00  0.00    +0.000 OA
ENDBRANCH   1   8
BRANCH   3  13
ATOM     13  C   UNL     1       3.283   4.218  17.360  0.00  0.00    +0.000 C 
BRANCH  13  14
ATOM     14  C   UNL     1       2.580   2.928  17.788  0.00  0.00    +0.000 C 
BRANCH  14  15
ATOM     15  C   UNL     1       2.317   2.837  19.267  0.00  0.00    +0.000 A 
ATOM     16  C   UNL     1       1.099   2.926  19.916  0.00  0.00    +0.000 A 
ATOM     17  C   UNL     1       1.215   2.749  21.325  0.00  0.00    +0.000 A 
ATOM     18  C   UNL     1       2.518   2.526  21.710  0.00  0.00    +0.000 A 
ATOM     19  S   UNL     1       3.589   2.523  20.373  0.00  0.00    +0.000 S 
ENDBRANCH  14  15
ENDBRANCH  13  14
ENDBRANCH   3  13
TORSDOF 4
ENDMDL
MODEL 3
REMARK VINA RESULT:      -6.4      5.503      8.028
REMARK  Name = 
REMARK  5 active torsions:
REMARK  status: ('A' for Active; 'I' for Inactive)
REMARK    1  A    between atoms: C_1  and  N_2
REMARK    2  A    between atoms: C_4  and  C_5
REMARK    3  A    between atoms: N_7  and  C_8
REMARK    4  A    between atoms: C_8  and  C_9
REMARK    5  A    between atoms: C_9  and  C_10
REMARK                            x       y       z     vdW  Elec       q    Type
REMARK                         _______ _______ _______ _____ _____    ______ ____
ROOT
ATOM      1  C   UNL     1       3.420   6.104  18.566  0.00  0.00    +0.000 C 
ATOM      2  O   UNL     1       3.330   5.641  17.436  0.00  0.00    +0.000 OA
ATOM      3  N   UNL     1       4.235   5.590  19.544  0.00  0.00    +0.000 N 
ATOM      4  H   UNL     1       4.225   6.010  20.471  0.00  0.00    +0.000 HD
ENDROOT
BRANCH   1   8
ATOM      5  C   UNL     1       0.672   8.652  21.679  0.00  0.00    +0.000 C 
ATOM      6  N   UNL     1       1.281   8.564  20.364  0.00  0.00    +0.000 N 
ATOM      7  N   UNL     1       2.025   7.437  20.085  0.00  0.00    +0.000 NA
ATOM      8  C   UNL     1       2.586   7.334  18.922  0.00  0.00    +0.000 C 
ATOM      9  C   UNL     1       2.507   8.355  17.827  0.00  0.00    +0.000 C 
ATOM     10  C   UNL     1       1.686   9.571  18.140  0.00  0.00    +0.000 C 
ATOM     11  C   UNL     1       1.050   9.623  19.495  0.00  0.00    +0.000 C 
ATOM     12  O   UNL     1       0.351  10.596  19.797  0.00  0.00    +0.000 OA
ENDBRANCH   1   8
BRANCH   3  13
ATOM     13  C   UNL     1       5.014   4.402  19.255  0.00  0.00    +0.000 C 
BRANCH  13  14
ATOM     14  C   UNL     1       4.483   3.106  19.869  0.00  0.00    +0.000 C 
BRANCH  14  15
ATOM     15  C   UNL     1       3.001   2.908  19.694  0.00  0.00    +0.000 A 
ATOM     16  C   UNL     1       1.994   3.226  20.586  0.00  0.00    +0.000 A 
ATOM     17  C   UNL     1       0.696   2.941  20.072  0.00  0.00    +0.000 A 
ATOM     18  C   UNL     1       0.750   2.418  18.799  0.00  0.00    +0.000 A 
ATOM     19  S   UNL     1       2.361   2.281  18.232  0.00  0.00    +0.000 S 
ENDBRANCH  14  15
ENDBRANCH  13  14
ENDBRANCH   3  13
TORSDOF 4
ENDMDL
MODEL 4
REMARK VINA RESULT:      -6.4      5.741      8.061
REMARK  Name = 
REMARK  5 active torsions:
REMARK  status: ('A' for Active; 'I' for Inactive)
REMARK    1  A    between atoms: C_1  and  N_2
REMARK    2  A    between atoms: C_4  and  C_5
REMARK    3  A    between atoms: N_7  and  C_8
REMARK    4  A    between atoms: C_8  and  C_9
REMARK    5  A    between atoms: C_9  and  C_10
REMARK                            x       y       z     vdW  Elec       q    Type
REMARK                         _______ _______ _______ _____ _____    ______ ____
ROOT
ATOM      1  C   UNL     1       3.349   6.505  17.943  0.00  0.00    +0.000 C 
ATOM      2  O   UNL     1       4.454   6.786  17.497  0.00  0.00    +0.000 OA
ATOM      3  N   UNL     1       2.814   5.240  17.930  0.00  0.00    +0.000 N 
ATOM      4  H   UNL     1       1.873   5.095  18.287  0.00  0.00    +0.000 HD
ENDROOT
BRANCH   1   8
ATOM      5  C   UNL     1       1.030   8.503  21.734  0.00  0.00    +0.000 C 
ATOM      6  N   UNL     1       1.395   8.588  20.332  0.00  0.00    +0.000 N 
ATOM      7  N   UNL     1       2.158   7.564  19.812  0.00  0.00    +0.000 NA
ATOM      8  C   UNL     1       2.504   7.617  18.564  0.00  0.00    +0.000 C 
ATOM      9  C   UNL     1       2.151   8.719  17.612  0.00  0.00    +0.000 C 
ATOM     10  C   UNL     1       1.312   9.822  18.188  0.00  0.00    +0.000 C 
ATOM     11  C   UNL     1       0.931   9.694  19.630  0.00  0.00    +0.000 C 
ATOM     12  O   UNL     1       0.228  10.568  20.148  0.00  0.00    +0.000 OA
ENDBRANCH   1   8
BRANCH   3  13
ATOM     13  C   UNL     1       3.570   4.165  17.317  0.00  0.00    +0.000 C 
BRANCH  13  14
ATOM     14  C   UNL     1       3.232   2.760  17.817  0.00  0.00    +0.000 C 
BRANCH  14  15
ATOM     15  C   UNL     1       2.695   2.723  19.222  0.00  0.00    +0.000 A 
ATOM     16  C   UNL     1       3.415   2.673  20.402  0.00  0.00    +0.000 A 
ATOM     17  C   UNL     1       2.579   2.694  21.555  0.00  0.00    +0.000 A 
ATOM     18  C   UNL     1       1.244   2.763  21.222  0.00  0.00    +0.000 A 
ATOM     19  S   UNL     1       1.010   2.811  19.526  0.00  0.00    +0.000 S 
ENDBRANCH  14  15
ENDBRANCH  13  14
ENDBRANCH   3  13
TORSDOF 4
ENDMDL
MODEL 5
REMARK VINA RESULT:      -6.3      4.891      6.144
REMARK  Name = 
REMARK  5 active torsions:
REMARK  status: ('A' for Active; 'I' for Inactive)
REMARK    1  A    between atoms: C_1  and  N_2
REMARK    2  A    between atoms: C_4  and  C_5
REMARK    3  A    between atoms: N_7  and  C_8
REMARK    4  A    between atoms: C_8  and  C_9
REMARK    5  A    between atoms: C_9  and  C_10
REMARK                            x       y       z     vdW  Elec       q    Type
REMARK                         _______ _______ _______ _____ _____    ______ ____
ROOT
ATOM      1  C   UNL     1       3.097   5.934  18.911  0.00  0.00    +0.000 C 
ATOM      2  O   UNL     1       3.719   5.444  19.845  0.00  0.00    +0.000 OA
ATOM      3  N   UNL     1       3.018   5.369  17.661  0.00  0.00    +0.000 N 
ATOM      4  H   UNL     1       2.512   5.858  16.926  0.00  0.00    +0.000 HD
ENDROOT
BRANCH   1   8
ATOM      5  C   UNL     1       0.724   9.064  21.793  0.00  0.00    +0.000 C 
ATOM      6  N   UNL     1       1.220   8.748  20.466  0.00  0.00    +0.000 N 
ATOM      7  N   UNL     1       1.889   7.552  20.308  0.00  0.00    +0.000 NA
ATOM      8  C   UNL     1       2.350   7.247  19.135  0.00  0.00    +0.000 C 
ATOM      9  C   UNL     1       2.226   8.097  17.907  0.00  0.00    +0.000 C 
ATOM     10  C   UNL     1       1.488   9.389  18.091  0.00  0.00    +0.000 C 
ATOM     11  C   UNL     1       0.965   9.677  19.465  0.00  0.00    +0.000 C 
ATOM     12  O   UNL     1       0.337  10.721  19.665  0.00  0.00    +0.000 OA
ENDBRANCH   1   8
BRANCH   3  13
ATOM     13  C   UNL     1       3.743   4.141  17.399  0.00  0.00    +0.000 C 
BRANCH  13  14
ATOM     14  C   UNL     1       4.991   4.291  16.528  0.00  0.00    +0.000 C 
BRANCH  14  15
ATOM     15  C   UNL     1       5.971   5.315  17.032  0.00  0.00    +0.000 A 
ATOM     16  C   UNL     1       6.054   6.651  16.682  0.00  0.00    +0.000 A 
ATOM     17  C   UNL     1       7.079   7.340  17.391  0.00  0.00    +0.000 A 
ATOM     18  C   UNL     1       7.746   6.512  18.267  0.00  0.00    +0.000 A 
ATOM     19  S   UNL     1       7.127   4.915  18.233  0.00  0.00    +0.000 S 
ENDBRANCH  14  15
ENDBRANCH  13  14
ENDBRANCH   3  13
TORSDOF 4
ENDMDL
MODEL 6
REMARK VINA RESULT:      -6.3      7.062      9.197
REMARK  Name = 
REMARK  5 active torsions:
REMARK  status: ('A' for Active; 'I' for Inactive)
REMARK    1  A    between atoms: C_1  and  N_2
REMARK    2  A    between atoms: C_4  and  C_5
REMARK    3  A    between atoms: N_7  and  C_8
REMARK    4  A    between atoms: C_8  and  C_9
REMARK    5  A    between atoms: C_9  and  C_10
REMARK                            x       y       z     vdW  Elec       q    Type
REMARK                         _______ _______ _______ _____ _____    ______ ____
ROOT
ATOM      1  C   UNL     1       1.604   8.637  19.261  0.00  0.00    +0.000 C 
ATOM      2  O   UNL     1       1.605   9.105  18.130  0.00  0.00    +0.000 OA
ATOM      3  N   UNL     1       2.221   7.459  19.605  0.00  0.00    +0.000 N 
ATOM      4  H   UNL     1       2.144   7.118  20.560  0.00  0.00    +0.000 HD
ENDROOT
BRANCH   1   8
ATOM      5  C   UNL     1       0.117  12.798  21.314  0.00  0.00    +0.000 C 
ATOM      6  N   UNL     1       0.171  11.348  21.371  0.00  0.00    +0.000 N 
ATOM      7  N   UNL     1       0.828  10.697  20.349  0.00  0.00    +0.000 NA
ATOM      8  C   UNL     1       0.886   9.403  20.371  0.00  0.00    +0.000 C 
ATOM      9  C   UNL     1       0.284   8.525  21.427  0.00  0.00    +0.000 C 
ATOM     10  C   UNL     1      -0.419   9.247  22.538  0.00  0.00    +0.000 C 
ATOM     11  C   UNL     1      -0.438  10.742  22.464  0.00  0.00    +0.000 C 
ATOM     12  O   UNL     1      -0.991  11.384  23.363  0.00  0.00    +0.000 OA
ENDBRANCH   1   8
BRANCH   3  13
ATOM     13  C   UNL     1       2.883   6.686  18.572  0.00  0.00    +0.000 C 
BRANCH  13  14
ATOM     14  C   UNL     1       2.225   5.347  18.234  0.00  0.00    +0.000 C 
BRANCH  14  15
ATOM     15  C   UNL     1       2.157   4.389  19.392  0.00  0.00    +0.000 A 
ATOM     16  C   UNL     1       1.062   4.098  20.185  0.00  0.00    +0.000 A 
ATOM     17  C   UNL     1       1.346   3.105  21.167  0.00  0.00    +0.000 A 
ATOM     18  C   UNL     1       2.649   2.663  21.091  0.00  0.00    +0.000 A 
ATOM     19  S   UNL     1       3.515   3.441  19.835  0.00  0.00    +0.000 S 
ENDBRANCH  14  15
ENDBRANCH  13  14
ENDBRANCH   3  13
TORSDOF 4
ENDMDL
MODEL 7
REMARK VINA RESULT:      -6.3      4.979      7.257
REMARK  Name = 
REMARK  5 active torsions:
REMARK  status: ('A' for Active; 'I' for Inactive)
REMARK    1  A    between atoms: C_1  and  N_2
REMARK    2  A    between atoms: C_4  and  C_5
REMARK    3  A    between atoms: N_7  and  C_8
REMARK    4  A    between atoms: C_8  and  C_9
REMARK    5  A    between atoms: C_9  and  C_10
REMARK                            x       y       z     vdW  Elec       q    Type
REMARK                         _______ _______ _______ _____ _____    ______ ____
ROOT
ATOM      1  C   UNL     1       6.362   5.299  17.134  0.00  0.00    +0.000 C 
ATOM      2  O   UNL     1       7.334   5.603  17.813  0.00  0.00    +0.000 OA
ATOM      3  N   UNL     1       5.077   5.240  17.615  0.00  0.00    +0.000 N 
ATOM      4  H   UNL     1       4.327   4.942  16.995  0.00  0.00    +0.000 HD
ENDROOT
BRANCH   1   8
ATOM      5  C   UNL     1       8.763   5.854  12.931  0.00  0.00    +0.000 C 
ATOM      6  N   UNL     1       7.681   5.210  13.654  0.00  0.00    +0.000 N 
ATOM      7  N   UNL     1       7.527   5.535  14.985  0.00  0.00    +0.000 NA
ATOM      8  C   UNL     1       6.573   4.970  15.657  0.00  0.00    +0.000 C 
ATOM      9  C   UNL     1       5.604   3.965  15.110  0.00  0.00    +0.000 C 
ATOM     10  C   UNL     1       5.778   3.629  13.659  0.00  0.00    +0.000 C 
ATOM     11  C   UNL     1       6.886   4.327  12.934  0.00  0.00    +0.000 C 
ATOM     12  O   UNL     1       7.061   4.096  11.733  0.00  0.00    +0.000 OA
ENDBRANCH   1   8
BRANCH   3  13
ATOM     13  C   UNL     1       4.840   5.511  19.020  0.00  0.00    +0.000 C 
BRANCH  13  14
ATOM     14  C   UNL     1       3.412   5.927  19.375  0.00  0.00    +0.000 C 
BRANCH  14  15
ATOM     15  C   UNL     1       2.508   4.776  19.724  0.00  0.00    +0.000 A 
ATOM     16  C   UNL     1       2.202   4.291  20.982  0.00  0.00    +0.000 A 
ATOM     17  C   UNL     1       1.272   3.212  20.943  0.00  0.00    +0.000 A 
ATOM     18  C   UNL     1       0.890   2.908  19.655  0.00  0.00    +0.000 A 
ATOM     19  S   UNL     1       1.649   3.928  18.506  0.00  0.00    +0.000 S 
ENDBRANCH  14  15
ENDBRANCH  13  14
ENDBRANCH   3  13
TORSDOF 4
ENDMDL
MODEL 8
REMARK VINA RESULT:      -6.3      3.525      4.644
REMARK  Name = 
REMARK  5 active torsions:
REMARK  status: ('A' for Active; 'I' for Inactive)
REMARK    1  A    between atoms: C_1  and  N_2
REMARK    2  A    between atoms: C_4  and  C_5
REMARK    3  A    between atoms: N_7  and  C_8
REMARK    4  A    between atoms: C_8  and  C_9
REMARK    5  A    between atoms: C_9  and  C_10
REMARK                            x       y       z     vdW  Elec       q    Type
REMARK                         _______ _______ _______ _____ _____    ______ ____
ROOT
ATOM      1  C   UNL     1       3.859   5.069  17.564  0.00  0.00    +0.000 C 
ATOM      2  O   UNL     1       3.774   6.287  17.467  0.00  0.00    +0.000 OA
ATOM      3  N   UNL     1       4.486   4.268  16.642  0.00  0.00    +0.000 N 
ATOM      4  H   UNL     1       4.482   3.259  16.776  0.00  0.00    +0.000 HD
ENDROOT
BRANCH   1   8
ATOM      5  C   UNL     1       4.045   1.824  21.194  0.00  0.00    +0.000 C 
ATOM      6  N   UNL     1       3.295   2.861  20.508  0.00  0.00    +0.000 N 
ATOM      7  N   UNL     1       3.888   3.452  19.412  0.00  0.00    +0.000 NA
ATOM      8  C   UNL     1       3.244   4.386  18.785  0.00  0.00    +0.000 C 
ATOM      9  C   UNL     1       1.886   4.902  19.153  0.00  0.00    +0.000 C 
ATOM     10  C   UNL     1       1.249   4.244  20.341  0.00  0.00    +0.000 C 
ATOM     11  C   UNL     1       2.035   3.161  21.013  0.00  0.00    +0.000 C 
ATOM     12  O   UNL     1       1.548   2.577  21.986  0.00  0.00    +0.000 OA
ENDBRANCH   1   8
BRANCH   3  13
ATOM     13  C   UNL     1       5.051   4.875  15.453  0.00  0.00    +0.000 C 
BRANCH  13  14
ATOM     14  C   UNL     1       6.574   5.013  15.449  0.00  0.00    +0.000 C 
BRANCH  14  15
ATOM     15  C   UNL     1       7.136   5.644  16.694  0.00  0.00    +0.000 A 
ATOM     16  C   UNL     1       7.291   6.991  16.964  0.00  0.00    +0.000 A 
ATOM     17  C   UNL     1       7.817   7.232  18.266  0.00  0.00    +0.000 A 
ATOM     18  C   UNL     1       8.044   6.061  18.955  0.00  0.00    +0.000 A 
ATOM     19  S   UNL     1       7.615   4.683  18.032  0.00  0.00    +0.000 S 
ENDBRANCH  14  15
ENDBRANCH  13  14
ENDBRANCH   3  13
TORSDOF 4
ENDMDL
MODEL 9
REMARK VINA RESULT:      -6.3      3.700      7.280
REMARK  Name = 
REMARK  5 active torsions:
REMARK  status: ('A' for Active; 'I' for Inactive)
REMARK    1  A    between atoms: C_1  and  N_2
REMARK    2  A    between atoms: C_4  and  C_5
REMARK    3  A    between atoms: N_7  and  C_8
REMARK    4  A    between atoms: C_8  and  C_9
REMARK    5  A    between atoms: C_9  and  C_10
REMARK                            x       y       z     vdW  Elec       q    Type
REMARK                         _______ _______ _______ _____ _____    ______ ____
ROOT
ATOM      1  C   UNL     1       4.863   3.848  17.166  0.00  0.00    +0.000 C 
ATOM      2  O   UNL     1       4.367   3.927  16.049  0.00  0.00    +0.000 OA
ATOM      3  N   UNL     1       4.563   2.860  18.071  0.00  0.00    +0.000 N 
ATOM      4  H   UNL     1       4.991   2.885  18.994  0.00  0.00    +0.000 HD
ENDROOT
BRANCH   1   8
ATOM      5  C   UNL     1       8.359   5.452  20.156  0.00  0.00    +0.000 C 
ATOM      6  N   UNL     1       7.538   5.693  18.984  0.00  0.00    +0.000 N 
ATOM      7  N   UNL     1       6.628   4.716  18.636  0.00  0.00    +0.000 NA
ATOM      8  C   UNL     1       5.886   4.901  17.590  0.00  0.00    +0.000 C 
ATOM      9  C   UNL     1       5.931   6.103  16.695  0.00  0.00    +0.000 C 
ATOM     10  C   UNL     1       6.918   7.161  17.090  0.00  0.00    +0.000 C 
ATOM     11  C   UNL     1       7.734   6.897  18.318  0.00  0.00    +0.000 C 
ATOM     12  O   UNL     1       8.550   7.744  18.694  0.00  0.00    +0.000 OA
ENDBRANCH   1   8
BRANCH   3  13
ATOM     13  C   UNL     1       3.571   1.863  17.719  0.00  0.00    +0.000 C 
BRANCH  13  14
ATOM     14  C   UNL     1       2.139   2.185  18.147  0.00  0.00    +0.000 C 
BRANCH  14  15
ATOM     15  C   UNL     1       2.046   2.997  19.411  0.00  0.00    +0.000 A 
ATOM     16  C   UNL     1       2.134   2.545  20.715  0.00  0.00    +0.000 A 
ATOM     17  C   UNL     1       2.046   3.601  21.668  0.00  0.00    +0.000 A 
ATOM     18  C   UNL     1       1.899   4.829  21.063  0.00  0.00    +0.000 A 
ATOM     19  S   UNL     1       1.875   4.702  19.355  0.00  0.00    +0.000 S 
ENDBRANCH  14  15
ENDBRANCH  13  14
ENDBRANCH   3  13
TORSDOF 4
ENDMDL
