MODEL 1
REMARK VINA RESULT:      -7.6      0.000      0.000
REMARK  Name = 
REMARK  10 active torsions:
REMARK  status: ('A' for Active; 'I' for Inactive)
REMARK    1  A    between atoms: N_3  and  C_4
REMARK    2  A    between atoms: C_4  and  C_5
REMARK    3  A    between atoms: C_5  and  C_6
REMARK    4  A    between atoms: C_6  and  C_7
REMARK    5  A    between atoms: C_16  and  O_17
REMARK    6  A    between atoms: C_16  and  C_18
REMARK    7  A    between atoms: C_18  and  N_19
REMARK    8  A    between atoms: N_22  and  C_23
REMARK    9  A    between atoms: C_23  and  C_24
REMARK   10  A    between atoms: C_24  and  O_25
REMARK                            x       y       z     vdW  Elec       q    Type
REMARK                         _______ _______ _______ _____ _____    ______ ____
ROOT
ATOM      1  O   UNL     1       5.264   7.387  16.530  0.00  0.00    +0.000 OA
ATOM      2  C   UNL     1       6.026   6.617  17.110  0.00  0.00    +0.000 C 
ATOM      3  N   UNL     1       7.229   7.068  17.633  0.00  0.00    +0.000 N 
ATOM      4  C   UNL     1       7.907   6.321  18.691  0.00  0.00    +0.000 C 
ATOM      5  C   UNL     1       7.974   4.836  18.365  0.00  0.00    +0.000 C 
ATOM      6  C   UNL     1       6.559   4.299  18.161  0.00  0.00    +0.000 C 
ATOM      7  C   UNL     1       5.825   5.079  17.069  0.00  0.00    +0.000 C 
ENDROOT
BRANCH   7   8
ATOM      8  O   UNL     1       6.445   4.709  15.805  0.00  0.00    +0.000 OA
ATOM      9  H   UNL     1       6.950   5.487  15.498  0.00  0.00    +0.000 HD
ENDBRANCH   7   8
BRANCH   3  10
ATOM     10  C   UNL     1       7.635   8.447  17.370  0.00  0.00    +0.000 C 
BRANCH  10  11
ATOM     11  C   UNL     1       8.613   9.081  18.362  0.00  0.00    +0.000 C 
BRANCH  11  12
ATOM     12  C   UNL     1       8.504  10.599  18.479  0.00  0.00    +0.000 C 
BRANCH  12  13
ATOM     13  C   UNL     1       9.860  11.209  18.758  0.00  0.00    +0.000 A 
ATOM     14  C   UNL     1      10.297  11.419  20.074  0.00  0.00    +0.000 A 
ATOM     15  C   UNL     1      11.530  12.029  20.322  0.00  0.00    +0.000 A 
ATOM     16  C   UNL     1      12.333  12.441  19.260  0.00  0.00    +0.000 A 
ATOM     17  C   UNL     1      11.906  12.243  17.950  0.00  0.00    +0.000 A 
ATOM     18  C   UNL     1      10.676  11.631  17.699  0.00  0.00    +0.000 A 
ENDBRANCH  12  13
ENDBRANCH  11  12
ENDBRANCH  10  11
ENDBRANCH   3  10
BRANCH   7  19
ATOM     19  C   UNL     1       4.325   4.670  16.963  0.00  0.00    +0.000 C 
BRANCH  19  20
ATOM     20  N   UNL     1       3.392   5.076  18.048  0.00  0.00    +0.000 NA
ATOM     21  C   UNL     1       1.995   4.673  17.784  0.00  0.00    +0.000 C 
ATOM     22  C   UNL     1       1.764   3.143  17.845  0.00  0.00    +0.000 C 
ATOM     23  N   UNL     1       2.075   2.555  19.162  0.00  0.00    +0.000 NA
ATOM     24  C   UNL     1       3.473   2.936  19.494  0.00  0.00    +0.000 C 
ATOM     25  C   UNL     1       3.796   4.451  19.337  0.00  0.00    +0.000 C 
BRANCH  23  26
ATOM     26  C   UNL     1       1.114   2.977  20.200  0.00  0.00    +0.000 C 
BRANCH  26  27
ATOM     27  C   UNL     1       1.468   2.431  21.596  0.00  0.00    +0.000 C 
BRANCH  27  28
ATOM     28  O   UNL     1       2.173   3.407  22.357  0.00  0.00    +0.000 OA
ATOM     29  H   UNL     1       2.491   2.934  23.152  0.00  0.00    +0.000 HD
ENDBRANCH  27  28
ENDBRANCH  26  27
ENDBRANCH  23  26
ENDBRANCH  19  20
ENDBRANCH   7  19
TORSDOF 10
ENDMDL
MODEL 2
REMARK VINA RESULT:      -7.3      0.950      1.597
REMARK  Name = 
REMARK  10 active torsions:
REMARK  status: ('A' for Active; 'I' for Inactive)
REMARK    1  A    between atoms: N_3  and  C_4
REMARK    2  A    between atoms: C_4  and  C_5
REMARK    3  A    between atoms: C_5  and  C_6
REMARK    4  A    between atoms: C_6  and  C_7
REMARK    5  A    between atoms: C_16  and  O_17
REMARK    6  A    between atoms: C_16  and  C_18
REMARK    7  A    between atoms: C_18  and  N_19
REMARK    8  A    between atoms: N_22  and  C_23
REMARK    9  A    between atoms: C_23  and  C_24
REMARK   10  A    between atoms: C_24  and  O_25
REMARK                            x       y       z     vdW  Elec       q    Type
REMARK                         _______ _______ _______ _____ _____    ______ ____
ROOT
ATOM      1  O   UNL     1       5.367   7.377  16.454  0.00  0.00    +0.000 OA
ATOM      2  C   UNL     1       6.148   6.642  17.054  0.00  0.00    +0.000 C 
ATOM      3  N   UNL     1       7.255   7.163  17.709  0.00  0.00    +0.000 N 
ATOM      4  C   UNL     1       7.910   6.411  18.777  0.00  0.00    +0.000 C 
ATOM      5  C   UNL     1       8.146   4.964  18.371  0.00  0.00    +0.000 C 
ATOM      6  C   UNL     1       6.812   4.316  18.009  0.00  0.00    +0.000 C 
ATOM      7  C   UNL     1       6.100   5.098  16.904  0.00  0.00    +0.000 C 
ENDROOT
BRANCH   7   8
ATOM      8  O   UNL     1       6.857   4.872  15.681  0.00  0.00    +0.000 OA
ATOM      9  H   UNL     1       7.802   4.883  15.926  0.00  0.00    +0.000 HD
ENDBRANCH   7   8
BRANCH   3  10
ATOM     10  C   UNL     1       7.547   8.588  17.565  0.00  0.00    +0.000 C 
BRANCH  10  11
ATOM     11  C   UNL     1       8.752   9.129  18.340  0.00  0.00    +0.000 C 
BRANCH  11  12
ATOM     12  C   UNL     1       8.568  10.536  18.899  0.00  0.00    +0.000 C 
BRANCH  12  13
ATOM     13  C   UNL     1       9.680  11.446  18.425  0.00  0.00    +0.000 A 
ATOM     14  C   UNL     1       9.403  12.565  17.628  0.00  0.00    +0.000 A 
ATOM     15  C   UNL     1      10.441  13.372  17.153  0.00  0.00    +0.000 A 
ATOM     16  C   UNL     1      11.764  13.063  17.463  0.00  0.00    +0.000 A 
ATOM     17  C   UNL     1      12.051  11.950  18.248  0.00  0.00    +0.000 A 
ATOM     18  C   UNL     1      11.016  11.145  18.726  0.00  0.00    +0.000 A 
ENDBRANCH  12  13
ENDBRANCH  11  12
ENDBRANCH  10  11
ENDBRANCH   3  10
BRANCH   7  19
ATOM     19  C   UNL     1       4.660   4.563  16.639  0.00  0.00    +0.000 C 
BRANCH  19  20
ATOM     20  N   UNL     1       4.139   3.457  17.486  0.00  0.00    +0.000 NA
ATOM     21  C   UNL     1       4.250   3.742  18.933  0.00  0.00    +0.000 C 
ATOM     22  C   UNL     1       3.305   4.868  19.422  0.00  0.00    +0.000 C 
ATOM     23  N   UNL     1       1.876   4.567  19.212  0.00  0.00    +0.000 NA
ATOM     24  C   UNL     1       1.699   4.258  17.769  0.00  0.00    +0.000 C 
ATOM     25  C   UNL     1       2.700   3.215  17.193  0.00  0.00    +0.000 C 
BRANCH  23  26
ATOM     26  C   UNL     1       1.405   3.473  20.085  0.00  0.00    +0.000 C 
BRANCH  26  27
ATOM     27  C   UNL     1       1.861   3.640  21.547  0.00  0.00    +0.000 C 
BRANCH  27  28
ATOM     28  O   UNL     1       2.666   2.539  21.955  0.00  0.00    +0.000 OA
ATOM     29  H   UNL     1       2.051   1.916  22.391  0.00  0.00    +0.000 HD
ENDBRANCH  27  28
ENDBRANCH  26  27
ENDBRANCH  23  26
ENDBRANCH  19  20
ENDBRANCH   7  19
TORSDOF 10
ENDMDL
MODEL 3
REMARK VINA RESULT:      -7.2      1.127      1.832
REMARK  Name = 
REMARK  10 active torsions:
REMARK  status: ('A' for Active; 'I' for Inactive)
REMARK    1  A    between atoms: N_3  and  C_4
REMARK    2  A    between atoms: C_4  and  C_5
REMARK    3  A    between atoms: C_5  and  C_6
REMARK    4  A    between atoms: C_6  and  C_7
REMARK    5  A    between atoms: C_16  and  O_17
REMARK    6  A    between atoms: C_16  and  C_18
REMARK    7  A    between atoms: C_18  and  N_19
REMARK    8  A    between atoms: N_22  and  C_23
REMARK    9  A    between atoms: C_23  and  C_24
REMARK   10  A    between atoms: C_24  and  O_25
REMARK                            x       y       z     vdW  Elec       q    Type
REMARK                         _______ _______ _______ _____ _____    ______ ____
ROOT
ATOM      1  O   UNL     1       5.754   7.443  16.372  0.00  0.00    +0.000 OA
ATOM      2  C   UNL     1       6.435   6.743  17.118  0.00  0.00    +0.000 C 
ATOM      3  N   UNL     1       7.513   7.279  17.808  0.00  0.00    +0.000 N 
ATOM      4  C   UNL     1       8.028   6.622  19.008  0.00  0.00    +0.000 C 
ATOM      5  C   UNL     1       8.209   5.127  18.786  0.00  0.00    +0.000 C 
ATOM      6  C   UNL     1       6.872   4.512  18.379  0.00  0.00    +0.000 C 
ATOM      7  C   UNL     1       6.306   5.197  17.134  0.00  0.00    +0.000 C 
ENDROOT
BRANCH   7   8
ATOM      8  O   UNL     1       7.147   4.793  16.017  0.00  0.00    +0.000 OA
ATOM      9  H   UNL     1       6.960   5.410  15.284  0.00  0.00    +0.000 HD
ENDBRANCH   7   8
BRANCH   3  10
ATOM     10  C   UNL     1       7.903   8.661  17.536  0.00  0.00    +0.000 C 
BRANCH  10  11
ATOM     11  C   UNL     1       8.728   9.372  18.612  0.00  0.00    +0.000 C 
BRANCH  11  12
ATOM     12  C   UNL     1       9.513  10.581  18.114  0.00  0.00    +0.000 C 
BRANCH  12  13
ATOM     13  C   UNL     1       9.661  11.609  19.214  0.00  0.00    +0.000 A 
ATOM     14  C   UNL     1      10.155  12.891  18.939  0.00  0.00    +0.000 A 
ATOM     15  C   UNL     1      10.335  13.818  19.969  0.00  0.00    +0.000 A 
ATOM     16  C   UNL     1      10.030  13.469  21.284  0.00  0.00    +0.000 A 
ATOM     17  C   UNL     1       9.546  12.196  21.570  0.00  0.00    +0.000 A 
ATOM     18  C   UNL     1       9.363  11.270  20.541  0.00  0.00    +0.000 A 
ENDBRANCH  12  13
ENDBRANCH  11  12
ENDBRANCH  10  11
ENDBRANCH   3  10
BRANCH   7  19
ATOM     19  C   UNL     1       4.863   4.710  16.802  0.00  0.00    +0.000 C 
BRANCH  19  20
ATOM     20  N   UNL     1       4.344   3.490  17.477  0.00  0.00    +0.000 NA
ATOM     21  C   UNL     1       4.324   3.615  18.950  0.00  0.00    +0.000 C 
ATOM     22  C   UNL     1       3.279   4.630  19.477  0.00  0.00    +0.000 C 
ATOM     23  N   UNL     1       1.891   4.284  19.116  0.00  0.00    +0.000 NA
ATOM     24  C   UNL     1       1.846   4.130  17.639  0.00  0.00    +0.000 C 
ATOM     25  C   UNL     1       2.949   3.210  17.039  0.00  0.00    +0.000 C 
BRANCH  23  26
ATOM     26  C   UNL     1       1.419   3.076  19.823  0.00  0.00    +0.000 C 
BRANCH  26  27
ATOM     27  C   UNL     1       1.362   3.265  21.350  0.00  0.00    +0.000 C 
BRANCH  27  28
ATOM     28  O   UNL     1       2.314   2.429  22.000  0.00  0.00    +0.000 OA
ATOM     29  H   UNL     1       2.911   2.118  21.290  0.00  0.00    +0.000 HD
ENDBRANCH  27  28
ENDBRANCH  26  27
ENDBRANCH  23  26
ENDBRANCH  19  20
ENDBRANCH   7  19
TORSDOF 10
ENDMDL
MODEL 4
REMARK VINA RESULT:      -7.1      0.658      1.175
REMARK  Name = 
REMARK  10 active torsions:
REMARK  status: ('A' for Active; 'I' for Inactive)
REMARK    1  A    between atoms: N_3  and  C_4
REMARK    2  A    between atoms: C_4  and  C_5
REMARK    3  A    between atoms: C_5  and  C_6
REMARK    4  A    between atoms: C_6  and  C_7
REMARK    5  A    between atoms: C_16  and  O_17
REMARK    6  A    between atoms: C_16  and  C_18
REMARK    7  A    between atoms: C_18  and  N_19
REMARK    8  A    between atoms: N_22  and  C_23
REMARK    9  A    between atoms: C_23  and  C_24
REMARK   10  A    between atoms: C_24  and  O_25
REMARK                            x       y       z     vdW  Elec       q    Type
REMARK                         _______ _______ _______ _____ _____    ______ ____
ROOT
ATOM      1  O   UNL     1       5.134   7.433  16.759  0.00  0.00    +0.000 OA
ATOM      2  C   UNL     1       5.939   6.629  17.224  0.00  0.00    +0.000 C 
ATOM      3  N   UNL     1       7.152   7.058  17.745  0.00  0.00    +0.000 N 
ATOM      4  C   UNL     1       7.892   6.225  18.690  0.00  0.00    +0.000 C 
ATOM      5  C   UNL     1       7.984   4.785  18.205  0.00  0.00    +0.000 C 
ATOM      6  C   UNL     1       6.576   4.230  17.999  0.00  0.00    +0.000 C 
ATOM      7  C   UNL     1       5.777   5.099  17.026  0.00  0.00    +0.000 C 
ENDROOT
BRANCH   7   8
ATOM      8  O   UNL     1       6.353   4.884  15.707  0.00  0.00    +0.000 OA
ATOM      9  H   UNL     1       5.678   4.421  15.174  0.00  0.00    +0.000 HD
ENDBRANCH   7   8
BRANCH   3  10
ATOM     10  C   UNL     1       7.510   8.469  17.615  0.00  0.00    +0.000 C 
BRANCH  10  11
ATOM     11  C   UNL     1       8.721   8.952  18.419  0.00  0.00    +0.000 C 
BRANCH  11  12
ATOM     12  C   UNL     1       8.582  10.359  18.992  0.00  0.00    +0.000 C 
BRANCH  12  13
ATOM     13  C   UNL     1       9.915  11.075  18.970  0.00  0.00    +0.000 A 
ATOM     14  C   UNL     1      10.565  11.420  20.163  0.00  0.00    +0.000 A 
ATOM     15  C   UNL     1      11.771  12.126  20.134  0.00  0.00    +0.000 A 
ATOM     16  C   UNL     1      12.333  12.499  18.914  0.00  0.00    +0.000 A 
ATOM     17  C   UNL     1      11.692  12.168  17.724  0.00  0.00    +0.000 A 
ATOM     18  C   UNL     1      10.489  11.460  17.751  0.00  0.00    +0.000 A 
ENDBRANCH  12  13
ENDBRANCH  11  12
ENDBRANCH  10  11
ENDBRANCH   3  10
BRANCH   7  19
ATOM     19  C   UNL     1       4.285   4.658  16.935  0.00  0.00    +0.000 C 
BRANCH  19  20
ATOM     20  N   UNL     1       3.858   3.419  17.638  0.00  0.00    +0.000 NA
ATOM     21  C   UNL     1       3.886   3.556  19.110  0.00  0.00    +0.000 C 
ATOM     22  C   UNL     1       2.807   4.518  19.667  0.00  0.00    +0.000 C 
ATOM     23  N   UNL     1       1.428   4.092  19.361  0.00  0.00    +0.000 NA
ATOM     24  C   UNL     1       1.337   3.923  17.887  0.00  0.00    +0.000 C 
ATOM     25  C   UNL     1       2.466   3.059  17.254  0.00  0.00    +0.000 C 
BRANCH  23  26
ATOM     26  C   UNL     1       1.049   2.868  20.094  0.00  0.00    +0.000 C 
BRANCH  26  27
ATOM     27  C   UNL     1       2.057   2.499  21.198  0.00  0.00    +0.000 C 
BRANCH  27  28
ATOM     28  O   UNL     1       1.602   2.950  22.470  0.00  0.00    +0.000 OA
ATOM     29  H   UNL     1       2.411   3.206  22.958  0.00  0.00    +0.000 HD
ENDBRANCH  27  28
ENDBRANCH  26  27
ENDBRANCH  23  26
ENDBRANCH  19  20
ENDBRANCH   7  19
TORSDOF 10
ENDMDL
MODEL 5
REMARK VINA RESULT:      -7.0      1.263      1.742
REMARK  Name = 
REMARK  10 active torsions:
REMARK  status: ('A' for Active; 'I' for Inactive)
REMARK    1  A    between atoms: N_3  and  C_4
REMARK    2  A    between atoms: C_4  and  C_5
REMARK    3  A    between atoms: C_5  and  C_6
REMARK    4  A    between atoms: C_6  and  C_7
REMARK    5  A    between atoms: C_16  and  O_17
REMARK    6  A    between atoms: C_16  and  C_18
REMARK    7  A    between atoms: C_18  and  N_19
REMARK    8  A    between atoms: N_22  and  C_23
REMARK    9  A    between atoms: C_23  and  C_24
REMARK   10  A    between atoms: C_24  and  O_25
REMARK                            x       y       z     vdW  Elec       q    Type
REMARK                         _______ _______ _______ _____ _____    ______ ____
ROOT
ATOM      1  O   UNL     1       6.023   7.081  16.335  0.00  0.00    +0.000 OA
ATOM      2  C   UNL     1       6.684   6.577  17.241  0.00  0.00    +0.000 C 
ATOM      3  N   UNL     1       7.739   7.269  17.820  0.00  0.00    +0.000 N 
ATOM      4  C   UNL     1       8.221   6.909  19.152  0.00  0.00    +0.000 C 
ATOM      5  C   UNL     1       8.414   5.405  19.284  0.00  0.00    +0.000 C 
ATOM      6  C   UNL     1       7.093   4.699  18.991  0.00  0.00    +0.000 C 
ATOM      7  C   UNL     1       6.561   5.074  17.607  0.00  0.00    +0.000 C 
ENDROOT
BRANCH   7   8
ATOM      8  O   UNL     1       7.437   4.435  16.636  0.00  0.00    +0.000 OA
ATOM      9  H   UNL     1       8.201   4.084  17.132  0.00  0.00    +0.000 HD
ENDBRANCH   7   8
BRANCH   3  10
ATOM     10  C   UNL     1       8.131   8.555  17.249  0.00  0.00    +0.000 C 
BRANCH  10  11
ATOM     11  C   UNL     1       8.053   9.774  18.173  0.00  0.00    +0.000 C 
BRANCH  11  12
ATOM     12  C   UNL     1       9.377  10.165  18.822  0.00  0.00    +0.000 C 
BRANCH  12  13
ATOM     13  C   UNL     1       9.864  11.491  18.281  0.00  0.00    +0.000 A 
ATOM     14  C   UNL     1      11.184  11.646  17.834  0.00  0.00    +0.000 A 
ATOM     15  C   UNL     1      11.638  12.888  17.382  0.00  0.00    +0.000 A 
ATOM     16  C   UNL     1      10.782  13.987  17.380  0.00  0.00    +0.000 A 
ATOM     17  C   UNL     1       9.471  13.847  17.828  0.00  0.00    +0.000 A 
ATOM     18  C   UNL     1       9.014  12.606  18.277  0.00  0.00    +0.000 A 
ENDBRANCH  12  13
ENDBRANCH  11  12
ENDBRANCH  10  11
ENDBRANCH   3  10
BRANCH   7  19
ATOM     19  C   UNL     1       5.131   4.508  17.354  0.00  0.00    +0.000 C 
BRANCH  19  20
ATOM     20  N   UNL     1       4.486   3.688  18.414  0.00  0.00    +0.000 NA
ATOM     21  C   UNL     1       3.452   4.431  19.165  0.00  0.00    +0.000 C 
ATOM     22  C   UNL     1       2.190   4.760  18.331  0.00  0.00    +0.000 C 
ATOM     23  N   UNL     1       1.491   3.562  17.828  0.00  0.00    +0.000 NA
ATOM     24  C   UNL     1       2.486   2.759  17.068  0.00  0.00    +0.000 C 
ATOM     25  C   UNL     1       3.825   2.496  17.815  0.00  0.00    +0.000 C 
BRANCH  23  26
ATOM     26  C   UNL     1       0.857   2.790  18.915  0.00  0.00    +0.000 C 
BRANCH  26  27
ATOM     27  C   UNL     1       0.646   3.625  20.192  0.00  0.00    +0.000 C 
BRANCH  27  28
ATOM     28  O   UNL     1       0.918   2.849  21.355  0.00  0.00    +0.000 OA
ATOM     29  H   UNL     1       1.349   3.464  21.981  0.00  0.00    +0.000 HD
ENDBRANCH  27  28
ENDBRANCH  26  27
ENDBRANCH  23  26
ENDBRANCH  19  20
ENDBRANCH   7  19
TORSDOF 10
ENDMDL
MODEL 6
REMARK VINA RESULT:      -6.9      0.841      1.105
REMARK  Name = 
REMARK  10 active torsions:
REMARK  status: ('A' for Active; 'I' for Inactive)
REMARK    1  A    between atoms: N_3  and  C_4
REMARK    2  A    between atoms: C_4  and  C_5
REMARK    3  A    between atoms: C_5  and  C_6
REMARK    4  A    between atoms: C_6  and  C_7
REMARK    5  A    between atoms: C_16  and  O_17
REMARK    6  A    between atoms: C_16  and  C_18
REMARK    7  A    between atoms: C_18  and  N_19
REMARK    8  A    between atoms: N_22  and  C_23
REMARK    9  A    between atoms: C_23  and  C_24
REMARK   10  A    between atoms: C_24  and  O_25
REMARK                            x       y       z     vdW  Elec       q    Type
REMARK                         _______ _______ _______ _____ _____    ______ ____
ROOT
ATOM      1  O   UNL     1       5.335   7.377  16.489  0.00  0.00    +0.000 OA
ATOM      2  C   UNL     1       6.110   6.643  17.098  0.00  0.00    +0.000 C 
ATOM      3  N   UNL     1       7.235   7.161  17.725  0.00  0.00    +0.000 N 
ATOM      4  C   UNL     1       7.890   6.424  18.804  0.00  0.00    +0.000 C 
ATOM      5  C   UNL     1       8.095   4.962  18.432  0.00  0.00    +0.000 C 
ATOM      6  C   UNL     1       6.744   4.331  18.103  0.00  0.00    +0.000 C 
ATOM      7  C   UNL     1       6.032   5.097  16.987  0.00  0.00    +0.000 C 
ENDROOT
BRANCH   7   8
ATOM      8  O   UNL     1       6.768   4.826  15.761  0.00  0.00    +0.000 OA
ATOM      9  H   UNL     1       7.714   4.961  15.963  0.00  0.00    +0.000 HD
ENDBRANCH   7   8
BRANCH   3  10
ATOM     10  C   UNL     1       7.551   8.575  17.541  0.00  0.00    +0.000 C 
BRANCH  10  11
ATOM     11  C   UNL     1       8.889   9.064  18.104  0.00  0.00    +0.000 C 
BRANCH  11  12
ATOM     12  C   UNL     1       8.784  10.264  19.039  0.00  0.00    +0.000 C 
BRANCH  12  13
ATOM     13  C   UNL     1       9.508  11.458  18.456  0.00  0.00    +0.000 A 
ATOM     14  C   UNL     1       8.870  12.701  18.343  0.00  0.00    +0.000 A 
ATOM     15  C   UNL     1       9.530  13.785  17.758  0.00  0.00    +0.000 A 
ATOM     16  C   UNL     1      10.829  13.635  17.274  0.00  0.00    +0.000 A 
ATOM     17  C   UNL     1      11.469  12.403  17.375  0.00  0.00    +0.000 A 
ATOM     18  C   UNL     1      10.813  11.320  17.963  0.00  0.00    +0.000 A 
ENDBRANCH  12  13
ENDBRANCH  11  12
ENDBRANCH  10  11
ENDBRANCH   3  10
BRANCH   7  19
ATOM     19  C   UNL     1       4.580   4.583  16.755  0.00  0.00    +0.000 C 
BRANCH  19  20
ATOM     20  N   UNL     1       3.489   5.096  17.626  0.00  0.00    +0.000 NA
ATOM     21  C   UNL     1       2.211   4.379  17.429  0.00  0.00    +0.000 C 
ATOM     22  C   UNL     1       2.234   2.914  17.931  0.00  0.00    +0.000 C 
ATOM     23  N   UNL     1       2.506   2.793  19.376  0.00  0.00    +0.000 NA
ATOM     24  C   UNL     1       3.780   3.510  19.644  0.00  0.00    +0.000 C 
ATOM     25  C   UNL     1       3.860   4.950  19.060  0.00  0.00    +0.000 C 
BRANCH  23  26
ATOM     26  C   UNL     1       1.389   3.303  20.196  0.00  0.00    +0.000 C 
BRANCH  26  27
ATOM     27  C   UNL     1       1.309   2.627  21.578  0.00  0.00    +0.000 C 
BRANCH  27  28
ATOM     28  O   UNL     1       2.585   2.611  22.208  0.00  0.00    +0.000 OA
ATOM     29  H   UNL     1       2.946   1.718  22.039  0.00  0.00    +0.000 HD
ENDBRANCH  27  28
ENDBRANCH  26  27
ENDBRANCH  23  26
ENDBRANCH  19  20
ENDBRANCH   7  19
TORSDOF 10
ENDMDL
MODEL 7
REMARK VINA RESULT:      -6.9      1.052      1.378
REMARK  Name = 
REMARK  10 active torsions:
REMARK  status: ('A' for Active; 'I' for Inactive)
REMARK    1  A    between atoms: N_3  and  C_4
REMARK    2  A    between atoms: C_4  and  C_5
REMARK    3  A    between atoms: C_5  and  C_6
REMARK    4  A    between atoms: C_6  and  C_7
REMARK    5  A    between atoms: C_16  and  O_17
REMARK    6  A    between atoms: C_16  and  C_18
REMARK    7  A    between atoms: C_18  and  N_19
REMARK    8  A    between atoms: N_22  and  C_23
REMARK    9  A    between atoms: C_23  and  C_24
REMARK   10  A    between atoms: C_24  and  O_25
REMARK                            x       y       z     vdW  Elec       q    Type
REMARK                         _______ _______ _______ _____ _____    ______ ____
ROOT
ATOM      1  O   UNL     1       4.991   7.414  16.808  0.00  0.00    +0.000 OA
ATOM      2  C   UNL     1       5.866   6.652  17.213  0.00  0.00    +0.000 C 
ATOM      3  N   UNL     1       7.049   7.146  17.745  0.00  0.00    +0.000 N 
ATOM      4  C   UNL     1       7.870   6.320  18.628  0.00  0.00    +0.000 C 
ATOM      5  C   UNL     1       8.069   4.925  18.054  0.00  0.00    +0.000 C 
ATOM      6  C   UNL     1       6.708   4.271  17.831  0.00  0.00    +0.000 C 
ATOM      7  C   UNL     1       5.825   5.128  16.923  0.00  0.00    +0.000 C 
ENDROOT
BRANCH   7   8
ATOM      8  O   UNL     1       6.394   5.041  15.586  0.00  0.00    +0.000 OA
ATOM      9  H   UNL     1       6.064   5.812  15.087  0.00  0.00    +0.000 HD
ENDBRANCH   7   8
BRANCH   3  10
ATOM     10  C   UNL     1       7.290   8.587  17.699  0.00  0.00    +0.000 C 
BRANCH  10  11
ATOM     11  C   UNL     1       8.556   9.099  18.390  0.00  0.00    +0.000 C 
BRANCH  11  12
ATOM     12  C   UNL     1       9.088  10.421  17.844  0.00  0.00    +0.000 C 
BRANCH  12  13
ATOM     13  C   UNL     1       9.319  11.406  18.969  0.00  0.00    +0.000 A 
ATOM     14  C   UNL     1       9.455  12.776  18.708  0.00  0.00    +0.000 A 
ATOM     15  C   UNL     1       9.718  13.673  19.748  0.00  0.00    +0.000 A 
ATOM     16  C   UNL     1       9.854  13.208  21.054  0.00  0.00    +0.000 A 
ATOM     17  C   UNL     1       9.728  11.848  21.324  0.00  0.00    +0.000 A 
ATOM     18  C   UNL     1       9.462  10.951  20.287  0.00  0.00    +0.000 A 
ENDBRANCH  12  13
ENDBRANCH  11  12
ENDBRANCH  10  11
ENDBRANCH   3  10
BRANCH   7  19
ATOM     19  C   UNL     1       4.372   4.574  16.823  0.00  0.00    +0.000 C 
BRANCH  19  20
ATOM     20  N   UNL     1       3.410   4.881  17.915  0.00  0.00    +0.000 NA
ATOM     21  C   UNL     1       2.076   4.285  17.689  0.00  0.00    +0.000 C 
ATOM     22  C   UNL     1       2.056   2.740  17.796  0.00  0.00    +0.000 C 
ATOM     23  N   UNL     1       2.466   2.239  19.122  0.00  0.00    +0.000 NA
ATOM     24  C   UNL     1       3.803   2.816  19.417  0.00  0.00    +0.000 C 
ATOM     25  C   UNL     1       3.914   4.355  19.212  0.00  0.00    +0.000 C 
BRANCH  23  26
ATOM     26  C   UNL     1       1.472   2.557  20.167  0.00  0.00    +0.000 C 
BRANCH  26  27
ATOM     27  C   UNL     1       2.107   2.727  21.560  0.00  0.00    +0.000 C 
BRANCH  27  28
ATOM     28  O   UNL     1       1.137   2.539  22.585  0.00  0.00    +0.000 OA
ATOM     29  H   UNL     1       1.330   1.659  22.966  0.00  0.00    +0.000 HD
ENDBRANCH  27  28
ENDBRANCH  26  27
ENDBRANCH  23  26
ENDBRANCH  19  20
ENDBRANCH   7  19
TORSDOF 10
ENDMDL
MODEL 8
REMARK VINA RESULT:      -6.9      8.042     10.737
REMARK  Name = 
REMARK  10 active torsions:
REMARK  status: ('A' for Active; 'I' for Inactive)
REMARK    1  A    between atoms: N_3  and  C_4
REMARK    2  A    between atoms: C_4  and  C_5
REMARK    3  A    between atoms: C_5  and  C_6
REMARK    4  A    between atoms: C_6  and  C_7
REMARK    5  A    between atoms: C_16  and  O_17
REMARK    6  A    between atoms: C_16  and  C_18
REMARK    7  A    between atoms: C_18  and  N_19
REMARK    8  A    between atoms: N_22  and  C_23
REMARK    9  A    between atoms: C_23  and  C_24
REMARK   10  A    between atoms: C_24  and  O_25
REMARK                            x       y       z     vdW  Elec       q    Type
REMARK                         _______ _______ _______ _____ _____    ______ ____
ROOT
ATOM      1  O   UNL     1      -0.008   9.122  21.127  0.00  0.00    +0.000 OA
ATOM      2  C   UNL     1       0.500   9.878  20.301  0.00  0.00    +0.000 C 
ATOM      3  N   UNL     1       1.404   9.401  19.363  0.00  0.00    +0.000 N 
ATOM      4  C   UNL     1       1.653  10.141  18.127  0.00  0.00    +0.000 C 
ATOM      5  C   UNL     1       1.881  11.620  18.404  0.00  0.00    +0.000 C 
ATOM      6  C   UNL     1       0.665  12.192  19.128  0.00  0.00    +0.000 C 
ATOM      7  C   UNL     1       0.375  11.420  20.416  0.00  0.00    +0.000 C 
ENDROOT
BRANCH   7   8
ATOM      8  O   UNL     1       1.437  11.759  21.352  0.00  0.00    +0.000 OA
ATOM      9  H   UNL     1       2.189  11.170  21.153  0.00  0.00    +0.000 HD
ENDBRANCH   7   8
BRANCH   3  10
ATOM     10  C   UNL     1       1.839   8.008  19.453  0.00  0.00    +0.000 C 
BRANCH  10  11
ATOM     11  C   UNL     1       2.667   7.465  18.286  0.00  0.00    +0.000 C 
BRANCH  11  12
ATOM     12  C   UNL     1       3.446   6.192  18.598  0.00  0.00    +0.000 C 
BRANCH  12  13
ATOM     13  C   UNL     1       2.507   5.083  19.019  0.00  0.00    +0.000 A 
ATOM     14  C   UNL     1       2.309   4.784  20.374  0.00  0.00    +0.000 A 
ATOM     15  C   UNL     1       1.478   3.726  20.752  0.00  0.00    +0.000 A 
ATOM     16  C   UNL     1       0.844   2.953  19.780  0.00  0.00    +0.000 A 
ATOM     17  C   UNL     1       1.039   3.236  18.432  0.00  0.00    +0.000 A 
ATOM     18  C   UNL     1       1.867   4.295  18.052  0.00  0.00    +0.000 A 
ENDBRANCH  12  13
ENDBRANCH  11  12
ENDBRANCH  10  11
ENDBRANCH   3  10
BRANCH   7  19
ATOM     19  C   UNL     1      -0.962  11.868  21.081  0.00  0.00    +0.000 C 
BRANCH  19  20
ATOM     20  N   UNL     1      -0.954  12.253  22.518  0.00  0.00    +0.000 NA
ATOM     21  C   UNL     1      -0.935  13.717  22.720  0.00  0.00    +0.000 C 
ATOM     22  C   UNL     1      -2.248  14.423  22.301  0.00  0.00    +0.000 C 
ATOM     23  N   UNL     1      -3.428  13.962  23.057  0.00  0.00    +0.000 NA
ATOM     24  C   UNL     1      -3.498  12.485  22.904  0.00  0.00    +0.000 C 
ATOM     25  C   UNL     1      -2.170  11.730  23.200  0.00  0.00    +0.000 C 
BRANCH  23  26
ATOM     26  C   UNL     1      -3.380  14.380  24.472  0.00  0.00    +0.000 C 
BRANCH  26  27
ATOM     27  C   UNL     1      -3.624  15.890  24.655  0.00  0.00    +0.000 C 
BRANCH  27  28
ATOM     28  O   UNL     1      -4.999  16.154  24.907  0.00  0.00    +0.000 OA
ATOM     29  H   UNL     1      -5.467  15.898  24.087  0.00  0.00    +0.000 HD
ENDBRANCH  27  28
ENDBRANCH  26  27
ENDBRANCH  23  26
ENDBRANCH  19  20
ENDBRANCH   7  19
TORSDOF 10
ENDMDL
MODEL 9
REMARK VINA RESULT:      -6.8      8.099     10.492
REMARK  Name = 
REMARK  10 active torsions:
REMARK  status: ('A' for Active; 'I' for Inactive)
REMARK    1  A    between atoms: N_3  and  C_4
REMARK    2  A    between atoms: C_4  and  C_5
REMARK    3  A    between atoms: C_5  and  C_6
REMARK    4  A    between atoms: C_6  and  C_7
REMARK    5  A    between atoms: C_16  and  O_17
REMARK    6  A    between atoms: C_16  and  C_18
REMARK    7  A    between atoms: C_18  and  N_19
REMARK    8  A    between atoms: N_22  and  C_23
REMARK    9  A    between atoms: C_23  and  C_24
REMARK   10  A    between atoms: C_24  and  O_25
REMARK                            x       y       z     vdW  Elec       q    Type
REMARK                         _______ _______ _______ _____ _____    ______ ____
ROOT
ATOM      1  O   UNL     1       1.052  12.115  19.734  0.00  0.00    +0.000 OA
ATOM      2  C   UNL     1       0.165  11.605  19.052  0.00  0.00    +0.000 C 
ATOM      3  N   UNL     1       0.415  10.469  18.296  0.00  0.00    +0.000 N 
ATOM      4  C   UNL     1      -0.683   9.603  17.868  0.00  0.00    +0.000 C 
ATOM      5  C   UNL     1      -1.828  10.413  17.277  0.00  0.00    +0.000 C 
ATOM      6  C   UNL     1      -2.321  11.421  18.313  0.00  0.00    +0.000 C 
ATOM      7  C   UNL     1      -1.183  12.326  18.787  0.00  0.00    +0.000 C 
ENDROOT
BRANCH   7   8
ATOM      8  O   UNL     1      -0.861  13.209  17.675  0.00  0.00    +0.000 OA
ATOM      9  H   UNL     1      -1.639  13.217  17.085  0.00  0.00    +0.000 HD
ENDBRANCH   7   8
BRANCH   3  10
ATOM     10  C   UNL     1       1.784   9.962  18.223  0.00  0.00    +0.000 C 
BRANCH  10  11
ATOM     11  C   UNL     1       1.967   8.538  17.692  0.00  0.00    +0.000 C 
BRANCH  11  12
ATOM     12  C   UNL     1       2.396   7.518  18.742  0.00  0.00    +0.000 C 
BRANCH  12  13
ATOM     13  C   UNL     1       2.913   6.259  18.082  0.00  0.00    +0.000 A 
ATOM     14  C   UNL     1       2.171   5.071  18.119  0.00  0.00    +0.000 A 
ATOM     15  C   UNL     1       2.679   3.900  17.549  0.00  0.00    +0.000 A 
ATOM     16  C   UNL     1       3.935   3.905  16.944  0.00  0.00    +0.000 A 
ATOM     17  C   UNL     1       4.683   5.077  16.907  0.00  0.00    +0.000 A 
ATOM     18  C   UNL     1       4.176   6.249  17.473  0.00  0.00    +0.000 A 
ENDBRANCH  12  13
ENDBRANCH  11  12
ENDBRANCH  10  11
ENDBRANCH   3  10
BRANCH   7  19
ATOM     19  C   UNL     1      -1.617  13.244  19.970  0.00  0.00    +0.000 C 
BRANCH  19  20
ATOM     20  N   UNL     1      -1.867  12.629  21.301  0.00  0.00    +0.000 NA
ATOM     21  C   UNL     1      -1.386  13.467  22.420  0.00  0.00    +0.000 C 
ATOM     22  C   UNL     1      -2.197  14.773  22.615  0.00  0.00    +0.000 C 
ATOM     23  N   UNL     1      -3.622  14.538  22.915  0.00  0.00    +0.000 NA
ATOM     24  C   UNL     1      -4.166  13.685  21.826  0.00  0.00    +0.000 C 
ATOM     25  C   UNL     1      -3.326  12.415  21.505  0.00  0.00    +0.000 C 
BRANCH  23  26
ATOM     26  C   UNL     1      -3.818  13.941  24.251  0.00  0.00    +0.000 C 
BRANCH  26  27
ATOM     27  C   UNL     1      -5.073  13.052  24.327  0.00  0.00    +0.000 C 
BRANCH  27  28
ATOM     28  O   UNL     1      -4.763  11.786  24.901  0.00  0.00    +0.000 OA
ATOM     29  H   UNL     1      -3.804  11.817  25.094  0.00  0.00    +0.000 HD
ENDBRANCH  27  28
ENDBRANCH  26  27
ENDBRANCH  23  26
ENDBRANCH  19  20
ENDBRANCH   7  19
TORSDOF 10
ENDMDL
