MODEL 1
REMARK VINA RESULT:      -8.5      0.000      0.000
REMARK  Name = 
REMARK  3 active torsions:
REMARK  status: ('A' for Active; 'I' for Inactive)
REMARK    1  A    between atoms: C_2  and  C_16
REMARK    2  A    between atoms: C_7  and  C_8
REMARK    3  A    between atoms: C_21  and  C_22
REMARK                            x       y       z     vdW  Elec       q    Type
REMARK                         _______ _______ _______ _____ _____    ______ ____
ROOT
ATOM      1  O   UNL     1       2.184   7.544  19.978  0.00  0.00    +0.000 OA
ATOM      2  C   UNL     1       2.340   7.686  18.769  0.00  0.00    +0.000 C 
ATOM      3  N   UNL     1       1.715   8.613  17.967  0.00  0.00    +0.000 N 
ATOM      4  C   UNL     1       0.734   9.501  18.406  0.00  0.00    +0.000 A 
ATOM      5  C   UNL     1       0.760  10.102  19.653  0.00  0.00    +0.000 A 
ATOM      6  C   UNL     1      -0.311  10.919  20.023  0.00  0.00    +0.000 A 
ATOM      7  C   UNL     1      -1.403  11.098  19.164  0.00  0.00    +0.000 A 
ATOM      8  C   UNL     1      -1.292  10.475  17.919  0.00  0.00    +0.000 A 
ATOM      9  N   UNL     1      -0.243   9.719  17.509  0.00  0.00    +0.000 NA
ATOM     10  H   UNL     1       1.658   8.441  16.971  0.00  0.00    +0.000 HD
ENDROOT
BRANCH   7  11
ATOM     11  C   UNL     1      -2.600  11.872  19.556  0.00  0.00    +0.000 A 
ATOM     12  C   UNL     1      -2.583  12.734  20.667  0.00  0.00    +0.000 A 
ATOM     13  C   UNL     1      -3.723  13.447  21.055  0.00  0.00    +0.000 A 
ATOM     14  C   UNL     1      -4.905  13.319  20.332  0.00  0.00    +0.000 A 
ATOM     15  C   UNL     1      -4.948  12.479  19.224  0.00  0.00    +0.000 A 
ATOM     16  C   UNL     1      -3.809  11.761  18.845  0.00  0.00    +0.000 A 
ENDBRANCH   7  11
BRANCH   2  17
ATOM     17  C   UNL     1       3.252   6.783  18.052  0.00  0.00    +0.000 A 
ATOM     18  C   UNL     1       4.112   7.359  17.132  0.00  0.00    +0.000 A 
ATOM     19  N   UNL     1       5.036   6.680  16.429  0.00  0.00    +0.000 NA
ATOM     20  C   UNL     1       5.102   5.372  16.695  0.00  0.00    +0.000 A 
ATOM     21  N   UNL     1       4.319   4.709  17.558  0.00  0.00    +0.000 NA
ATOM     22  C   UNL     1       3.378   5.414  18.251  0.00  0.00    +0.000 A 
BRANCH  22  23
ATOM     23  C   UNL     1       2.546   4.559  19.141  0.00  0.00    +0.000 A 
ATOM     24  C   UNL     1       2.908   4.382  20.494  0.00  0.00    +0.000 A 
ATOM     25  C   UNL     1       2.181   3.553  21.357  0.00  0.00    +0.000 A 
ATOM     26  C   UNL     1       1.064   2.878  20.885  0.00  0.00    +0.000 A 
ATOM     27  C   UNL     1       0.688   3.019  19.556  0.00  0.00    +0.000 A 
ATOM     28  C   UNL     1       1.426   3.839  18.692  0.00  0.00    +0.000 A 
ENDBRANCH  22  23
ENDBRANCH   2  17
TORSDOF 3
ENDMDL
MODEL 2
REMARK VINA RESULT:      -8.4      1.036      1.713
REMARK  Name = 
REMARK  3 active torsions:
REMARK  status: ('A' for Active; 'I' for Inactive)
REMARK    1  A    between atoms: C_2  and  C_16
REMARK    2  A    between atoms: C_7  and  C_8
REMARK    3  A    between atoms: C_21  and  C_22
REMARK                            x       y       z     vdW  Elec       q    Type
REMARK                         _______ _______ _______ _____ _____    ______ ____
ROOT
ATOM      1  O   UNL     1       2.566   6.715  19.659  0.00  0.00    +0.000 OA
ATOM      2  C   UNL     1       2.810   7.191  18.554  0.00  0.00    +0.000 C 
ATOM      3  N   UNL     1       2.355   8.392  18.061  0.00  0.00    +0.000 N 
ATOM      4  C   UNL     1       1.468   9.233  18.732  0.00  0.00    +0.000 A 
ATOM      5  C   UNL     1       1.495   9.423  20.103  0.00  0.00    +0.000 A 
ATOM      6  C   UNL     1       0.514  10.230  20.685  0.00  0.00    +0.000 A 
ATOM      7  C   UNL     1      -0.494  10.807  19.902  0.00  0.00    +0.000 A 
ATOM      8  C   UNL     1      -0.388  10.576  18.528  0.00  0.00    +0.000 A 
ATOM      9  N   UNL     1       0.581   9.842  17.926  0.00  0.00    +0.000 NA
ATOM     10  H   UNL     1       2.336   8.536  17.060  0.00  0.00    +0.000 HD
ENDROOT
BRANCH   7  11
ATOM     11  C   UNL     1      -1.605  11.584  20.489  0.00  0.00    +0.000 A 
ATOM     12  C   UNL     1      -2.628  12.122  19.687  0.00  0.00    +0.000 A 
ATOM     13  C   UNL     1      -3.665  12.881  20.239  0.00  0.00    +0.000 A 
ATOM     14  C   UNL     1      -3.708  13.112  21.610  0.00  0.00    +0.000 A 
ATOM     15  C   UNL     1      -2.713  12.586  22.428  0.00  0.00    +0.000 A 
ATOM     16  C   UNL     1      -1.672  11.835  21.872  0.00  0.00    +0.000 A 
ENDBRANCH   7  11
BRANCH   2  17
ATOM     17  C   UNL     1       3.643   6.428  17.613  0.00  0.00    +0.000 A 
ATOM     18  C   UNL     1       4.442   7.157  16.749  0.00  0.00    +0.000 A 
ATOM     19  N   UNL     1       5.294   6.612  15.860  0.00  0.00    +0.000 NA
ATOM     20  C   UNL     1       5.350   5.276  15.876  0.00  0.00    +0.000 A 
ATOM     21  N   UNL     1       4.620   4.472  16.663  0.00  0.00    +0.000 NA
ATOM     22  C   UNL     1       3.752   5.045  17.547  0.00  0.00    +0.000 A 
BRANCH  22  23
ATOM     23  C   UNL     1       2.971   4.047  18.327  0.00  0.00    +0.000 A 
ATOM     24  C   UNL     1       1.646   3.734  17.952  0.00  0.00    +0.000 A 
ATOM     25  C   UNL     1       0.859   2.835  18.682  0.00  0.00    +0.000 A 
ATOM     26  C   UNL     1       1.382   2.219  19.809  0.00  0.00    +0.000 A 
ATOM     27  C   UNL     1       2.677   2.513  20.214  0.00  0.00    +0.000 A 
ATOM     28  C   UNL     1       3.458   3.425  19.489  0.00  0.00    +0.000 A 
ENDBRANCH  22  23
ENDBRANCH   2  17
TORSDOF 3
ENDMDL
MODEL 3
REMARK VINA RESULT:      -8.4      3.082      9.032
REMARK  Name = 
REMARK  3 active torsions:
REMARK  status: ('A' for Active; 'I' for Inactive)
REMARK    1  A    between atoms: C_2  and  C_16
REMARK    2  A    between atoms: C_7  and  C_8
REMARK    3  A    between atoms: C_21  and  C_22
REMARK                            x       y       z     vdW  Elec       q    Type
REMARK                         _______ _______ _______ _____ _____    ______ ____
ROOT
ATOM      1  O   UNL     1       1.528   9.672  22.354  0.00  0.00    +0.000 OA
ATOM      2  C   UNL     1       0.749  10.165  21.544  0.00  0.00    +0.000 C 
ATOM      3  N   UNL     1       0.565   9.768  20.240  0.00  0.00    +0.000 N 
ATOM      4  C   UNL     1       1.306   8.770  19.609  0.00  0.00    +0.000 A 
ATOM      5  C   UNL     1       1.729   7.619  20.251  0.00  0.00    +0.000 A 
ATOM      6  C   UNL     1       2.531   6.717  19.548  0.00  0.00    +0.000 A 
ATOM      7  C   UNL     1       2.925   6.988  18.230  0.00  0.00    +0.000 A 
ATOM      8  C   UNL     1       2.399   8.158  17.679  0.00  0.00    +0.000 A 
ATOM      9  N   UNL     1       1.576   9.028  18.317  0.00  0.00    +0.000 NA
ATOM     10  H   UNL     1       0.162  10.421  19.580  0.00  0.00    +0.000 HD
ENDROOT
BRANCH   7  11
ATOM     11  C   UNL     1       3.851   6.110  17.485  0.00  0.00    +0.000 A 
ATOM     12  C   UNL     1       4.854   6.640  16.653  0.00  0.00    +0.000 A 
ATOM     13  C   UNL     1       5.713   5.810  15.927  0.00  0.00    +0.000 A 
ATOM     14  C   UNL     1       5.595   4.427  16.023  0.00  0.00    +0.000 A 
ATOM     15  C   UNL     1       4.616   3.875  16.844  0.00  0.00    +0.000 A 
ATOM     16  C   UNL     1       3.752   4.709  17.562  0.00  0.00    +0.000 A 
ENDBRANCH   7  11
BRANCH   2  17
ATOM     17  C   UNL     1      -0.072  11.316  21.947  0.00  0.00    +0.000 A 
ATOM     18  C   UNL     1      -1.096  11.072  22.847  0.00  0.00    +0.000 A 
ATOM     19  N   UNL     1      -1.907  12.022  23.349  0.00  0.00    +0.000 NA
ATOM     20  C   UNL     1      -1.643  13.267  22.939  0.00  0.00    +0.000 A 
ATOM     21  N   UNL     1      -0.684  13.617  22.070  0.00  0.00    +0.000 NA
ATOM     22  C   UNL     1       0.118  12.637  21.561  0.00  0.00    +0.000 A 
BRANCH  22  23
ATOM     23  C   UNL     1       1.110  13.147  20.577  0.00  0.00    +0.000 A 
ATOM     24  C   UNL     1       0.861  13.025  19.192  0.00  0.00    +0.000 A 
ATOM     25  C   UNL     1       1.784  13.451  18.229  0.00  0.00    +0.000 A 
ATOM     26  C   UNL     1       2.986  14.018  18.630  0.00  0.00    +0.000 A 
ATOM     27  C   UNL     1       3.268  14.141  19.983  0.00  0.00    +0.000 A 
ATOM     28  C   UNL     1       2.348  13.700  20.945  0.00  0.00    +0.000 A 
ENDBRANCH  22  23
ENDBRANCH   2  17
TORSDOF 3
ENDMDL
MODEL 4
REMARK VINA RESULT:      -8.4      2.671      4.375
REMARK  Name = 
REMARK  3 active torsions:
REMARK  status: ('A' for Active; 'I' for Inactive)
REMARK    1  A    between atoms: C_2  and  C_16
REMARK    2  A    between atoms: C_7  and  C_8
REMARK    3  A    between atoms: C_21  and  C_22
REMARK                            x       y       z     vdW  Elec       q    Type
REMARK                         _______ _______ _______ _____ _____    ______ ____
ROOT
ATOM      1  O   UNL     1       4.053   6.895  18.282  0.00  0.00    +0.000 OA
ATOM      2  C   UNL     1       3.168   6.431  18.995  0.00  0.00    +0.000 C 
ATOM      3  N   UNL     1       2.038   7.086  19.428  0.00  0.00    +0.000 N 
ATOM      4  C   UNL     1       1.760   8.428  19.175  0.00  0.00    +0.000 A 
ATOM      5  C   UNL     1       2.071   9.054  17.979  0.00  0.00    +0.000 A 
ATOM      6  C   UNL     1       1.817  10.422  17.855  0.00  0.00    +0.000 A 
ATOM      7  C   UNL     1       1.290  11.151  18.929  0.00  0.00    +0.000 A 
ATOM      8  C   UNL     1       0.978  10.400  20.065  0.00  0.00    +0.000 A 
ATOM      9  N   UNL     1       1.163   9.063  20.199  0.00  0.00    +0.000 NA
ATOM     10  H   UNL     1       1.558   6.743  20.250  0.00  0.00    +0.000 HD
ENDROOT
BRANCH   7  11
ATOM     11  C   UNL     1       1.098  12.615  18.874  0.00  0.00    +0.000 A 
ATOM     12  C   UNL     1       2.172  13.486  18.612  0.00  0.00    +0.000 A 
ATOM     13  C   UNL     1       1.996  14.873  18.586  0.00  0.00    +0.000 A 
ATOM     14  C   UNL     1       0.738  15.422  18.812  0.00  0.00    +0.000 A 
ATOM     15  C   UNL     1      -0.343  14.584  19.067  0.00  0.00    +0.000 A 
ATOM     16  C   UNL     1      -0.163  13.198  19.102  0.00  0.00    +0.000 A 
ENDBRANCH   7  11
BRANCH   2  17
ATOM     17  C   UNL     1       3.295   5.052  19.489  0.00  0.00    +0.000 A 
ATOM     18  C   UNL     1       2.513   4.701  20.577  0.00  0.00    +0.000 A 
ATOM     19  N   UNL     1       2.478   3.470  21.120  0.00  0.00    +0.000 NA
ATOM     20  C   UNL     1       3.246   2.560  20.512  0.00  0.00    +0.000 A 
ATOM     21  N   UNL     1       4.044   2.789  19.459  0.00  0.00    +0.000 NA
ATOM     22  C   UNL     1       4.077   4.048  18.932  0.00  0.00    +0.000 A 
BRANCH  22  23
ATOM     23  C   UNL     1       5.032   4.182  17.799  0.00  0.00    +0.000 A 
ATOM     24  C   UNL     1       6.387   4.495  18.049  0.00  0.00    +0.000 A 
ATOM     25  C   UNL     1       7.312   4.674  17.013  0.00  0.00    +0.000 A 
ATOM     26  C   UNL     1       6.904   4.539  15.694  0.00  0.00    +0.000 A 
ATOM     27  C   UNL     1       5.577   4.245  15.413  0.00  0.00    +0.000 A 
ATOM     28  C   UNL     1       4.650   4.081  16.451  0.00  0.00    +0.000 A 
ENDBRANCH  22  23
ENDBRANCH   2  17
TORSDOF 3
ENDMDL
MODEL 5
REMARK VINA RESULT:      -8.4      2.657      4.481
REMARK  Name = 
REMARK  3 active torsions:
REMARK  status: ('A' for Active; 'I' for Inactive)
REMARK    1  A    between atoms: C_2  and  C_16
REMARK    2  A    between atoms: C_7  and  C_8
REMARK    3  A    between atoms: C_21  and  C_22
REMARK                            x       y       z     vdW  Elec       q    Type
REMARK                         _______ _______ _______ _____ _____    ______ ____
ROOT
ATOM      1  O   UNL     1       3.860   6.813  18.261  0.00  0.00    +0.000 OA
ATOM      2  C   UNL     1       3.062   6.373  19.082  0.00  0.00    +0.000 C 
ATOM      3  N   UNL     1       1.990   7.044  19.623  0.00  0.00    +0.000 N 
ATOM      4  C   UNL     1       1.686   8.380  19.365  0.00  0.00    +0.000 A 
ATOM      5  C   UNL     1       1.860   8.971  18.125  0.00  0.00    +0.000 A 
ATOM      6  C   UNL     1       1.595  10.336  17.993  0.00  0.00    +0.000 A 
ATOM      7  C   UNL     1       1.195  11.097  19.099  0.00  0.00    +0.000 A 
ATOM      8  C   UNL     1       1.014  10.379  20.284  0.00  0.00    +0.000 A 
ATOM      9  N   UNL     1       1.211   9.045  20.433  0.00  0.00    +0.000 NA
ATOM     10  H   UNL     1       1.605   6.727  20.504  0.00  0.00    +0.000 HD
ENDROOT
BRANCH   7  11
ATOM     11  C   UNL     1       1.000  12.560  19.025  0.00  0.00    +0.000 A 
ATOM     12  C   UNL     1      -0.278  13.137  19.137  0.00  0.00    +0.000 A 
ATOM     13  C   UNL     1      -0.466  14.519  19.039  0.00  0.00    +0.000 A 
ATOM     14  C   UNL     1       0.624  15.359  18.836  0.00  0.00    +0.000 A 
ATOM     15  C   UNL     1       1.901  14.817  18.729  0.00  0.00    +0.000 A 
ATOM     16  C   UNL     1       2.084  13.433  18.818  0.00  0.00    +0.000 A 
ENDBRANCH   7  11
BRANCH   2  17
ATOM     17  C   UNL     1       3.243   5.007  19.597  0.00  0.00    +0.000 A 
ATOM     18  C   UNL     1       2.441   4.627  20.661  0.00  0.00    +0.000 A 
ATOM     19  N   UNL     1       2.450   3.401  21.216  0.00  0.00    +0.000 NA
ATOM     20  C   UNL     1       3.286   2.527  20.647  0.00  0.00    +0.000 A 
ATOM     21  N   UNL     1       4.109   2.787  19.621  0.00  0.00    +0.000 NA
ATOM     22  C   UNL     1       4.095   4.040  19.081  0.00  0.00    +0.000 A 
BRANCH  22  23
ATOM     23  C   UNL     1       5.083   4.213  17.981  0.00  0.00    +0.000 A 
ATOM     24  C   UNL     1       4.699   3.981  16.642  0.00  0.00    +0.000 A 
ATOM     25  C   UNL     1       5.604   4.088  15.579  0.00  0.00    +0.000 A 
ATOM     26  C   UNL     1       6.924   4.436  15.830  0.00  0.00    +0.000 A 
ATOM     27  C   UNL     1       7.338   4.658  17.136  0.00  0.00    +0.000 A 
ATOM     28  C   UNL     1       6.432   4.536  18.200  0.00  0.00    +0.000 A 
ENDBRANCH  22  23
ENDBRANCH   2  17
TORSDOF 3
ENDMDL
MODEL 6
REMARK VINA RESULT:      -8.3      0.952      1.107
REMARK  Name = 
REMARK  3 active torsions:
REMARK  status: ('A' for Active; 'I' for Inactive)
REMARK    1  A    between atoms: C_2  and  C_16
REMARK    2  A    between atoms: C_7  and  C_8
REMARK    3  A    between atoms: C_21  and  C_22
REMARK                            x       y       z     vdW  Elec       q    Type
REMARK                         _______ _______ _______ _____ _____    ______ ____
ROOT
ATOM      1  O   UNL     1       2.303   6.796  19.819  0.00  0.00    +0.000 OA
ATOM      2  C   UNL     1       2.608   7.303  18.744  0.00  0.00    +0.000 C 
ATOM      3  N   UNL     1       2.208   8.534  18.276  0.00  0.00    +0.000 N 
ATOM      4  C   UNL     1       1.316   9.375  18.938  0.00  0.00    +0.000 A 
ATOM      5  C   UNL     1       1.288   9.517  20.315  0.00  0.00    +0.000 A 
ATOM      6  C   UNL     1       0.304  10.330  20.883  0.00  0.00    +0.000 A 
ATOM      7  C   UNL     1      -0.653  10.963  20.078  0.00  0.00    +0.000 A 
ATOM      8  C   UNL     1      -0.492  10.778  18.703  0.00  0.00    +0.000 A 
ATOM      9  N   UNL     1       0.483  10.038  18.117  0.00  0.00    +0.000 NA
ATOM     10  H   UNL     1       2.237   8.713  17.280  0.00  0.00    +0.000 HD
ENDROOT
BRANCH   7  11
ATOM     11  C   UNL     1      -1.767  11.751  20.644  0.00  0.00    +0.000 A 
ATOM     12  C   UNL     1      -1.885  11.964  22.030  0.00  0.00    +0.000 A 
ATOM     13  C   UNL     1      -2.954  12.687  22.569  0.00  0.00    +0.000 A 
ATOM     14  C   UNL     1      -3.927  13.223  21.731  0.00  0.00    +0.000 A 
ATOM     15  C   UNL     1      -3.832  13.034  20.355  0.00  0.00    +0.000 A 
ATOM     16  C   UNL     1      -2.766  12.302  19.821  0.00  0.00    +0.000 A 
ENDBRANCH   7  11
BRANCH   2  17
ATOM     17  C   UNL     1       3.460   6.550  17.813  0.00  0.00    +0.000 A 
ATOM     18  C   UNL     1       4.284   7.288  16.979  0.00  0.00    +0.000 A 
ATOM     19  N   UNL     1       5.155   6.751  16.104  0.00  0.00    +0.000 NA
ATOM     20  C   UNL     1       5.205   5.415  16.101  0.00  0.00    +0.000 A 
ATOM     21  N   UNL     1       4.453   4.603  16.859  0.00  0.00    +0.000 NA
ATOM     22  C   UNL     1       3.565   5.167  17.729  0.00  0.00    +0.000 A 
BRANCH  22  23
ATOM     23  C   UNL     1       2.762   4.162  18.476  0.00  0.00    +0.000 A 
ATOM     24  C   UNL     1       3.292   3.552  19.635  0.00  0.00    +0.000 A 
ATOM     25  C   UNL     1       2.590   2.569  20.345  0.00  0.00    +0.000 A 
ATOM     26  C   UNL     1       1.332   2.173  19.913  0.00  0.00    +0.000 A 
ATOM     27  C   UNL     1       0.788   2.743  18.771  0.00  0.00    +0.000 A 
ATOM     28  C   UNL     1       1.498   3.716  18.054  0.00  0.00    +0.000 A 
ENDBRANCH  22  23
ENDBRANCH   2  17
TORSDOF 3
ENDMDL
MODEL 7
REMARK VINA RESULT:      -8.2      2.299      2.545
REMARK  Name = 
REMARK  3 active torsions:
REMARK  status: ('A' for Active; 'I' for Inactive)
REMARK    1  A    between atoms: C_2  and  C_16
REMARK    2  A    between atoms: C_7  and  C_8
REMARK    3  A    between atoms: C_21  and  C_22
REMARK                            x       y       z     vdW  Elec       q    Type
REMARK                         _______ _______ _______ _____ _____    ______ ____
ROOT
ATOM      1  O   UNL     1       3.120   8.392  17.137  0.00  0.00    +0.000 OA
ATOM      2  C   UNL     1       3.155   7.404  17.865  0.00  0.00    +0.000 C 
ATOM      3  N   UNL     1       2.470   7.233  19.046  0.00  0.00    +0.000 N 
ATOM      4  C   UNL     1       1.674   8.209  19.643  0.00  0.00    +0.000 A 
ATOM      5  C   UNL     1       0.880   9.085  18.921  0.00  0.00    +0.000 A 
ATOM      6  C   UNL     1       0.177  10.074  19.613  0.00  0.00    +0.000 A 
ATOM      7  C   UNL     1       0.299  10.198  21.003  0.00  0.00    +0.000 A 
ATOM      8  C   UNL     1       1.094   9.230  21.621  0.00  0.00    +0.000 A 
ATOM      9  N   UNL     1       1.747   8.225  20.985  0.00  0.00    +0.000 NA
ATOM     10  H   UNL     1       2.809   6.553  19.715  0.00  0.00    +0.000 HD
ENDROOT
BRANCH   7  11
ATOM     11  C   UNL     1      -0.349  11.290  21.760  0.00  0.00    +0.000 A 
ATOM     12  C   UNL     1       0.015  12.634  21.563  0.00  0.00    +0.000 A 
ATOM     13  C   UNL     1      -0.579  13.665  22.299  0.00  0.00    +0.000 A 
ATOM     14  C   UNL     1      -1.558  13.375  23.244  0.00  0.00    +0.000 A 
ATOM     15  C   UNL     1      -1.941  12.054  23.454  0.00  0.00    +0.000 A 
ATOM     16  C   UNL     1      -1.339  11.024  22.724  0.00  0.00    +0.000 A 
ENDBRANCH   7  11
BRANCH   2  17
ATOM     17  C   UNL     1       4.022   6.275  17.499  0.00  0.00    +0.000 A 
ATOM     18  C   UNL     1       5.094   6.551  16.667  0.00  0.00    +0.000 A 
ATOM     19  N   UNL     1       6.006   5.641  16.277  0.00  0.00    +0.000 NA
ATOM     20  C   UNL     1       5.831   4.414  16.777  0.00  0.00    +0.000 A 
ATOM     21  N   UNL     1       4.830   4.034  17.584  0.00  0.00    +0.000 NA
ATOM     22  C   UNL     1       3.907   4.969  17.956  0.00  0.00    +0.000 A 
BRANCH  22  23
ATOM     23  C   UNL     1       2.826   4.412  18.813  0.00  0.00    +0.000 A 
ATOM     24  C   UNL     1       2.977   4.387  20.217  0.00  0.00    +0.000 A 
ATOM     25  C   UNL     1       2.006   3.833  21.060  0.00  0.00    +0.000 A 
ATOM     26  C   UNL     1       0.849   3.292  20.517  0.00  0.00    +0.000 A 
ATOM     27  C   UNL     1       0.674   3.289  19.140  0.00  0.00    +0.000 A 
ATOM     28  C   UNL     1       1.655   3.831  18.298  0.00  0.00    +0.000 A 
ENDBRANCH  22  23
ENDBRANCH   2  17
TORSDOF 3
ENDMDL
MODEL 8
REMARK VINA RESULT:      -8.2      2.456      2.801
REMARK  Name = 
REMARK  3 active torsions:
REMARK  status: ('A' for Active; 'I' for Inactive)
REMARK    1  A    between atoms: C_2  and  C_16
REMARK    2  A    between atoms: C_7  and  C_8
REMARK    3  A    between atoms: C_21  and  C_22
REMARK                            x       y       z     vdW  Elec       q    Type
REMARK                         _______ _______ _______ _____ _____    ______ ____
ROOT
ATOM      1  O   UNL     1       3.837   8.188  16.942  0.00  0.00    +0.000 OA
ATOM      2  C   UNL     1       3.640   7.098  17.471  0.00  0.00    +0.000 C 
ATOM      3  N   UNL     1       2.754   6.832  18.490  0.00  0.00    +0.000 N 
ATOM      4  C   UNL     1       1.984   7.797  19.135  0.00  0.00    +0.000 A 
ATOM      5  C   UNL     1       1.424   8.882  18.482  0.00  0.00    +0.000 A 
ATOM      6  C   UNL     1       0.731   9.832  19.236  0.00  0.00    +0.000 A 
ATOM      7  C   UNL     1       0.633   9.706  20.628  0.00  0.00    +0.000 A 
ATOM      8  C   UNL     1       1.201   8.548  21.164  0.00  0.00    +0.000 A 
ATOM      9  N   UNL     1       1.834   7.581  20.454  0.00  0.00    +0.000 NA
ATOM     10  H   UNL     1       2.898   6.010  19.063  0.00  0.00    +0.000 HD
ENDROOT
BRANCH   7  11
ATOM     11  C   UNL     1      -0.005  10.737  21.473  0.00  0.00    +0.000 A 
ATOM     12  C   UNL     1      -0.801  10.389  22.579  0.00  0.00    +0.000 A 
ATOM     13  C   UNL     1      -1.427  11.364  23.362  0.00  0.00    +0.000 A 
ATOM     14  C   UNL     1      -1.263  12.713  23.062  0.00  0.00    +0.000 A 
ATOM     15  C   UNL     1      -0.474  13.086  21.978  0.00  0.00    +0.000 A 
ATOM     16  C   UNL     1       0.143  12.108  21.191  0.00  0.00    +0.000 A 
ENDBRANCH   7  11
BRANCH   2  17
ATOM     17  C   UNL     1       4.424   5.935  17.032  0.00  0.00    +0.000 A 
ATOM     18  C   UNL     1       5.484   6.180  16.174  0.00  0.00    +0.000 A 
ATOM     19  N   UNL     1       6.325   5.234  15.717  0.00  0.00    +0.000 NA
ATOM     20  C   UNL     1       6.091   4.000  16.175  0.00  0.00    +0.000 A 
ATOM     21  N   UNL     1       5.095   3.648  17.001  0.00  0.00    +0.000 NA
ATOM     22  C   UNL     1       4.244   4.620  17.441  0.00  0.00    +0.000 A 
BRANCH  22  23
ATOM     23  C   UNL     1       3.159   4.094  18.312  0.00  0.00    +0.000 A 
ATOM     24  C   UNL     1       3.383   3.922  19.696  0.00  0.00    +0.000 A 
ATOM     25  C   UNL     1       2.406   3.390  20.547  0.00  0.00    +0.000 A 
ATOM     26  C   UNL     1       1.172   3.019  20.033  0.00  0.00    +0.000 A 
ATOM     27  C   UNL     1       0.923   3.163  18.675  0.00  0.00    +0.000 A 
ATOM     28  C   UNL     1       1.908   3.682  17.823  0.00  0.00    +0.000 A 
ENDBRANCH  22  23
ENDBRANCH   2  17
TORSDOF 3
ENDMDL
MODEL 9
REMARK VINA RESULT:      -8.1      1.727      2.502
REMARK  Name = 
REMARK  3 active torsions:
REMARK  status: ('A' for Active; 'I' for Inactive)
REMARK    1  A    between atoms: C_2  and  C_16
REMARK    2  A    between atoms: C_7  and  C_8
REMARK    3  A    between atoms: C_21  and  C_22
REMARK                            x       y       z     vdW  Elec       q    Type
REMARK                         _______ _______ _______ _____ _____    ______ ____
ROOT
ATOM      1  O   UNL     1       3.360   8.406  17.032  0.00  0.00    +0.000 OA
ATOM      2  C   UNL     1       3.403   7.469  17.823  0.00  0.00    +0.000 C 
ATOM      3  N   UNL     1       2.619   7.306  18.942  0.00  0.00    +0.000 N 
ATOM      4  C   UNL     1       1.688   8.240  19.393  0.00  0.00    +0.000 A 
ATOM      5  C   UNL     1       0.902   8.998  18.542  0.00  0.00    +0.000 A 
ATOM      6  C   UNL     1       0.052   9.960  19.096  0.00  0.00    +0.000 A 
ATOM      7  C   UNL     1       0.022  10.174  20.480  0.00  0.00    +0.000 A 
ATOM      8  C   UNL     1       0.827   9.318  21.235  0.00  0.00    +0.000 A 
ATOM      9  N   UNL     1       1.623   8.340  20.733  0.00  0.00    +0.000 NA
ATOM     10  H   UNL     1       2.943   6.699  19.684  0.00  0.00    +0.000 HD
ENDROOT
BRANCH   7  11
ATOM     11  C   UNL     1      -0.787  11.246  21.097  0.00  0.00    +0.000 A 
ATOM     12  C   UNL     1      -1.548  12.133  20.315  0.00  0.00    +0.000 A 
ATOM     13  C   UNL     1      -2.292  13.164  20.897  0.00  0.00    +0.000 A 
ATOM     14  C   UNL     1      -2.300  13.326  22.279  0.00  0.00    +0.000 A 
ATOM     15  C   UNL     1      -1.562  12.458  23.078  0.00  0.00    +0.000 A 
ATOM     16  C   UNL     1      -0.811  11.433  22.492  0.00  0.00    +0.000 A 
ENDBRANCH   7  11
BRANCH   2  17
ATOM     17  C   UNL     1       4.394   6.402  17.619  0.00  0.00    +0.000 A 
ATOM     18  C   UNL     1       5.567   6.752  16.972  0.00  0.00    +0.000 A 
ATOM     19  N   UNL     1       6.590   5.906  16.748  0.00  0.00    +0.000 NA
ATOM     20  C   UNL     1       6.419   4.670  17.226  0.00  0.00    +0.000 A 
ATOM     21  N   UNL     1       5.326   4.222  17.861  0.00  0.00    +0.000 NA
ATOM     22  C   UNL     1       4.294   5.091  18.065  0.00  0.00    +0.000 A 
BRANCH  22  23
ATOM     23  C   UNL     1       3.126   4.461  18.738  0.00  0.00    +0.000 A 
ATOM     24  C   UNL     1       2.090   3.887  17.968  0.00  0.00    +0.000 A 
ATOM     25  C   UNL     1       0.952   3.323  18.556  0.00  0.00    +0.000 A 
ATOM     26  C   UNL     1       0.821   3.314  19.938  0.00  0.00    +0.000 A 
ATOM     27  C   UNL     1       1.815   3.881  20.724  0.00  0.00    +0.000 A 
ATOM     28  C   UNL     1       2.947   4.458  20.132  0.00  0.00    +0.000 A 
ENDBRANCH  22  23
ENDBRANCH   2  17
TORSDOF 3
ENDMDL
