MODEL 1
REMARK VINA RESULT:      -7.7      0.000      0.000
REMARK  Name = 
REMARK  5 active torsions:
REMARK  status: ('A' for Active; 'I' for Inactive)
REMARK    1  A    between atoms: C_1  and  O_2
REMARK    2  A    between atoms: O_2  and  C_3
REMARK    3  A    between atoms: C_6  and  C_7
REMARK    4  A    between atoms: C_7  and  C_8
REMARK    5  A    between atoms: C_14  and  N_15
REMARK                            x       y       z     vdW  Elec       q    Type
REMARK                         _______ _______ _______ _____ _____    ______ ____
ROOT
ATOM      1  C   UNL     1       1.611   5.031  20.090  0.00  0.00    +0.000 C 
ATOM      2  O   UNL     1       0.736   4.358  20.634  0.00  0.00    +0.000 OA
ATOM      3  N   UNL     1       2.072   4.723  18.814  0.00  0.00    +0.000 N 
ATOM      4  C   UNL     1       1.403   3.659  18.061  0.00  0.00    +0.000 C 
ATOM      5  C   UNL     1       2.234   2.382  18.099  0.00  0.00    +0.000 C 
ATOM      6  C   UNL     1       3.635   2.649  17.553  0.00  0.00    +0.000 C 
ATOM      7  C   UNL     1       4.316   3.819  18.286  0.00  0.00    +0.000 C 
ATOM      8  C   UNL     1       3.418   5.067  18.345  0.00  0.00    +0.000 C 
ENDROOT
BRANCH   7   9
ATOM      9  N   UNL     1       5.599   4.146  17.679  0.00  0.00    +0.000 N 
ATOM     10  C   UNL     1       5.891   4.190  16.348  0.00  0.00    +0.000 A 
ATOM     11  C   UNL     1       7.219   4.531  16.261  0.00  0.00    +0.000 A 
ATOM     12  C   UNL     1       7.643   4.664  17.594  0.00  0.00    +0.000 A 
ATOM     13  N   UNL     1       6.659   4.427  18.464  0.00  0.00    +0.000 NA
ENDBRANCH   7   9
BRANCH   1  14
ATOM     14  C   UNL     1       2.167   6.280  20.774  0.00  0.00    +0.000 C 
BRANCH  14  18
ATOM     15  C   UNL     1       0.525  10.119  19.559  0.00  0.00    +0.000 A 
ATOM     16  C   UNL     1       0.248   9.597  20.830  0.00  0.00    +0.000 A 
ATOM     17  C   UNL     1       0.797   8.362  21.213  0.00  0.00    +0.000 A 
ATOM     18  C   UNL     1       1.611   7.617  20.337  0.00  0.00    +0.000 A 
ATOM     19  C   UNL     1       1.932   8.178  19.099  0.00  0.00    +0.000 A 
ATOM     20  C   UNL     1       1.395   9.413  18.736  0.00  0.00    +0.000 A 
ATOM     21  F   UNL     1       1.769   9.875  17.528  0.00  0.00    +0.000 F 
BRANCH  15  23
ATOM     22  C   UNL     1      -1.267  11.141  18.425  0.00  0.00    +0.000 C 
ATOM     23  O   UNL     1      -0.099  11.298  19.233  0.00  0.00    +0.000 OA
ENDBRANCH  15  23
ENDBRANCH  14  18
ENDBRANCH   1  14
TORSDOF 4
ENDMDL
MODEL 2
REMARK VINA RESULT:      -7.4      1.125      1.528
REMARK  Name = 
REMARK  5 active torsions:
REMARK  status: ('A' for Active; 'I' for Inactive)
REMARK    1  A    between atoms: C_1  and  O_2
REMARK    2  A    between atoms: O_2  and  C_3
REMARK    3  A    between atoms: C_6  and  C_7
REMARK    4  A    between atoms: C_7  and  C_8
REMARK    5  A    between atoms: C_14  and  N_15
REMARK                            x       y       z     vdW  Elec       q    Type
REMARK                         _______ _______ _______ _____ _____    ______ ____
ROOT
ATOM      1  C   UNL     1       1.932   5.387  19.891  0.00  0.00    +0.000 C 
ATOM      2  O   UNL     1       1.219   4.801  20.704  0.00  0.00    +0.000 OA
ATOM      3  N   UNL     1       2.144   4.875  18.613  0.00  0.00    +0.000 N 
ATOM      4  C   UNL     1       1.391   3.689  18.197  0.00  0.00    +0.000 C 
ATOM      5  C   UNL     1       2.276   2.451  18.269  0.00  0.00    +0.000 C 
ATOM      6  C   UNL     1       3.524   2.644  17.410  0.00  0.00    +0.000 C 
ATOM      7  C   UNL     1       4.279   3.931  17.787  0.00  0.00    +0.000 C 
ATOM      8  C   UNL     1       3.349   5.157  17.828  0.00  0.00    +0.000 C 
ENDROOT
BRANCH   7   9
ATOM      9  N   UNL     1       5.396   4.172  16.884  0.00  0.00    +0.000 N 
ATOM     10  C   UNL     1       5.382   4.097  15.523  0.00  0.00    +0.000 A 
ATOM     11  C   UNL     1       6.660   4.393  15.114  0.00  0.00    +0.000 A 
ATOM     12  C   UNL     1       7.372   4.627  16.303  0.00  0.00    +0.000 A 
ATOM     13  N   UNL     1       6.606   4.490  17.387  0.00  0.00    +0.000 NA
ENDBRANCH   7   9
BRANCH   1  14
ATOM     14  C   UNL     1       2.551   6.741  20.234  0.00  0.00    +0.000 C 
BRANCH  14  18
ATOM     15  C   UNL     1       0.362  10.310  19.054  0.00  0.00    +0.000 A 
ATOM     16  C   UNL     1       1.185   9.643  18.135  0.00  0.00    +0.000 A 
ATOM     17  C   UNL     1       1.875   8.483  18.527  0.00  0.00    +0.000 A 
ATOM     18  C   UNL     1       1.776   7.980  19.838  0.00  0.00    +0.000 A 
ATOM     19  C   UNL     1       0.903   8.615  20.725  0.00  0.00    +0.000 A 
ATOM     20  C   UNL     1       0.211   9.755  20.319  0.00  0.00    +0.000 A 
ATOM     21  F   UNL     1      -0.613  10.291  21.240  0.00  0.00    +0.000 F 
BRANCH  15  23
ATOM     22  C   UNL     1      -1.536  11.295  18.070  0.00  0.00    +0.000 C 
ATOM     23  O   UNL     1      -0.227  11.470  18.617  0.00  0.00    +0.000 OA
ENDBRANCH  15  23
ENDBRANCH  14  18
ENDBRANCH   1  14
TORSDOF 4
ENDMDL
MODEL 3
REMARK VINA RESULT:      -7.1      0.985      1.235
REMARK  Name = 
REMARK  5 active torsions:
REMARK  status: ('A' for Active; 'I' for Inactive)
REMARK    1  A    between atoms: C_1  and  O_2
REMARK    2  A    between atoms: O_2  and  C_3
REMARK    3  A    between atoms: C_6  and  C_7
REMARK    4  A    between atoms: C_7  and  C_8
REMARK    5  A    between atoms: C_14  and  N_15
REMARK                            x       y       z     vdW  Elec       q    Type
REMARK                         _______ _______ _______ _____ _____    ______ ____
ROOT
ATOM      1  C   UNL     1       1.893   5.285  19.935  0.00  0.00    +0.000 C 
ATOM      2  O   UNL     1       1.173   4.674  20.725  0.00  0.00    +0.000 OA
ATOM      3  N   UNL     1       2.117   4.812  18.646  0.00  0.00    +0.000 N 
ATOM      4  C   UNL     1       1.371   3.637  18.188  0.00  0.00    +0.000 C 
ATOM      5  C   UNL     1       2.258   2.398  18.231  0.00  0.00    +0.000 C 
ATOM      6  C   UNL     1       3.514   2.620  17.391  0.00  0.00    +0.000 C 
ATOM      7  C   UNL     1       4.262   3.896  17.813  0.00  0.00    +0.000 C 
ATOM      8  C   UNL     1       3.329   5.118  17.881  0.00  0.00    +0.000 C 
ENDROOT
BRANCH   7   9
ATOM      9  N   UNL     1       5.387   4.165  16.928  0.00  0.00    +0.000 N 
ATOM     10  C   UNL     1       6.616   4.636  17.282  0.00  0.00    +0.000 A 
ATOM     11  C   UNL     1       7.335   4.740  16.115  0.00  0.00    +0.000 A 
ATOM     12  C   UNL     1       6.449   4.313  15.111  0.00  0.00    +0.000 A 
ATOM     13  N   UNL     1       5.258   3.965  15.601  0.00  0.00    +0.000 NA
ENDBRANCH   7   9
BRANCH   1  14
ATOM     14  C   UNL     1       2.506   6.630  20.324  0.00  0.00    +0.000 C 
BRANCH  14  18
ATOM     15  C   UNL     1      -0.117  10.098  20.214  0.00  0.00    +0.000 A 
ATOM     16  C   UNL     1      -0.089   9.262  21.339  0.00  0.00    +0.000 A 
ATOM     17  C   UNL     1       0.774   8.153  21.366  0.00  0.00    +0.000 A 
ATOM     18  C   UNL     1       1.605   7.845  20.272  0.00  0.00    +0.000 A 
ATOM     19  C   UNL     1       1.616   8.722  19.184  0.00  0.00    +0.000 A 
ATOM     20  C   UNL     1       0.767   9.829  19.176  0.00  0.00    +0.000 A 
ATOM     21  F   UNL     1       0.855  10.619  18.090  0.00  0.00    +0.000 F 
BRANCH  15  23
ATOM     22  C   UNL     1      -0.490  12.385  20.629  0.00  0.00    +0.000 C 
ATOM     23  O   UNL     1      -1.032  11.122  20.236  0.00  0.00    +0.000 OA
ENDBRANCH  15  23
ENDBRANCH  14  18
ENDBRANCH   1  14
TORSDOF 4
ENDMDL
MODEL 4
REMARK VINA RESULT:      -7.1      1.267      1.571
REMARK  Name = 
REMARK  5 active torsions:
REMARK  status: ('A' for Active; 'I' for Inactive)
REMARK    1  A    between atoms: C_1  and  O_2
REMARK    2  A    between atoms: O_2  and  C_3
REMARK    3  A    between atoms: C_6  and  C_7
REMARK    4  A    between atoms: C_7  and  C_8
REMARK    5  A    between atoms: C_14  and  N_15
REMARK                            x       y       z     vdW  Elec       q    Type
REMARK                         _______ _______ _______ _____ _____    ______ ____
ROOT
ATOM      1  C   UNL     1       1.918   5.756  19.842  0.00  0.00    +0.000 C 
ATOM      2  O   UNL     1       1.253   5.262  20.752  0.00  0.00    +0.000 OA
ATOM      3  N   UNL     1       2.113   5.081  18.640  0.00  0.00    +0.000 N 
ATOM      4  C   UNL     1       1.399   3.822  18.416  0.00  0.00    +0.000 C 
ATOM      5  C   UNL     1       2.336   2.639  18.626  0.00  0.00    +0.000 C 
ATOM      6  C   UNL     1       3.549   2.758  17.707  0.00  0.00    +0.000 C 
ATOM      7  C   UNL     1       4.261   4.112  17.879  0.00  0.00    +0.000 C 
ATOM      8  C   UNL     1       3.282   5.296  17.783  0.00  0.00    +0.000 C 
ENDROOT
BRANCH   7   9
ATOM      9  N   UNL     1       5.341   4.267  16.913  0.00  0.00    +0.000 N 
ATOM     10  C   UNL     1       5.249   4.172  15.557  0.00  0.00    +0.000 A 
ATOM     11  C   UNL     1       6.519   4.380  15.075  0.00  0.00    +0.000 A 
ATOM     12  C   UNL     1       7.307   4.586  16.220  0.00  0.00    +0.000 A 
ATOM     13  N   UNL     1       6.593   4.515  17.345  0.00  0.00    +0.000 NA
ENDBRANCH   7   9
BRANCH   1  14
ATOM     14  C   UNL     1       2.489   7.167  19.975  0.00  0.00    +0.000 C 
BRANCH  14  18
ATOM     15  C   UNL     1      -0.285  10.315  21.121  0.00  0.00    +0.000 A 
ATOM     16  C   UNL     1       0.231   9.436  22.083  0.00  0.00    +0.000 A 
ATOM     17  C   UNL     1       1.138   8.433  21.700  0.00  0.00    +0.000 A 
ATOM     18  C   UNL     1       1.529   8.272  20.357  0.00  0.00    +0.000 A 
ATOM     19  C   UNL     1       1.059   9.194  19.418  0.00  0.00    +0.000 A 
ATOM     20  C   UNL     1       0.173  10.196  19.814  0.00  0.00    +0.000 A 
ATOM     21  F   UNL     1      -0.217  11.041  18.841  0.00  0.00    +0.000 F 
BRANCH  15  23
ATOM     22  C   UNL     1      -1.299  11.338  22.982  0.00  0.00    +0.000 C 
ATOM     23  O   UNL     1      -1.213  11.226  21.560  0.00  0.00    +0.000 OA
ENDBRANCH  15  23
ENDBRANCH  14  18
ENDBRANCH   1  14
TORSDOF 4
ENDMDL
MODEL 5
REMARK VINA RESULT:      -7.0      1.738      2.103
REMARK  Name = 
REMARK  5 active torsions:
REMARK  status: ('A' for Active; 'I' for Inactive)
REMARK    1  A    between atoms: C_1  and  O_2
REMARK    2  A    between atoms: O_2  and  C_3
REMARK    3  A    between atoms: C_6  and  C_7
REMARK    4  A    between atoms: C_7  and  C_8
REMARK    5  A    between atoms: C_14  and  N_15
REMARK                            x       y       z     vdW  Elec       q    Type
REMARK                         _______ _______ _______ _____ _____    ______ ____
ROOT
ATOM      1  C   UNL     1       1.891   5.793  19.826  0.00  0.00    +0.000 C 
ATOM      2  O   UNL     1       1.241   5.325  20.760  0.00  0.00    +0.000 OA
ATOM      3  N   UNL     1       2.118   5.060  18.664  0.00  0.00    +0.000 N 
ATOM      4  C   UNL     1       1.452   3.764  18.509  0.00  0.00    +0.000 C 
ATOM      5  C   UNL     1       2.432   2.631  18.787  0.00  0.00    +0.000 C 
ATOM      6  C   UNL     1       3.645   2.745  17.866  0.00  0.00    +0.000 C 
ATOM      7  C   UNL     1       4.304   4.132  17.964  0.00  0.00    +0.000 C 
ATOM      8  C   UNL     1       3.283   5.271  17.800  0.00  0.00    +0.000 C 
ENDROOT
BRANCH   7   9
ATOM      9  N   UNL     1       5.382   4.274  16.995  0.00  0.00    +0.000 N 
ATOM     10  C   UNL     1       5.276   4.233  15.637  0.00  0.00    +0.000 A 
ATOM     11  C   UNL     1       6.550   4.401  15.151  0.00  0.00    +0.000 A 
ATOM     12  C   UNL     1       7.356   4.529  16.295  0.00  0.00    +0.000 A 
ATOM     13  N   UNL     1       6.648   4.448  17.424  0.00  0.00    +0.000 NA
ENDBRANCH   7   9
BRANCH   1  14
ATOM     14  C   UNL     1       2.409   7.229  19.883  0.00  0.00    +0.000 C 
BRANCH  14  18
ATOM     15  C   UNL     1      -0.328  10.321  21.247  0.00  0.00    +0.000 A 
ATOM     16  C   UNL     1      -0.027  10.188  19.885  0.00  0.00    +0.000 A 
ATOM     17  C   UNL     1       0.848   9.175  19.457  0.00  0.00    +0.000 A 
ATOM     18  C   UNL     1       1.453   8.294  20.374  0.00  0.00    +0.000 A 
ATOM     19  C   UNL     1       1.095   8.395  21.721  0.00  0.00    +0.000 A 
ATOM     20  C   UNL     1       0.211   9.394  22.131  0.00  0.00    +0.000 A 
ATOM     21  F   UNL     1      -0.080   9.406  23.445  0.00  0.00    +0.000 F 
BRANCH  15  23
ATOM     22  C   UNL     1      -0.435  12.552  21.992  0.00  0.00    +0.000 C 
ATOM     23  O   UNL     1      -1.139  11.373  21.594  0.00  0.00    +0.000 OA
ENDBRANCH  15  23
ENDBRANCH  14  18
ENDBRANCH   1  14
TORSDOF 4
ENDMDL
MODEL 6
REMARK VINA RESULT:      -7.0      3.350      6.232
REMARK  Name = 
REMARK  5 active torsions:
REMARK  status: ('A' for Active; 'I' for Inactive)
REMARK    1  A    between atoms: C_1  and  O_2
REMARK    2  A    between atoms: O_2  and  C_3
REMARK    3  A    between atoms: C_6  and  C_7
REMARK    4  A    between atoms: C_7  and  C_8
REMARK    5  A    between atoms: C_14  and  N_15
REMARK                            x       y       z     vdW  Elec       q    Type
REMARK                         _______ _______ _______ _____ _____    ______ ____
ROOT
ATOM      1  C   UNL     1       4.038   3.197  17.970  0.00  0.00    +0.000 C 
ATOM      2  O   UNL     1       3.790   2.009  17.769  0.00  0.00    +0.000 OA
ATOM      3  N   UNL     1       3.759   3.798  19.194  0.00  0.00    +0.000 N 
ATOM      4  C   UNL     1       3.286   2.959  20.298  0.00  0.00    +0.000 C 
ATOM      5  C   UNL     1       1.781   3.116  20.473  0.00  0.00    +0.000 C 
ATOM      6  C   UNL     1       1.427   4.583  20.702  0.00  0.00    +0.000 C 
ATOM      7  C   UNL     1       1.989   5.484  19.588  0.00  0.00    +0.000 C 
ATOM      8  C   UNL     1       3.486   5.231  19.338  0.00  0.00    +0.000 C 
ENDROOT
BRANCH   7   9
ATOM      9  N   UNL     1       1.753   6.892  19.878  0.00  0.00    +0.000 N 
ATOM     10  C   UNL     1       1.960   7.948  19.041  0.00  0.00    +0.000 A 
ATOM     11  C   UNL     1       1.610   9.070  19.753  0.00  0.00    +0.000 A 
ATOM     12  C   UNL     1       1.211   8.587  21.011  0.00  0.00    +0.000 A 
ATOM     13  N   UNL     1       1.300   7.258  21.093  0.00  0.00    +0.000 NA
ENDBRANCH   7   9
BRANCH   1  14
ATOM     14  C   UNL     1       4.736   4.037  16.900  0.00  0.00    +0.000 C 
BRANCH  14  18
ATOM     15  C   UNL     1       7.655   6.988  18.199  0.00  0.00    +0.000 A 
ATOM     16  C   UNL     1       6.616   7.349  17.330  0.00  0.00    +0.000 A 
ATOM     17  C   UNL     1       5.672   6.388  16.931  0.00  0.00    +0.000 A 
ATOM     18  C   UNL     1       5.756   5.052  17.368  0.00  0.00    +0.000 A 
ATOM     19  C   UNL     1       6.757   4.719  18.284  0.00  0.00    +0.000 A 
ATOM     20  C   UNL     1       7.678   5.686  18.687  0.00  0.00    +0.000 A 
ATOM     21  F   UNL     1       8.599   5.273  19.578  0.00  0.00    +0.000 F 
BRANCH  15  23
ATOM     22  C   UNL     1       8.222   9.265  18.015  0.00  0.00    +0.000 C 
ATOM     23  O   UNL     1       8.574   7.964  18.493  0.00  0.00    +0.000 OA
ENDBRANCH  15  23
ENDBRANCH  14  18
ENDBRANCH   1  14
TORSDOF 4
ENDMDL
MODEL 7
REMARK VINA RESULT:      -6.9      3.279      6.270
REMARK  Name = 
REMARK  5 active torsions:
REMARK  status: ('A' for Active; 'I' for Inactive)
REMARK    1  A    between atoms: C_1  and  O_2
REMARK    2  A    between atoms: O_2  and  C_3
REMARK    3  A    between atoms: C_6  and  C_7
REMARK    4  A    between atoms: C_7  and  C_8
REMARK    5  A    between atoms: C_14  and  N_15
REMARK                            x       y       z     vdW  Elec       q    Type
REMARK                         _______ _______ _______ _____ _____    ______ ____
ROOT
ATOM      1  C   UNL     1       3.718   2.549  18.260  0.00  0.00    +0.000 C 
ATOM      2  O   UNL     1       3.517   1.336  18.295  0.00  0.00    +0.000 OA
ATOM      3  N   UNL     1       3.751   3.311  19.425  0.00  0.00    +0.000 N 
ATOM      4  C   UNL     1       3.676   2.623  20.717  0.00  0.00    +0.000 C 
ATOM      5  C   UNL     1       2.273   2.748  21.300  0.00  0.00    +0.000 C 
ATOM      6  C   UNL     1       1.886   4.219  21.432  0.00  0.00    +0.000 C 
ATOM      7  C   UNL     1       2.037   4.968  20.096  0.00  0.00    +0.000 C 
ATOM      8  C   UNL     1       3.418   4.738  19.457  0.00  0.00    +0.000 C 
ENDROOT
BRANCH   7   9
ATOM      9  N   UNL     1       1.785   6.393  20.259  0.00  0.00    +0.000 N 
ATOM     10  C   UNL     1       1.099   6.995  21.271  0.00  0.00    +0.000 A 
ATOM     11  C   UNL     1       1.112   8.341  20.992  0.00  0.00    +0.000 A 
ATOM     12  C   UNL     1       1.826   8.449  19.786  0.00  0.00    +0.000 A 
ATOM     13  N   UNL     1       2.235   7.262  19.332  0.00  0.00    +0.000 NA
ENDBRANCH   7   9
BRANCH   1  14
ATOM     14  C   UNL     1       4.018   3.249  16.935  0.00  0.00    +0.000 C 
BRANCH  14  18
ATOM     15  C   UNL     1       7.041   6.376  16.911  0.00  0.00    +0.000 A 
ATOM     16  C   UNL     1       5.810   6.571  16.269  0.00  0.00    +0.000 A 
ATOM     17  C   UNL     1       4.838   5.557  16.297  0.00  0.00    +0.000 A 
ATOM     18  C   UNL     1       5.078   4.329  16.944  0.00  0.00    +0.000 A 
ATOM     19  C   UNL     1       6.282   4.171  17.635  0.00  0.00    +0.000 A 
ATOM     20  C   UNL     1       7.232   5.192  17.613  0.00  0.00    +0.000 A 
ATOM     21  F   UNL     1       8.356   4.952  18.315  0.00  0.00    +0.000 F 
BRANCH  15  23
ATOM     22  C   UNL     1       7.869   8.397  17.790  0.00  0.00    +0.000 C 
ATOM     23  O   UNL     1       7.963   7.385  16.785  0.00  0.00    +0.000 OA
ENDBRANCH  15  23
ENDBRANCH  14  18
ENDBRANCH   1  14
TORSDOF 4
ENDMDL
MODEL 8
REMARK VINA RESULT:      -6.9      1.083      1.217
REMARK  Name = 
REMARK  5 active torsions:
REMARK  status: ('A' for Active; 'I' for Inactive)
REMARK    1  A    between atoms: C_1  and  O_2
REMARK    2  A    between atoms: O_2  and  C_3
REMARK    3  A    between atoms: C_6  and  C_7
REMARK    4  A    between atoms: C_7  and  C_8
REMARK    5  A    between atoms: C_14  and  N_15
REMARK                            x       y       z     vdW  Elec       q    Type
REMARK                         _______ _______ _______ _____ _____    ______ ____
ROOT
ATOM      1  C   UNL     1       1.503   5.303  20.154  0.00  0.00    +0.000 C 
ATOM      2  O   UNL     1       0.661   4.427  20.350  0.00  0.00    +0.000 OA
ATOM      3  N   UNL     1       2.291   5.306  19.007  0.00  0.00    +0.000 N 
ATOM      4  C   UNL     1       2.012   4.320  17.959  0.00  0.00    +0.000 C 
ATOM      5  C   UNL     1       3.027   3.185  18.018  0.00  0.00    +0.000 C 
ATOM      6  C   UNL     1       4.444   3.739  17.894  0.00  0.00    +0.000 C 
ATOM      7  C   UNL     1       4.721   4.832  18.942  0.00  0.00    +0.000 C 
ATOM      8  C   UNL     1       3.624   5.912  18.954  0.00  0.00    +0.000 C 
ENDROOT
BRANCH   7   9
ATOM      9  N   UNL     1       6.029   5.439  18.738  0.00  0.00    +0.000 N 
ATOM     10  C   UNL     1       6.446   6.145  17.649  0.00  0.00    +0.000 A 
ATOM     11  C   UNL     1       7.747   6.506  17.906  0.00  0.00    +0.000 A 
ATOM     12  C   UNL     1       8.025   5.966  19.173  0.00  0.00    +0.000 A 
ATOM     13  N   UNL     1       6.981   5.310  19.684  0.00  0.00    +0.000 NA
ENDBRANCH   7   9
BRANCH   1  14
ATOM     14  C   UNL     1       1.656   6.465  21.134  0.00  0.00    +0.000 C 
BRANCH  14  18
ATOM     15  C   UNL     1       0.035  10.322  19.946  0.00  0.00    +0.000 A 
ATOM     16  C   UNL     1      -0.374   9.716  21.142  0.00  0.00    +0.000 A 
ATOM     17  C   UNL     1       0.170   8.477  21.520  0.00  0.00    +0.000 A 
ATOM     18  C   UNL     1       1.109   7.810  20.709  0.00  0.00    +0.000 A 
ATOM     19  C   UNL     1       1.556   8.454  19.553  0.00  0.00    +0.000 A 
ATOM     20  C   UNL     1       1.022   9.692  19.197  0.00  0.00    +0.000 A 
ATOM     21  F   UNL     1       1.522  10.237  18.072  0.00  0.00    +0.000 F 
BRANCH  15  23
ATOM     22  C   UNL     1      -1.632  11.360  18.648  0.00  0.00    +0.000 C 
ATOM     23  O   UNL     1      -0.587  11.500  19.613  0.00  0.00    +0.000 OA
ENDBRANCH  15  23
ENDBRANCH  14  18
ENDBRANCH   1  14
TORSDOF 4
ENDMDL
MODEL 9
REMARK VINA RESULT:      -6.8      3.725      8.194
REMARK  Name = 
REMARK  5 active torsions:
REMARK  status: ('A' for Active; 'I' for Inactive)
REMARK    1  A    between atoms: C_1  and  O_2
REMARK    2  A    between atoms: O_2  and  C_3
REMARK    3  A    between atoms: C_6  and  C_7
REMARK    4  A    between atoms: C_7  and  C_8
REMARK    5  A    between atoms: C_14  and  N_15
REMARK                            x       y       z     vdW  Elec       q    Type
REMARK                         _______ _______ _______ _____ _____    ______ ____
ROOT
ATOM      1  C   UNL     1       1.558   8.685  19.291  0.00  0.00    +0.000 C 
ATOM      2  O   UNL     1       1.963   8.420  20.423  0.00  0.00    +0.000 OA
ATOM      3  N   UNL     1       0.932   9.897  19.013  0.00  0.00    +0.000 N 
ATOM      4  C   UNL     1       0.880  10.919  20.061  0.00  0.00    +0.000 C 
ATOM      5  C   UNL     1      -0.503  10.952  20.698  0.00  0.00    +0.000 C 
ATOM      6  C   UNL     1      -1.569  11.197  19.632  0.00  0.00    +0.000 C 
ATOM      7  C   UNL     1      -1.472  10.175  18.487  0.00  0.00    +0.000 C 
ATOM      8  C   UNL     1      -0.042  10.063  17.930  0.00  0.00    +0.000 C 
ENDROOT
BRANCH   7   9
ATOM      9  N   UNL     1      -2.410  10.489  17.417  0.00  0.00    +0.000 N 
ATOM     10  C   UNL     1      -2.389  10.013  16.140  0.00  0.00    +0.000 A 
ATOM     11  C   UNL     1      -3.457  10.595  15.500  0.00  0.00    +0.000 A 
ATOM     12  C   UNL     1      -4.057  11.410  16.475  0.00  0.00    +0.000 A 
ATOM     13  N   UNL     1      -3.419  11.352  17.646  0.00  0.00    +0.000 NA
ENDBRANCH   7   9
BRANCH   1  14
ATOM     14  C   UNL     1       1.800   7.718  18.133  0.00  0.00    +0.000 C 
BRANCH  14  18
ATOM     15  C   UNL     1       5.228   5.054  18.398  0.00  0.00    +0.000 A 
ATOM     16  C   UNL     1       5.279   6.203  17.596  0.00  0.00    +0.000 A 
ATOM     17  C   UNL     1       4.169   7.061  17.532  0.00  0.00    +0.000 A 
ATOM     18  C   UNL     1       2.986   6.784  18.243  0.00  0.00    +0.000 A 
ATOM     19  C   UNL     1       2.969   5.672  19.089  0.00  0.00    +0.000 A 
ATOM     20  C   UNL     1       4.084   4.837  19.157  0.00  0.00    +0.000 A 
ATOM     21  F   UNL     1       3.977   3.796  20.006  0.00  0.00    +0.000 F 
BRANCH  15  23
ATOM     22  C   UNL     1       7.507   4.852  17.846  0.00  0.00    +0.000 C 
ATOM     23  O   UNL     1       6.326   4.231  18.359  0.00  0.00    +0.000 OA
ENDBRANCH  15  23
ENDBRANCH  14  18
ENDBRANCH   1  14
TORSDOF 4
ENDMDL
