MODEL 1
REMARK VINA RESULT:      -8.3      0.000      0.000
REMARK  Name = 
REMARK  8 active torsions:
REMARK  status: ('A' for Active; 'I' for Inactive)
REMARK    1  A    between atoms: C_2  and  C_3
REMARK    2  A    between atoms: C_3  and  C_4
REMARK    3  A    between atoms: C_4  and  C_5
REMARK    4  A    between atoms: C_10  and  C_12
REMARK    5  A    between atoms: C_12  and  C_13
REMARK    6  A    between atoms: C_13  and  C_14
REMARK    7  A    between atoms: N_19  and  C_20
REMARK    8  A    between atoms: C_20  and  C_21
REMARK                            x       y       z     vdW  Elec       q    Type
REMARK                         _______ _______ _______ _____ _____    ______ ____
ROOT
ATOM      1  C   UNL     1       5.788   5.512  18.700  0.00  0.00    +0.000 C 
ENDROOT
BRANCH   1   2
ATOM      2  C   UNL     1       4.991   6.041  17.488  0.00  0.00    +0.000 C 
ATOM      3  C   UNL     1       3.930   7.081  17.896  0.00  0.00    +0.000 C 
ATOM      4  C   UNL     1       2.796   6.445  18.704  0.00  0.00    +0.000 C 
ATOM      5  C   UNL     1       2.186   5.265  17.950  0.00  0.00    +0.000 C 
ATOM      6  N   UNL     1       3.226   4.316  17.551  0.00  0.00    +0.000 N 
ATOM      7  C   UNL     1       3.339   3.000  17.977  0.00  0.00    +0.000 C 
ATOM      8  O   UNL     1       4.274   2.277  17.634  0.00  0.00    +0.000 OA
ATOM      9  C   UNL     1       4.299   4.886  16.737  0.00  0.00    +0.000 C 
BRANCH   7  10
ATOM     10  C   UNL     1       2.260   2.478  18.911  0.00  0.00    +0.000 C 
BRANCH  10  11
ATOM     11  C   UNL     1       2.677   2.586  20.376  0.00  0.00    +0.000 C 
BRANCH  11  12
ATOM     12  C   UNL     1       1.692   3.392  21.212  0.00  0.00    +0.000 C 
ATOM     13  F   UNL     1       1.155   2.687  22.228  0.00  0.00    +0.000 F 
ATOM     14  F   UNL     1       2.266   4.507  21.711  0.00  0.00    +0.000 F 
ATOM     15  F   UNL     1       0.661   3.797  20.433  0.00  0.00    +0.000 F 
ENDBRANCH  11  12
ENDBRANCH  10  11
ENDBRANCH   7  10
ENDBRANCH   1   2
BRANCH   1  16
ATOM     16  C   UNL     1       7.293   5.755  18.580  0.00  0.00    +0.000 C 
BRANCH  16  18
ATOM     17  O   UNL     1       7.639   6.707  16.382  0.00  0.00    +0.000 OA
ATOM     18  C   UNL     1       7.607   6.867  17.592  0.00  0.00    +0.000 C 
ATOM     19  N   UNL     1       7.884   8.068  18.212  0.00  0.00    +0.000 N 
ATOM     20  H   UNL     1       7.827   8.138  19.219  0.00  0.00    +0.000 HD
BRANCH  19  21
ATOM     21  C   UNL     1       8.233   9.245  17.447  0.00  0.00    +0.000 C 
BRANCH  21  22
ATOM     22  C   UNL     1       8.793  10.312  18.349  0.00  0.00    +0.000 A 
ATOM     23  C   UNL     1       9.189   9.993  19.659  0.00  0.00    +0.000 A 
ATOM     24  C   UNL     1       9.729  10.971  20.497  0.00  0.00    +0.000 A 
ATOM     25  C   UNL     1       9.884  12.270  20.025  0.00  0.00    +0.000 A 
ATOM     26  F   UNL     1      10.407  13.205  20.829  0.00  0.00    +0.000 F 
ATOM     27  C   UNL     1       9.506  12.595  18.728  0.00  0.00    +0.000 A 
ATOM     28  F   UNL     1       9.661  13.845  18.271  0.00  0.00    +0.000 F 
ATOM     29  C   UNL     1       8.963  11.626  17.887  0.00  0.00    +0.000 A 
ENDBRANCH  21  22
ENDBRANCH  19  21
ENDBRANCH  16  18
ENDBRANCH   1  16
TORSDOF 8
ENDMDL
MODEL 2
REMARK VINA RESULT:      -8.2      5.088      8.069
REMARK  Name = 
REMARK  8 active torsions:
REMARK  status: ('A' for Active; 'I' for Inactive)
REMARK    1  A    between atoms: C_2  and  C_3
REMARK    2  A    between atoms: C_3  and  C_4
REMARK    3  A    between atoms: C_4  and  C_5
REMARK    4  A    between atoms: C_10  and  C_12
REMARK    5  A    between atoms: C_12  and  C_13
REMARK    6  A    between atoms: C_13  and  C_14
REMARK    7  A    between atoms: N_19  and  C_20
REMARK    8  A    between atoms: C_20  and  C_21
REMARK                            x       y       z     vdW  Elec       q    Type
REMARK                         _______ _______ _______ _____ _____    ______ ____
ROOT
ATOM      1  C   UNL     1       1.903   5.679  20.845  0.00  0.00    +0.000 C 
ENDROOT
BRANCH   1   2
ATOM      2  C   UNL     1       1.166   4.459  20.252  0.00  0.00    +0.000 C 
ATOM      3  C   UNL     1       1.381   3.183  21.089  0.00  0.00    +0.000 C 
ATOM      4  C   UNL     1       2.827   2.689  21.006  0.00  0.00    +0.000 C 
ATOM      5  C   UNL     1       3.255   2.502  19.552  0.00  0.00    +0.000 C 
ATOM      6  N   UNL     1       3.007   3.721  18.781  0.00  0.00    +0.000 N 
ATOM      7  C   UNL     1       3.968   4.508  18.164  0.00  0.00    +0.000 C 
ATOM      8  O   UNL     1       3.684   5.550  17.574  0.00  0.00    +0.000 OA
ATOM      9  C   UNL     1       1.623   4.191  18.804  0.00  0.00    +0.000 C 
BRANCH   7  10
ATOM     10  C   UNL     1       5.412   4.041  18.257  0.00  0.00    +0.000 C 
BRANCH  10  11
ATOM     11  C   UNL     1       6.292   5.058  18.979  0.00  0.00    +0.000 C 
BRANCH  11  12
ATOM     12  C   UNL     1       7.551   5.409  18.199  0.00  0.00    +0.000 C 
ATOM     13  F   UNL     1       8.329   4.339  17.936  0.00  0.00    +0.000 F 
ATOM     14  F   UNL     1       7.255   6.028  17.037  0.00  0.00    +0.000 F 
ATOM     15  F   UNL     1       8.307   6.269  18.922  0.00  0.00    +0.000 F 
ENDBRANCH  11  12
ENDBRANCH  10  11
ENDBRANCH   7  10
ENDBRANCH   1   2
BRANCH   1  16
ATOM     16  C   UNL     1       1.965   6.867  19.883  0.00  0.00    +0.000 C 
BRANCH  16  18
ATOM     17  O   UNL     1       1.197   8.246  21.717  0.00  0.00    +0.000 OA
ATOM     18  C   UNL     1       1.435   8.139  20.524  0.00  0.00    +0.000 C 
ATOM     19  N   UNL     1       1.222   9.148  19.608  0.00  0.00    +0.000 N 
ATOM     20  H   UNL     1       1.453   9.000  18.634  0.00  0.00    +0.000 HD
BRANCH  19  21
ATOM     21  C   UNL     1       0.694  10.432  20.015  0.00  0.00    +0.000 C 
BRANCH  21  22
ATOM     22  C   UNL     1      -0.571  10.742  19.261  0.00  0.00    +0.000 A 
ATOM     23  C   UNL     1      -1.488  11.676  19.773  0.00  0.00    +0.000 A 
ATOM     24  C   UNL     1      -2.655  11.986  19.071  0.00  0.00    +0.000 A 
ATOM     25  C   UNL     1      -2.904  11.373  17.849  0.00  0.00    +0.000 A 
ATOM     26  F   UNL     1      -4.022  11.676  17.175  0.00  0.00    +0.000 F 
ATOM     27  C   UNL     1      -2.000  10.456  17.327  0.00  0.00    +0.000 A 
ATOM     28  F   UNL     1      -2.238   9.869  16.146  0.00  0.00    +0.000 F 
ATOM     29  C   UNL     1      -0.836  10.137  18.022  0.00  0.00    +0.000 A 
ENDBRANCH  21  22
ENDBRANCH  19  21
ENDBRANCH  16  18
ENDBRANCH   1  16
TORSDOF 8
ENDMDL
MODEL 3
REMARK VINA RESULT:      -8.0      5.215      8.294
REMARK  Name = 
REMARK  8 active torsions:
REMARK  status: ('A' for Active; 'I' for Inactive)
REMARK    1  A    between atoms: C_2  and  C_3
REMARK    2  A    between atoms: C_3  and  C_4
REMARK    3  A    between atoms: C_4  and  C_5
REMARK    4  A    between atoms: C_10  and  C_12
REMARK    5  A    between atoms: C_12  and  C_13
REMARK    6  A    between atoms: C_13  and  C_14
REMARK    7  A    between atoms: N_19  and  C_20
REMARK    8  A    between atoms: C_20  and  C_21
REMARK                            x       y       z     vdW  Elec       q    Type
REMARK                         _______ _______ _______ _____ _____    ______ ____
ROOT
ATOM      1  C   UNL     1       2.568   6.528  17.824  0.00  0.00    +0.000 C 
ENDROOT
BRANCH   1   2
ATOM      2  C   UNL     1       2.076   5.086  18.074  0.00  0.00    +0.000 C 
ATOM      3  C   UNL     1       2.088   4.717  19.570  0.00  0.00    +0.000 C 
ATOM      4  C   UNL     1       3.514   4.611  20.115  0.00  0.00    +0.000 C 
ATOM      5  C   UNL     1       4.347   3.644  19.277  0.00  0.00    +0.000 C 
ATOM      6  N   UNL     1       4.286   4.007  17.860  0.00  0.00    +0.000 N 
ATOM      7  C   UNL     1       5.356   4.410  17.073  0.00  0.00    +0.000 C 
ATOM      8  O   UNL     1       5.216   4.748  15.898  0.00  0.00    +0.000 OA
ATOM      9  C   UNL     1       2.938   4.069  17.299  0.00  0.00    +0.000 C 
BRANCH   7  10
ATOM     10  C   UNL     1       6.728   4.435  17.727  0.00  0.00    +0.000 C 
BRANCH  10  11
ATOM     11  C   UNL     1       6.937   5.700  18.556  0.00  0.00    +0.000 C 
BRANCH  11  12
ATOM     12  C   UNL     1       7.355   6.897  17.713  0.00  0.00    +0.000 C 
ATOM     13  F   UNL     1       6.332   7.725  17.420  0.00  0.00    +0.000 F 
ATOM     14  F   UNL     1       8.332   7.607  18.315  0.00  0.00    +0.000 F 
ATOM     15  F   UNL     1       7.855   6.465  16.530  0.00  0.00    +0.000 F 
ENDBRANCH  11  12
ENDBRANCH  10  11
ENDBRANCH   7  10
ENDBRANCH   1   2
BRANCH   1  16
ATOM     16  C   UNL     1       2.139   7.506  18.920  0.00  0.00    +0.000 C 
BRANCH  16  18
ATOM     17  O   UNL     1       2.271   9.322  17.327  0.00  0.00    +0.000 OA
ATOM     18  C   UNL     1       1.785   8.869  18.352  0.00  0.00    +0.000 C 
ATOM     19  N   UNL     1       0.881   9.555  19.137  0.00  0.00    +0.000 N 
ATOM     20  H   UNL     1       0.505   9.118  19.968  0.00  0.00    +0.000 HD
BRANCH  19  21
ATOM     21  C   UNL     1       0.435  10.884  18.781  0.00  0.00    +0.000 C 
BRANCH  21  22
ATOM     22  C   UNL     1      -1.019  10.864  18.392  0.00  0.00    +0.000 A 
ATOM     23  C   UNL     1      -1.476   9.963  17.415  0.00  0.00    +0.000 A 
ATOM     24  C   UNL     1      -2.827   9.923  17.061  0.00  0.00    +0.000 A 
ATOM     25  C   UNL     1      -3.727  10.775  17.691  0.00  0.00    +0.000 A 
ATOM     26  F   UNL     1      -5.024  10.730  17.354  0.00  0.00    +0.000 F 
ATOM     27  C   UNL     1      -3.289  11.662  18.666  0.00  0.00    +0.000 A 
ATOM     28  F   UNL     1      -4.158  12.479  19.277  0.00  0.00    +0.000 F 
ATOM     29  C   UNL     1      -1.943  11.713  19.022  0.00  0.00    +0.000 A 
ENDBRANCH  21  22
ENDBRANCH  19  21
ENDBRANCH  16  18
ENDBRANCH   1  16
TORSDOF 8
ENDMDL
MODEL 4
REMARK VINA RESULT:      -7.9      5.043      8.221
REMARK  Name = 
REMARK  8 active torsions:
REMARK  status: ('A' for Active; 'I' for Inactive)
REMARK    1  A    between atoms: C_2  and  C_3
REMARK    2  A    between atoms: C_3  and  C_4
REMARK    3  A    between atoms: C_4  and  C_5
REMARK    4  A    between atoms: C_10  and  C_12
REMARK    5  A    between atoms: C_12  and  C_13
REMARK    6  A    between atoms: C_13  and  C_14
REMARK    7  A    between atoms: N_19  and  C_20
REMARK    8  A    between atoms: C_20  and  C_21
REMARK                            x       y       z     vdW  Elec       q    Type
REMARK                         _______ _______ _______ _____ _____    ______ ____
ROOT
ATOM      1  C   UNL     1       2.513   6.917  19.094  0.00  0.00    +0.000 C 
ENDROOT
BRANCH   1   2
ATOM      2  C   UNL     1       1.854   5.531  18.925  0.00  0.00    +0.000 C 
ATOM      3  C   UNL     1       1.937   4.685  20.210  0.00  0.00    +0.000 C 
ATOM      4  C   UNL     1       3.375   4.261  20.517  0.00  0.00    +0.000 C 
ATOM      5  C   UNL     1       4.001   3.550  19.319  0.00  0.00    +0.000 C 
ATOM      6  N   UNL     1       3.875   4.369  18.112  0.00  0.00    +0.000 N 
ATOM      7  C   UNL     1       4.922   4.901  17.373  0.00  0.00    +0.000 C 
ATOM      8  O   UNL     1       4.735   5.623  16.395  0.00  0.00    +0.000 OA
ATOM      9  C   UNL     1       2.507   4.749  17.767  0.00  0.00    +0.000 C 
BRANCH   7  10
ATOM     10  C   UNL     1       6.333   4.569  17.831  0.00  0.00    +0.000 C 
BRANCH  10  11
ATOM     11  C   UNL     1       6.933   5.690  18.677  0.00  0.00    +0.000 C 
BRANCH  11  12
ATOM     12  C   UNL     1       7.410   6.870  17.843  0.00  0.00    +0.000 C 
ATOM     13  F   UNL     1       7.821   6.517  16.608  0.00  0.00    +0.000 F 
ATOM     14  F   UNL     1       6.451   7.813  17.729  0.00  0.00    +0.000 F 
ATOM     15  F   UNL     1       8.468   7.457  18.451  0.00  0.00    +0.000 F 
ENDBRANCH  11  12
ENDBRANCH  10  11
ENDBRANCH   7  10
ENDBRANCH   1   2
BRANCH   1  16
ATOM     16  C   UNL     1       2.506   7.745  17.808  0.00  0.00    +0.000 C 
BRANCH  16  18
ATOM     17  O   UNL     1       2.360  10.135  17.464  0.00  0.00    +0.000 OA
ATOM     18  C   UNL     1       1.948   9.139  18.038  0.00  0.00    +0.000 C 
ATOM     19  N   UNL     1       0.948   9.162  18.989  0.00  0.00    +0.000 N 
ATOM     20  H   UNL     1       0.643   8.299  19.418  0.00  0.00    +0.000 HD
BRANCH  19  21
ATOM     21  C   UNL     1       0.305  10.400  19.372  0.00  0.00    +0.000 C 
BRANCH  21  22
ATOM     22  C   UNL     1      -0.998  10.564  18.636  0.00  0.00    +0.000 A 
ATOM     23  C   UNL     1      -1.981  11.441  19.127  0.00  0.00    +0.000 A 
ATOM     24  C   UNL     1      -3.185  11.615  18.440  0.00  0.00    +0.000 A 
ATOM     25  C   UNL     1      -3.406  10.922  17.256  0.00  0.00    +0.000 A 
ATOM     26  F   UNL     1      -4.560  11.095  16.596  0.00  0.00    +0.000 F 
ATOM     27  C   UNL     1      -2.437  10.061  16.755  0.00  0.00    +0.000 A 
ATOM     28  F   UNL     1      -2.649   9.398  15.610  0.00  0.00    +0.000 F 
ATOM     29  C   UNL     1      -1.236   9.877  17.435  0.00  0.00    +0.000 A 
ENDBRANCH  21  22
ENDBRANCH  19  21
ENDBRANCH  16  18
ENDBRANCH   1  16
TORSDOF 8
ENDMDL
MODEL 5
REMARK VINA RESULT:      -7.9      5.272      8.150
REMARK  Name = 
REMARK  8 active torsions:
REMARK  status: ('A' for Active; 'I' for Inactive)
REMARK    1  A    between atoms: C_2  and  C_3
REMARK    2  A    between atoms: C_3  and  C_4
REMARK    3  A    between atoms: C_4  and  C_5
REMARK    4  A    between atoms: C_10  and  C_12
REMARK    5  A    between atoms: C_12  and  C_13
REMARK    6  A    between atoms: C_13  and  C_14
REMARK    7  A    between atoms: N_19  and  C_20
REMARK    8  A    between atoms: C_20  and  C_21
REMARK                            x       y       z     vdW  Elec       q    Type
REMARK                         _______ _______ _______ _____ _____    ______ ____
ROOT
ATOM      1  C   UNL     1       1.768   5.724  20.878  0.00  0.00    +0.000 C 
ENDROOT
BRANCH   1   2
ATOM      2  C   UNL     1       1.174   4.460  20.219  0.00  0.00    +0.000 C 
ATOM      3  C   UNL     1       1.356   3.205  21.096  0.00  0.00    +0.000 C 
ATOM      4  C   UNL     1       2.826   2.790  21.191  0.00  0.00    +0.000 C 
ATOM      5  C   UNL     1       3.433   2.615  19.800  0.00  0.00    +0.000 C 
ATOM      6  N   UNL     1       3.213   3.813  18.988  0.00  0.00    +0.000 N 
ATOM      7  C   UNL     1       4.198   4.646  18.477  0.00  0.00    +0.000 C 
ATOM      8  O   UNL     1       3.930   5.665  17.842  0.00  0.00    +0.000 OA
ATOM      9  C   UNL     1       1.813   4.206  18.839  0.00  0.00    +0.000 C 
BRANCH   7  10
ATOM     10  C   UNL     1       5.642   4.259  18.746  0.00  0.00    +0.000 C 
BRANCH  10  11
ATOM     11  C   UNL     1       6.431   5.411  19.365  0.00  0.00    +0.000 C 
BRANCH  11  12
ATOM     12  C   UNL     1       7.824   5.560  18.770  0.00  0.00    +0.000 C 
ATOM     13  F   UNL     1       8.806   5.165  19.606  0.00  0.00    +0.000 F 
ATOM     14  F   UNL     1       7.940   4.879  17.610  0.00  0.00    +0.000 F 
ATOM     15  F   UNL     1       8.058   6.864  18.485  0.00  0.00    +0.000 F 
ENDBRANCH  11  12
ENDBRANCH  10  11
ENDBRANCH   7  10
ENDBRANCH   1   2
BRANCH   1  16
ATOM     16  C   UNL     1       1.835   6.920  19.926  0.00  0.00    +0.000 C 
BRANCH  16  18
ATOM     17  O   UNL     1       1.123   8.290  21.789  0.00  0.00    +0.000 OA
ATOM     18  C   UNL     1       1.356   8.198  20.593  0.00  0.00    +0.000 C 
ATOM     19  N   UNL     1       1.181   9.233  19.698  0.00  0.00    +0.000 N 
ATOM     20  H   UNL     1       1.405   9.096  18.722  0.00  0.00    +0.000 HD
BRANCH  19  21
ATOM     21  C   UNL     1       0.704  10.528  20.132  0.00  0.00    +0.000 C 
BRANCH  21  22
ATOM     22  C   UNL     1      -0.580  10.878  19.429  0.00  0.00    +0.000 A 
ATOM     23  C   UNL     1      -0.917  10.248  18.219  0.00  0.00    +0.000 A 
ATOM     24  C   UNL     1      -2.116  10.551  17.569  0.00  0.00    +0.000 A 
ATOM     25  C   UNL     1      -2.987  11.476  18.132  0.00  0.00    +0.000 A 
ATOM     26  F   UNL     1      -4.139  11.761  17.510  0.00  0.00    +0.000 F 
ATOM     27  C   UNL     1      -2.670  12.097  19.334  0.00  0.00    +0.000 A 
ATOM     28  F   UNL     1      -3.513  12.985  19.880  0.00  0.00    +0.000 F 
ATOM     29  C   UNL     1      -1.475  11.805  19.987  0.00  0.00    +0.000 A 
ENDBRANCH  21  22
ENDBRANCH  19  21
ENDBRANCH  16  18
ENDBRANCH   1  16
TORSDOF 8
ENDMDL
MODEL 6
REMARK VINA RESULT:      -7.9      5.306      7.504
REMARK  Name = 
REMARK  8 active torsions:
REMARK  status: ('A' for Active; 'I' for Inactive)
REMARK    1  A    between atoms: C_2  and  C_3
REMARK    2  A    between atoms: C_3  and  C_4
REMARK    3  A    between atoms: C_4  and  C_5
REMARK    4  A    between atoms: C_10  and  C_12
REMARK    5  A    between atoms: C_12  and  C_13
REMARK    6  A    between atoms: C_13  and  C_14
REMARK    7  A    between atoms: N_19  and  C_20
REMARK    8  A    between atoms: C_20  and  C_21
REMARK                            x       y       z     vdW  Elec       q    Type
REMARK                         _______ _______ _______ _____ _____    ______ ____
ROOT
ATOM      1  C   UNL     1       3.304   6.473  18.450  0.00  0.00    +0.000 C 
ENDROOT
BRANCH   1   2
ATOM      2  C   UNL     1       4.805   6.397  18.094  0.00  0.00    +0.000 C 
ATOM      3  C   UNL     1       5.039   6.262  16.577  0.00  0.00    +0.000 C 
ATOM      4  C   UNL     1       4.571   4.903  16.051  0.00  0.00    +0.000 C 
ATOM      5  C   UNL     1       5.217   3.764  16.837  0.00  0.00    +0.000 C 
ATOM      6  N   UNL     1       5.001   3.943  18.274  0.00  0.00    +0.000 N 
ATOM      7  C   UNL     1       4.287   3.092  19.105  0.00  0.00    +0.000 C 
ATOM      8  O   UNL     1       4.107   3.337  20.297  0.00  0.00    +0.000 OA
ATOM      9  C   UNL     1       5.481   5.213  18.814  0.00  0.00    +0.000 C 
BRANCH   7  10
ATOM     10  C   UNL     1       3.711   1.833  18.479  0.00  0.00    +0.000 C 
BRANCH  10  11
ATOM     11  C   UNL     1       2.357   2.094  17.823  0.00  0.00    +0.000 C 
BRANCH  11  12
ATOM     12  C   UNL     1       1.261   2.404  18.833  0.00  0.00    +0.000 C 
ATOM     13  F   UNL     1       1.494   1.872  20.051  0.00  0.00    +0.000 F 
ATOM     14  F   UNL     1       1.075   3.734  18.967  0.00  0.00    +0.000 F 
ATOM     15  F   UNL     1       0.087   1.884  18.402  0.00  0.00    +0.000 F 
ENDBRANCH  11  12
ENDBRANCH  10  11
ENDBRANCH   7  10
ENDBRANCH   1   2
BRANCH   1  16
ATOM     16  C   UNL     1       2.584   7.637  17.767  0.00  0.00    +0.000 C 
BRANCH  16  18
ATOM     17  O   UNL     1       1.698   8.217  19.943  0.00  0.00    +0.000 OA
ATOM     18  C   UNL     1       1.863   8.521  18.771  0.00  0.00    +0.000 C 
ATOM     19  N   UNL     1       1.387   9.687  18.209  0.00  0.00    +0.000 N 
ATOM     20  H   UNL     1       1.569   9.886  17.234  0.00  0.00    +0.000 HD
BRANCH  19  21
ATOM     21  C   UNL     1       0.648  10.651  18.995  0.00  0.00    +0.000 C 
BRANCH  21  22
ATOM     22  C   UNL     1      -0.781  10.725  18.528  0.00  0.00    +0.000 A 
ATOM     23  C   UNL     1      -1.237   9.871  17.509  0.00  0.00    +0.000 A 
ATOM     24  C   UNL     1      -2.566   9.918  17.083  0.00  0.00    +0.000 A 
ATOM     25  C   UNL     1      -3.448  10.810  17.682  0.00  0.00    +0.000 A 
ATOM     26  F   UNL     1      -4.724  10.849  17.275  0.00  0.00    +0.000 F 
ATOM     27  C   UNL     1      -3.012  11.652  18.698  0.00  0.00    +0.000 A 
ATOM     28  F   UNL     1      -3.863  12.508  19.279  0.00  0.00    +0.000 F 
ATOM     29  C   UNL     1      -1.687  11.616  19.126  0.00  0.00    +0.000 A 
ENDBRANCH  21  22
ENDBRANCH  19  21
ENDBRANCH  16  18
ENDBRANCH   1  16
TORSDOF 8
ENDMDL
MODEL 7
REMARK VINA RESULT:      -7.8      2.804      9.624
REMARK  Name = 
REMARK  8 active torsions:
REMARK  status: ('A' for Active; 'I' for Inactive)
REMARK    1  A    between atoms: C_2  and  C_3
REMARK    2  A    between atoms: C_3  and  C_4
REMARK    3  A    between atoms: C_4  and  C_5
REMARK    4  A    between atoms: C_10  and  C_12
REMARK    5  A    between atoms: C_12  and  C_13
REMARK    6  A    between atoms: C_13  and  C_14
REMARK    7  A    between atoms: N_19  and  C_20
REMARK    8  A    between atoms: C_20  and  C_21
REMARK                            x       y       z     vdW  Elec       q    Type
REMARK                         _______ _______ _______ _____ _____    ______ ____
ROOT
ATOM      1  C   UNL     1       9.151  10.556  18.720  0.00  0.00    +0.000 C 
ENDROOT
BRANCH   1   2
ATOM      2  C   UNL     1      10.318  11.275  18.009  0.00  0.00    +0.000 C 
ATOM      3  C   UNL     1      11.592  11.317  18.875  0.00  0.00    +0.000 C 
ATOM      4  C   UNL     1      11.419  12.229  20.092  0.00  0.00    +0.000 C 
ATOM      5  C   UNL     1      10.965  13.623  19.667  0.00  0.00    +0.000 C 
ATOM      6  N   UNL     1       9.773  13.541  18.821  0.00  0.00    +0.000 N 
ATOM      7  C   UNL     1       8.521  14.058  19.122  0.00  0.00    +0.000 C 
ATOM      8  O   UNL     1       7.552  13.905  18.379  0.00  0.00    +0.000 OA
ATOM      9  C   UNL     1       9.924  12.715  17.625  0.00  0.00    +0.000 C 
BRANCH   7  10
ATOM     10  C   UNL     1       8.380  14.819  20.429  0.00  0.00    +0.000 C 
BRANCH  10  11
ATOM     11  C   UNL     1       7.500  14.072  21.428  0.00  0.00    +0.000 C 
BRANCH  11  12
ATOM     12  C   UNL     1       8.290  13.120  22.315  0.00  0.00    +0.000 C 
ATOM     13  F   UNL     1       9.526  13.572  22.613  0.00  0.00    +0.000 F 
ATOM     14  F   UNL     1       7.634  12.857  23.464  0.00  0.00    +0.000 F 
ATOM     15  F   UNL     1       8.455  11.936  21.676  0.00  0.00    +0.000 F 
ENDBRANCH  11  12
ENDBRANCH  10  11
ENDBRANCH   7  10
ENDBRANCH   1   2
BRANCH   1  16
ATOM     16  C   UNL     1       8.175   9.891  17.748  0.00  0.00    +0.000 C 
BRANCH  16  18
ATOM     17  O   UNL     1       8.666   7.808  18.877  0.00  0.00    +0.000 OA
ATOM     18  C   UNL     1       8.098   8.389  17.965  0.00  0.00    +0.000 C 
ATOM     19  N   UNL     1       7.347   7.749  17.001  0.00  0.00    +0.000 N 
ATOM     20  H   UNL     1       6.891   8.290  16.279  0.00  0.00    +0.000 HD
BRANCH  19  21
ATOM     21  C   UNL     1       7.173   6.313  17.016  0.00  0.00    +0.000 C 
BRANCH  21  22
ATOM     22  C   UNL     1       5.738   5.960  17.299  0.00  0.00    +0.000 A 
ATOM     23  C   UNL     1       4.783   6.975  17.482  0.00  0.00    +0.000 A 
ATOM     24  C   UNL     1       3.445   6.657  17.724  0.00  0.00    +0.000 A 
ATOM     25  C   UNL     1       3.054   5.324  17.773  0.00  0.00    +0.000 A 
ATOM     26  F   UNL     1       1.768   5.022  18.000  0.00  0.00    +0.000 F 
ATOM     27  C   UNL     1       3.986   4.312  17.582  0.00  0.00    +0.000 A 
ATOM     28  F   UNL     1       3.608   3.027  17.623  0.00  0.00    +0.000 F 
ATOM     29  C   UNL     1       5.324   4.619  17.345  0.00  0.00    +0.000 A 
ENDBRANCH  21  22
ENDBRANCH  19  21
ENDBRANCH  16  18
ENDBRANCH   1  16
TORSDOF 8
ENDMDL
MODEL 8
REMARK VINA RESULT:      -7.8      4.158      6.352
REMARK  Name = 
REMARK  8 active torsions:
REMARK  status: ('A' for Active; 'I' for Inactive)
REMARK    1  A    between atoms: C_2  and  C_3
REMARK    2  A    between atoms: C_3  and  C_4
REMARK    3  A    between atoms: C_4  and  C_5
REMARK    4  A    between atoms: C_10  and  C_12
REMARK    5  A    between atoms: C_12  and  C_13
REMARK    6  A    between atoms: C_13  and  C_14
REMARK    7  A    between atoms: N_19  and  C_20
REMARK    8  A    between atoms: C_20  and  C_21
REMARK                            x       y       z     vdW  Elec       q    Type
REMARK                         _______ _______ _______ _____ _____    ______ ____
ROOT
ATOM      1  C   UNL     1       1.793   5.314  17.972  0.00  0.00    +0.000 C 
ENDROOT
BRANCH   1   2
ATOM      2  C   UNL     1       2.851   5.665  19.040  0.00  0.00    +0.000 C 
ATOM      3  C   UNL     1       2.381   5.313  20.465  0.00  0.00    +0.000 C 
ATOM      4  C   UNL     1       1.231   6.214  20.921  0.00  0.00    +0.000 C 
ATOM      5  C   UNL     1       1.609   7.688  20.788  0.00  0.00    +0.000 C 
ATOM      6  N   UNL     1       2.080   7.978  19.432  0.00  0.00    +0.000 N 
ATOM      7  C   UNL     1       1.479   8.838  18.525  0.00  0.00    +0.000 C 
ATOM      8  O   UNL     1       1.908   8.992  17.382  0.00  0.00    +0.000 OA
ATOM      9  C   UNL     1       3.210   7.164  18.986  0.00  0.00    +0.000 C 
BRANCH   7  10
ATOM     10  C   UNL     1       0.240   9.585  18.992  0.00  0.00    +0.000 C 
BRANCH  10  11
ATOM     11  C   UNL     1      -0.225  10.612  17.962  0.00  0.00    +0.000 C 
BRANCH  11  12
ATOM     12  C   UNL     1      -1.708  10.495  17.640  0.00  0.00    +0.000 C 
ATOM     13  F   UNL     1      -2.348   9.583  18.401  0.00  0.00    +0.000 F 
ATOM     14  F   UNL     1      -2.335  11.683  17.765  0.00  0.00    +0.000 F 
ATOM     15  F   UNL     1      -1.863  10.102  16.353  0.00  0.00    +0.000 F 
ENDBRANCH  11  12
ENDBRANCH  10  11
ENDBRANCH   7  10
ENDBRANCH   1   2
BRANCH   1  16
ATOM     16  C   UNL     1       1.909   3.874  17.466  0.00  0.00    +0.000 C 
BRANCH  16  18
ATOM     17  O   UNL     1       3.821   2.515  18.057  0.00  0.00    +0.000 OA
ATOM     18  C   UNL     1       3.356   3.421  17.382  0.00  0.00    +0.000 C 
ATOM     19  N   UNL     1       4.096   4.164  16.486  0.00  0.00    +0.000 N 
ATOM     20  H   UNL     1       3.648   4.893  15.947  0.00  0.00    +0.000 HD
BRANCH  19  21
ATOM     21  C   UNL     1       5.505   3.906  16.280  0.00  0.00    +0.000 C 
BRANCH  21  22
ATOM     22  C   UNL     1       6.337   4.955  16.966  0.00  0.00    +0.000 A 
ATOM     23  C   UNL     1       6.258   6.298  16.559  0.00  0.00    +0.000 A 
ATOM     24  C   UNL     1       7.011   7.282  17.204  0.00  0.00    +0.000 A 
ATOM     25  C   UNL     1       7.837   6.930  18.264  0.00  0.00    +0.000 A 
ATOM     26  F   UNL     1       8.554   7.877  18.885  0.00  0.00    +0.000 F 
ATOM     27  C   UNL     1       7.916   5.607  18.683  0.00  0.00    +0.000 A 
ATOM     28  F   UNL     1       8.708   5.268  19.710  0.00  0.00    +0.000 F 
ATOM     29  C   UNL     1       7.172   4.618  18.044  0.00  0.00    +0.000 A 
ENDBRANCH  21  22
ENDBRANCH  19  21
ENDBRANCH  16  18
ENDBRANCH   1  16
TORSDOF 8
ENDMDL
MODEL 9
REMARK VINA RESULT:      -7.8      1.469      2.069
REMARK  Name = 
REMARK  8 active torsions:
REMARK  status: ('A' for Active; 'I' for Inactive)
REMARK    1  A    between atoms: C_2  and  C_3
REMARK    2  A    between atoms: C_3  and  C_4
REMARK    3  A    between atoms: C_4  and  C_5
REMARK    4  A    between atoms: C_10  and  C_12
REMARK    5  A    between atoms: C_12  and  C_13
REMARK    6  A    between atoms: C_13  and  C_14
REMARK    7  A    between atoms: N_19  and  C_20
REMARK    8  A    between atoms: C_20  and  C_21
REMARK                            x       y       z     vdW  Elec       q    Type
REMARK                         _______ _______ _______ _____ _____    ______ ____
ROOT
ATOM      1  C   UNL     1       6.144   6.282  17.620  0.00  0.00    +0.000 C 
ENDROOT
BRANCH   1   2
ATOM      2  C   UNL     1       5.013   6.050  16.594  0.00  0.00    +0.000 C 
ATOM      3  C   UNL     1       4.113   7.290  16.427  0.00  0.00    +0.000 C 
ATOM      4  C   UNL     1       3.283   7.560  17.684  0.00  0.00    +0.000 C 
ATOM      5  C   UNL     1       2.486   6.321  18.087  0.00  0.00    +0.000 C 
ATOM      6  N   UNL     1       3.368   5.159  18.205  0.00  0.00    +0.000 N 
ATOM      7  C   UNL     1       3.618   4.437  19.364  0.00  0.00    +0.000 C 
ATOM      8  O   UNL     1       4.413   3.499  19.394  0.00  0.00    +0.000 OA
ATOM      9  C   UNL     1       4.139   4.847  17.003  0.00  0.00    +0.000 C 
BRANCH   7  10
ATOM     10  C   UNL     1       2.876   4.862  20.620  0.00  0.00    +0.000 C 
BRANCH  10  11
ATOM     11  C   UNL     1       1.548   4.124  20.771  0.00  0.00    +0.000 C 
BRANCH  11  12
ATOM     12  C   UNL     1       1.718   2.703  21.289  0.00  0.00    +0.000 C 
ATOM     13  F   UNL     1       1.637   1.769  20.319  0.00  0.00    +0.000 F 
ATOM     14  F   UNL     1       2.890   2.553  21.941  0.00  0.00    +0.000 F 
ATOM     15  F   UNL     1       0.735   2.424  22.178  0.00  0.00    +0.000 F 
ENDBRANCH  11  12
ENDBRANCH  10  11
ENDBRANCH   7  10
ENDBRANCH   1   2
BRANCH   1  16
ATOM     16  C   UNL     1       7.159   7.333  17.165  0.00  0.00    +0.000 C 
BRANCH  16  18
ATOM     17  O   UNL     1       8.506   6.955  19.139  0.00  0.00    +0.000 OA
ATOM     18  C   UNL     1       8.098   7.733  18.290  0.00  0.00    +0.000 C 
ATOM     19  N   UNL     1       8.414   9.076  18.268  0.00  0.00    +0.000 N 
ATOM     20  H   UNL     1       8.054   9.665  17.529  0.00  0.00    +0.000 HD
BRANCH  19  21
ATOM     21  C   UNL     1       9.276   9.661  19.272  0.00  0.00    +0.000 C 
BRANCH  21  22
ATOM     22  C   UNL     1       9.610  11.084  18.913  0.00  0.00    +0.000 A 
ATOM     23  C   UNL     1       8.888  11.747  17.906  0.00  0.00    +0.000 A 
ATOM     24  C   UNL     1       9.178  13.074  17.581  0.00  0.00    +0.000 A 
ATOM     25  C   UNL     1      10.182  13.746  18.267  0.00  0.00    +0.000 A 
ATOM     26  F   UNL     1      10.454  15.021  17.957  0.00  0.00    +0.000 F 
ATOM     27  C   UNL     1      10.895  13.104  19.273  0.00  0.00    +0.000 A 
ATOM     28  F   UNL     1      11.860  13.755  19.939  0.00  0.00    +0.000 F 
ATOM     29  C   UNL     1      10.617  11.780  19.602  0.00  0.00    +0.000 A 
ENDBRANCH  21  22
ENDBRANCH  19  21
ENDBRANCH  16  18
ENDBRANCH   1  16
TORSDOF 8
ENDMDL
