MODEL 1
REMARK VINA RESULT:      -6.9      0.000      0.000
REMARK  Name = 
REMARK  1 active torsions:
REMARK  status: ('A' for Active; 'I' for Inactive)
REMARK    1  A    between atoms: C_3  and  N_4
REMARK                            x       y       z     vdW  Elec       q    Type
REMARK                         _______ _______ _______ _____ _____    ______ ____
ROOT
ATOM      1 BR   UNL     1       3.224   2.270  17.420  0.00  0.00    +0.000 Br
ATOM      2  C   UNL     1       3.723   4.120  17.300  0.00  0.00    +0.000 A 
ATOM      3  C   UNL     1       2.979   5.072  18.033  0.00  0.00    +0.000 A 
ATOM      4  C   UNL     1       3.370   6.407  17.928  0.00  0.00    +0.000 A 
ATOM      5  C   UNL     1       4.456   6.777  17.138  0.00  0.00    +0.000 A 
ATOM      6  C   UNL     1       5.177   5.841  16.418  0.00  0.00    +0.000 A 
ATOM      7  N   UNL     1       6.211   6.275  15.674  0.00  0.00    +0.000 NA
ATOM      8  C   UNL     1       6.889   5.344  14.974  0.00  0.00    +0.000 A 
ATOM      9  C   UNL     1       6.547   4.012  15.017  0.00  0.00    +0.000 A 
ATOM     10  N   UNL     1       5.521   3.558  15.768  0.00  0.00    +0.000 NA
ATOM     11  C   UNL     1       4.814   4.474  16.484  0.00  0.00    +0.000 A 
ENDROOT
BRANCH   3  12
ATOM     12  N   UNL     1       1.875   4.679  18.827  0.00  0.00    +0.000 N 
ATOM     13  C   UNL     1       1.934   3.950  19.962  0.00  0.00    +0.000 A 
ATOM     14  N   UNL     1       2.964   3.628  20.710  0.00  0.00    +0.000 NA
ATOM     15  C   UNL     1       2.466   2.891  21.751  0.00  0.00    +0.000 A 
ATOM     16  C   UNL     1       1.109   2.734  21.624  0.00  0.00    +0.000 A 
ATOM     17  N   UNL     1       0.780   3.429  20.493  0.00  0.00    +0.000 N 
ATOM     18  H   UNL     1       1.020   5.169  18.578  0.00  0.00    +0.000 HD
ATOM     19  H   UNL     1      -0.136   3.507  20.081  0.00  0.00    +0.000 HD
ENDBRANCH   3  12
TORSDOF 1
ENDMDL
MODEL 2
REMARK VINA RESULT:      -6.7      2.369      5.817
REMARK  Name = 
REMARK  1 active torsions:
REMARK  status: ('A' for Active; 'I' for Inactive)
REMARK    1  A    between atoms: C_3  and  N_4
REMARK                            x       y       z     vdW  Elec       q    Type
REMARK                         _______ _______ _______ _____ _____    ______ ____
ROOT
ATOM      1 BR   UNL     1       2.874   7.203  18.559  0.00  0.00    +0.000 Br
ATOM      2  C   UNL     1       3.350   5.432  17.988  0.00  0.00    +0.000 A 
ATOM      3  C   UNL     1       4.486   5.268  17.165  0.00  0.00    +0.000 A 
ATOM      4  C   UNL     1       4.808   3.969  16.771  0.00  0.00    +0.000 A 
ATOM      5  C   UNL     1       4.041   2.882  17.185  0.00  0.00    +0.000 A 
ATOM      6  C   UNL     1       2.926   3.050  17.987  0.00  0.00    +0.000 A 
ATOM      7  N   UNL     1       2.232   1.953  18.343  0.00  0.00    +0.000 NA
ATOM      8  C   UNL     1       1.144   2.147  19.115  0.00  0.00    +0.000 A 
ATOM      9  C   UNL     1       0.759   3.402  19.526  0.00  0.00    +0.000 A 
ATOM     10  N   UNL     1       1.450   4.511  19.188  0.00  0.00    +0.000 NA
ATOM     11  C   UNL     1       2.552   4.350  18.406  0.00  0.00    +0.000 A 
ENDROOT
BRANCH   3  12
ATOM     12  N   UNL     1       5.252   6.384  16.748  0.00  0.00    +0.000 N 
ATOM     13  C   UNL     1       6.374   6.841  17.344  0.00  0.00    +0.000 A 
ATOM     14  N   UNL     1       7.135   6.287  18.259  0.00  0.00    +0.000 NA
ATOM     15  C   UNL     1       8.152   7.170  18.499  0.00  0.00    +0.000 A 
ATOM     16  C   UNL     1       7.998   8.301  17.737  0.00  0.00    +0.000 A 
ATOM     17  N   UNL     1       6.874   8.071  16.993  0.00  0.00    +0.000 N 
ATOM     18  H   UNL     1       4.997   6.709  15.821  0.00  0.00    +0.000 HD
ATOM     19  H   UNL     1       6.447   8.707  16.338  0.00  0.00    +0.000 HD
ENDBRANCH   3  12
TORSDOF 1
ENDMDL
MODEL 3
REMARK VINA RESULT:      -6.7      1.847      6.242
REMARK  Name = 
REMARK  1 active torsions:
REMARK  status: ('A' for Active; 'I' for Inactive)
REMARK    1  A    between atoms: C_3  and  N_4
REMARK                            x       y       z     vdW  Elec       q    Type
REMARK                         _______ _______ _______ _____ _____    ______ ____
ROOT
ATOM      1 BR   UNL     1       3.474   7.023  17.788  0.00  0.00    +0.000 Br
ATOM      2  C   UNL     1       3.904   5.294  18.504  0.00  0.00    +0.000 A 
ATOM      3  C   UNL     1       5.121   4.686  18.122  0.00  0.00    +0.000 A 
ATOM      4  C   UNL     1       5.408   3.433  18.663  0.00  0.00    +0.000 A 
ATOM      5  C   UNL     1       4.528   2.816  19.550  0.00  0.00    +0.000 A 
ATOM      6  C   UNL     1       3.335   3.415  19.916  0.00  0.00    +0.000 A 
ATOM      7  N   UNL     1       2.535   2.756  20.776  0.00  0.00    +0.000 NA
ATOM      8  C   UNL     1       1.375   3.356  21.106  0.00  0.00    +0.000 A 
ATOM      9  C   UNL     1       1.021   4.584  20.597  0.00  0.00    +0.000 A 
ATOM     10  N   UNL     1       1.817   5.264  19.744  0.00  0.00    +0.000 NA
ATOM     11  C   UNL     1       2.995   4.683  19.387  0.00  0.00    +0.000 A 
ENDROOT
BRANCH   3  12
ATOM     12  N   UNL     1       6.001   5.325  17.214  0.00  0.00    +0.000 N 
ATOM     13  C   UNL     1       6.237   4.946  15.940  0.00  0.00    +0.000 A 
ATOM     14  N   UNL     1       5.595   4.091  15.176  0.00  0.00    +0.000 NA
ATOM     15  C   UNL     1       6.242   4.094  13.970  0.00  0.00    +0.000 A 
ATOM     16  C   UNL     1       7.318   4.944  14.002  0.00  0.00    +0.000 A 
ATOM     17  N   UNL     1       7.292   5.494  15.254  0.00  0.00    +0.000 N 
ATOM     18  H   UNL     1       6.305   6.237  17.540  0.00  0.00    +0.000 HD
ATOM     19  H   UNL     1       7.958   6.148  15.637  0.00  0.00    +0.000 HD
ENDBRANCH   3  12
TORSDOF 1
ENDMDL
MODEL 4
REMARK VINA RESULT:      -6.6      2.251      2.696
REMARK  Name = 
REMARK  1 active torsions:
REMARK  status: ('A' for Active; 'I' for Inactive)
REMARK    1  A    between atoms: C_3  and  N_4
REMARK                            x       y       z     vdW  Elec       q    Type
REMARK                         _______ _______ _______ _____ _____    ______ ____
ROOT
ATOM      1 BR   UNL     1       2.915   3.529  16.995  0.00  0.00    +0.000 Br
ATOM      2  C   UNL     1       4.475   4.644  17.098  0.00  0.00    +0.000 A 
ATOM      3  C   UNL     1       4.664   5.440  18.251  0.00  0.00    +0.000 A 
ATOM      4  C   UNL     1       5.810   6.235  18.298  0.00  0.00    +0.000 A 
ATOM      5  C   UNL     1       6.729   6.232  17.251  0.00  0.00    +0.000 A 
ATOM      6  C   UNL     1       6.535   5.455  16.123  0.00  0.00    +0.000 A 
ATOM      7  N   UNL     1       7.465   5.508  15.151  0.00  0.00    +0.000 NA
ATOM      8  C   UNL     1       7.245   4.750  14.059  0.00  0.00    +0.000 A 
ATOM      9  C   UNL     1       6.128   3.955  13.938  0.00  0.00    +0.000 A 
ATOM     10  N   UNL     1       5.193   3.881  14.908  0.00  0.00    +0.000 NA
ATOM     11  C   UNL     1       5.383   4.637  16.023  0.00  0.00    +0.000 A 
ENDROOT
BRANCH   3  12
ATOM     12  N   UNL     1       3.717   5.435  19.304  0.00  0.00    +0.000 N 
ATOM     13  C   UNL     1       2.873   6.441  19.614  0.00  0.00    +0.000 A 
ATOM     14  N   UNL     1       2.557   7.523  18.939  0.00  0.00    +0.000 NA
ATOM     15  C   UNL     1       1.643   8.198  19.702  0.00  0.00    +0.000 A 
ATOM     16  C   UNL     1       1.414   7.533  20.881  0.00  0.00    +0.000 A 
ATOM     17  N   UNL     1       2.187   6.408  20.804  0.00  0.00    +0.000 N 
ATOM     18  H   UNL     1       3.578   4.510  19.700  0.00  0.00    +0.000 HD
ATOM     19  H   UNL     1       2.287   5.698  21.512  0.00  0.00    +0.000 HD
ENDBRANCH   3  12
TORSDOF 1
ENDMDL
MODEL 5
REMARK VINA RESULT:      -6.5      1.294      1.358
REMARK  Name = 
REMARK  1 active torsions:
REMARK  status: ('A' for Active; 'I' for Inactive)
REMARK    1  A    between atoms: C_3  and  N_4
REMARK                            x       y       z     vdW  Elec       q    Type
REMARK                         _______ _______ _______ _____ _____    ______ ____
ROOT
ATOM      1 BR   UNL     1       2.607   3.646  17.057  0.00  0.00    +0.000 Br
ATOM      2  C   UNL     1       4.229   4.620  17.388  0.00  0.00    +0.000 A 
ATOM      3  C   UNL     1       4.382   5.280  18.628  0.00  0.00    +0.000 A 
ATOM      4  C   UNL     1       5.573   5.974  18.841  0.00  0.00    +0.000 A 
ATOM      5  C   UNL     1       6.570   6.003  17.868  0.00  0.00    +0.000 A 
ATOM      6  C   UNL     1       6.411   5.360  16.653  0.00  0.00    +0.000 A 
ATOM      7  N   UNL     1       7.417   5.436  15.761  0.00  0.00    +0.000 NA
ATOM      8  C   UNL     1       7.232   4.810  14.582  0.00  0.00    +0.000 A 
ATOM      9  C   UNL     1       6.075   4.121  14.299  0.00  0.00    +0.000 A 
ATOM     10  N   UNL     1       5.062   4.025  15.186  0.00  0.00    +0.000 NA
ATOM     11  C   UNL     1       5.216   4.649  16.386  0.00  0.00    +0.000 A 
ENDROOT
BRANCH   3  12
ATOM     12  N   UNL     1       3.356   5.244  19.604  0.00  0.00    +0.000 N 
ATOM     13  C   UNL     1       3.000   4.170  20.340  0.00  0.00    +0.000 A 
ATOM     14  N   UNL     1       3.607   3.018  20.510  0.00  0.00    +0.000 NA
ATOM     15  C   UNL     1       2.824   2.294  21.367  0.00  0.00    +0.000 A 
ATOM     16  C   UNL     1       1.700   3.003  21.708  0.00  0.00    +0.000 A 
ATOM     17  N   UNL     1       1.833   4.202  21.064  0.00  0.00    +0.000 N 
ATOM     18  H   UNL     1       3.026   6.171  19.859  0.00  0.00    +0.000 HD
ATOM     19  H   UNL     1       1.172   4.962  21.068  0.00  0.00    +0.000 HD
ENDBRANCH   3  12
TORSDOF 1
ENDMDL
MODEL 6
REMARK VINA RESULT:      -6.4      3.193      5.934
REMARK  Name = 
REMARK  1 active torsions:
REMARK  status: ('A' for Active; 'I' for Inactive)
REMARK    1  A    between atoms: C_3  and  N_4
REMARK                            x       y       z     vdW  Elec       q    Type
REMARK                         _______ _______ _______ _____ _____    ______ ____
ROOT
ATOM      1 BR   UNL     1       2.675   4.860  20.518  0.00  0.00    +0.000 Br
ATOM      2  C   UNL     1       2.591   6.452  19.447  0.00  0.00    +0.000 A 
ATOM      3  C   UNL     1       3.306   6.488  18.229  0.00  0.00    +0.000 A 
ATOM      4  C   UNL     1       3.221   7.656  17.471  0.00  0.00    +0.000 A 
ATOM      5  C   UNL     1       2.453   8.736  17.902  0.00  0.00    +0.000 A 
ATOM      6  C   UNL     1       1.759   8.697  19.098  0.00  0.00    +0.000 A 
ATOM      7  N   UNL     1       1.042   9.781  19.449  0.00  0.00    +0.000 NA
ATOM      8  C   UNL     1       0.386   9.720  20.625  0.00  0.00    +0.000 A 
ATOM      9  C   UNL     1       0.440   8.605  21.430  0.00  0.00    +0.000 A 
ATOM     10  N   UNL     1       1.144   7.506  21.088  0.00  0.00    +0.000 NA
ATOM     11  C   UNL     1       1.821   7.536  19.908  0.00  0.00    +0.000 A 
ENDROOT
BRANCH   3  12
ATOM     12  N   UNL     1       4.087   5.383  17.810  0.00  0.00    +0.000 N 
ATOM     13  C   UNL     1       5.433   5.297  17.865  0.00  0.00    +0.000 A 
ATOM     14  N   UNL     1       6.306   6.055  18.488  0.00  0.00    +0.000 NA
ATOM     15  C   UNL     1       7.537   5.516  18.227  0.00  0.00    +0.000 A 
ATOM     16  C   UNL     1       7.420   4.423  17.406  0.00  0.00    +0.000 A 
ATOM     17  N   UNL     1       6.075   4.283  17.199  0.00  0.00    +0.000 N 
ATOM     18  H   UNL     1       3.528   4.552  17.639  0.00  0.00    +0.000 HD
ATOM     19  H   UNL     1       5.626   3.593  16.618  0.00  0.00    +0.000 HD
ENDBRANCH   3  12
TORSDOF 1
ENDMDL
MODEL 7
REMARK VINA RESULT:      -6.3      1.401      5.974
REMARK  Name = 
REMARK  1 active torsions:
REMARK  status: ('A' for Active; 'I' for Inactive)
REMARK    1  A    between atoms: C_3  and  N_4
REMARK                            x       y       z     vdW  Elec       q    Type
REMARK                         _______ _______ _______ _____ _____    ______ ____
ROOT
ATOM      1 BR   UNL     1       5.937   4.517  19.256  0.00  0.00    +0.000 Br
ATOM      2  C   UNL     1       4.072   4.465  18.805  0.00  0.00    +0.000 A 
ATOM      3  C   UNL     1       3.647   5.081  17.607  0.00  0.00    +0.000 A 
ATOM      4  C   UNL     1       2.286   5.022  17.304  0.00  0.00    +0.000 A 
ATOM      5  C   UNL     1       1.391   4.372  18.151  0.00  0.00    +0.000 A 
ATOM      6  C   UNL     1       1.812   3.777  19.327  0.00  0.00    +0.000 A 
ATOM      7  N   UNL     1       0.887   3.172  20.096  0.00  0.00    +0.000 NA
ATOM      8  C   UNL     1       1.324   2.610  21.241  0.00  0.00    +0.000 A 
ATOM      9  C   UNL     1       2.649   2.645  21.609  0.00  0.00    +0.000 A 
ATOM     10  N   UNL     1       3.590   3.237  20.844  0.00  0.00    +0.000 NA
ATOM     11  C   UNL     1       3.182   3.817  19.683  0.00  0.00    +0.000 A 
ENDROOT
BRANCH   3  12
ATOM     12  N   UNL     1       4.570   5.741  16.759  0.00  0.00    +0.000 N 
ATOM     13  C   UNL     1       5.340   5.156  15.818  0.00  0.00    +0.000 A 
ATOM     14  N   UNL     1       5.284   3.947  15.306  0.00  0.00    +0.000 NA
ATOM     15  C   UNL     1       6.287   3.876  14.378  0.00  0.00    +0.000 A 
ATOM     16  C   UNL     1       6.991   5.054  14.338  0.00  0.00    +0.000 A 
ATOM     17  N   UNL     1       6.367   5.866  15.244  0.00  0.00    +0.000 N 
ATOM     18  H   UNL     1       4.465   6.751  16.778  0.00  0.00    +0.000 HD
ATOM     19  H   UNL     1       6.636   6.803  15.496  0.00  0.00    +0.000 HD
ENDBRANCH   3  12
TORSDOF 1
ENDMDL
MODEL 8
REMARK VINA RESULT:      -6.3      2.193      5.503
REMARK  Name = 
REMARK  1 active torsions:
REMARK  status: ('A' for Active; 'I' for Inactive)
REMARK    1  A    between atoms: C_3  and  N_4
REMARK                            x       y       z     vdW  Elec       q    Type
REMARK                         _______ _______ _______ _____ _____    ______ ____
ROOT
ATOM      1 BR   UNL     1       4.915   3.914  16.150  0.00  0.00    +0.000 Br
ATOM      2  C   UNL     1       3.754   4.692  17.466  0.00  0.00    +0.000 A 
ATOM      3  C   UNL     1       3.899   6.063  17.773  0.00  0.00    +0.000 A 
ATOM      4  C   UNL     1       3.037   6.600  18.730  0.00  0.00    +0.000 A 
ATOM      5  C   UNL     1       2.069   5.810  19.347  0.00  0.00    +0.000 A 
ATOM      6  C   UNL     1       1.935   4.466  19.046  0.00  0.00    +0.000 A 
ATOM      7  N   UNL     1       0.980   3.767  19.686  0.00  0.00    +0.000 NA
ATOM      8  C   UNL     1       0.879   2.458  19.382  0.00  0.00    +0.000 A 
ATOM      9  C   UNL     1       1.707   1.860  18.461  0.00  0.00    +0.000 A 
ATOM     10  N   UNL     1       2.663   2.549  17.801  0.00  0.00    +0.000 NA
ATOM     11  C   UNL     1       2.793   3.872  18.088  0.00  0.00    +0.000 A 
ENDROOT
BRANCH   3  12
ATOM     12  N   UNL     1       4.892   6.850  17.141  0.00  0.00    +0.000 N 
ATOM     13  C   UNL     1       6.160   7.022  17.571  0.00  0.00    +0.000 A 
ATOM     14  N   UNL     1       6.839   6.374  18.490  0.00  0.00    +0.000 NA
ATOM     15  C   UNL     1       8.085   6.941  18.518  0.00  0.00    +0.000 A 
ATOM     16  C   UNL     1       8.164   7.974  17.618  0.00  0.00    +0.000 A 
ATOM     17  N   UNL     1       6.940   8.002  17.008  0.00  0.00    +0.000 N 
ATOM     18  H   UNL     1       4.629   7.130  16.200  0.00  0.00    +0.000 HD
ATOM     19  H   UNL     1       6.633   8.658  16.307  0.00  0.00    +0.000 HD
ENDBRANCH   3  12
TORSDOF 1
ENDMDL
MODEL 9
REMARK VINA RESULT:      -6.3      3.258      5.041
REMARK  Name = 
REMARK  1 active torsions:
REMARK  status: ('A' for Active; 'I' for Inactive)
REMARK    1  A    between atoms: C_3  and  N_4
REMARK                            x       y       z     vdW  Elec       q    Type
REMARK                         _______ _______ _______ _____ _____    ______ ____
ROOT
ATOM      1 BR   UNL     1       4.349   6.709  17.072  0.00  0.00    +0.000 Br
ATOM      2  C   UNL     1       3.161   6.933  18.564  0.00  0.00    +0.000 A 
ATOM      3  C   UNL     1       3.102   5.916  19.542  0.00  0.00    +0.000 A 
ATOM      4  C   UNL     1       2.233   6.110  20.616  0.00  0.00    +0.000 A 
ATOM      5  C   UNL     1       1.465   7.269  20.717  0.00  0.00    +0.000 A 
ATOM      6  C   UNL     1       1.523   8.259  19.752  0.00  0.00    +0.000 A 
ATOM      7  N   UNL     1       0.748   9.347  19.916  0.00  0.00    +0.000 NA
ATOM      8  C   UNL     1       0.816  10.291  18.956  0.00  0.00    +0.000 A 
ATOM      9  C   UNL     1       1.638  10.156  17.861  0.00  0.00    +0.000 A 
ATOM     10  N   UNL     1       2.431   9.077  17.688  0.00  0.00    +0.000 NA
ATOM     11  C   UNL     1       2.383   8.104  18.638  0.00  0.00    +0.000 A 
ENDROOT
BRANCH   3  12
ATOM     12  N   UNL     1       3.886   4.742  19.422  0.00  0.00    +0.000 N 
ATOM     13  C   UNL     1       3.489   3.578  18.865  0.00  0.00    +0.000 A 
ATOM     14  N   UNL     1       2.435   3.304  18.131  0.00  0.00    +0.000 NA
ATOM     15  C   UNL     1       2.522   1.976  17.814  0.00  0.00    +0.000 A 
ATOM     16  C   UNL     1       3.636   1.416  18.388  0.00  0.00    +0.000 A 
ATOM     17  N   UNL     1       4.253   2.450  19.037  0.00  0.00    +0.000 N 
ATOM     18  H   UNL     1       4.869   4.907  19.615  0.00  0.00    +0.000 HD
ATOM     19  H   UNL     1       5.092   2.395  19.593  0.00  0.00    +0.000 HD
ENDBRANCH   3  12
TORSDOF 1
ENDMDL
