MODEL 1
REMARK VINA RESULT:      -8.3      0.000      0.000
REMARK  Name = 
REMARK  10 active torsions:
REMARK  status: ('A' for Active; 'I' for Inactive)
REMARK    1  A    between atoms: C_1  and  C_2
REMARK    2  A    between atoms: C_6  and  O_7
REMARK    3  A    between atoms: O_7  and  C_8
REMARK    4  A    between atoms: C_10  and  N_11
REMARK    5  A    between atoms: C_12  and  C_14
REMARK    6  A    between atoms: C_14  and  O_16
REMARK    7  A    between atoms: C_17  and  C_18
REMARK    8  A    between atoms: N_20  and  C_21
REMARK    9  A    between atoms: C_24  and  O_25
REMARK   10  A    between atoms: O_25  and  C_26
REMARK                            x       y       z     vdW  Elec       q    Type
REMARK                         _______ _______ _______ _____ _____    ______ ____
ROOT
ATOM      1  C   UNL     1       5.835   4.884  16.883  0.00  0.00    +0.000 A 
ATOM      2  N   UNL     1       5.048   4.015  17.470  0.00  0.00    +0.000 NA
ATOM      3  C   UNL     1       4.000   4.651  18.083  0.00  0.00    +0.000 A 
ATOM      4  C   UNL     1       4.019   6.035  17.980  0.00  0.00    +0.000 A 
ATOM      5  S   UNL     1       5.424   6.523  17.122  0.00  0.00    +0.000 S 
ENDROOT
BRANCH   3   6
ATOM      6  N   UNL     1       3.017   3.920  18.718  0.00  0.00    +0.000 N 
ATOM      7  C   UNL     1       1.771   3.677  18.188  0.00  0.00    +0.000 C 
ATOM      8  O   UNL     1       1.270   4.017  17.121  0.00  0.00    +0.000 OA
ATOM      9  H   UNL     1       3.227   3.541  19.643  0.00  0.00    +0.000 HD
BRANCH   7  10
ATOM     10  C   UNL     1       0.874   2.839  19.107  0.00  0.00    +0.000 C 
ATOM     11  O   UNL     1       0.704   3.098  20.282  0.00  0.00    +0.000 OA
BRANCH  10  12
ATOM     12  O   UNL     1       0.326   1.812  18.427  0.00  0.00    +0.000 OA
ATOM     13  H   UNL     1       0.125   1.092  19.073  0.00  0.00    +0.000 HD
ENDBRANCH  10  12
ENDBRANCH   7  10
ENDBRANCH   3   6
BRANCH   4  14
ATOM     14  C   UNL     1       3.041   6.980  18.494  0.00  0.00    +0.000 C 
ATOM     15  O   UNL     1       2.436   6.740  19.536  0.00  0.00    +0.000 OA
ATOM     16  N   UNL     1       2.826   8.099  17.700  0.00  0.00    +0.000 N 
ATOM     17  H   UNL     1       3.291   8.105  16.800  0.00  0.00    +0.000 HD
BRANCH  16  18
ATOM     18  C   UNL     1       1.946   9.170  17.957  0.00  0.00    +0.000 A 
ATOM     19  C   UNL     1       2.372  10.429  18.382  0.00  0.00    +0.000 A 
ATOM     20  C   UNL     1       1.446  11.449  18.617  0.00  0.00    +0.000 A 
ATOM     21  C   UNL     1       0.084  11.224  18.429  0.00  0.00    +0.000 A 
ATOM     22  C   UNL     1      -0.353   9.954  18.047  0.00  0.00    +0.000 A 
ATOM     23  C   UNL     1       0.577   8.945  17.770  0.00  0.00    +0.000 A 
BRANCH  21  24
ATOM     24  O   UNL     1      -0.743  12.288  18.701  0.00  0.00    +0.000 OA
BRANCH  24  25
ATOM     25  C   UNL     1      -1.428  12.343  19.893  0.00  0.00    +0.000 A 
ATOM     26  C   UNL     1      -2.802  12.578  19.796  0.00  0.00    +0.000 A 
ATOM     27  C   UNL     1      -3.581  12.671  20.951  0.00  0.00    +0.000 A 
ATOM     28  C   UNL     1      -2.989  12.527  22.205  0.00  0.00    +0.000 A 
ATOM     29  C   UNL     1      -1.627  12.247  22.304  0.00  0.00    +0.000 A 
ATOM     30  C   UNL     1      -0.855  12.124  21.148  0.00  0.00    +0.000 A 
ENDBRANCH  24  25
ENDBRANCH  21  24
ENDBRANCH  16  18
ENDBRANCH   4  14
BRANCH   1  31
ATOM     31  O   UNL     1       6.895   4.541  16.148  0.00  0.00    +0.000 OA
BRANCH  31  37
ATOM     32  C   UNL     1       4.616   3.110  11.995  0.00  0.00    +0.000 C 
ATOM     33  C   UNL     1       5.722   3.838  12.697  0.00  0.00    +0.000 A 
ATOM     34  C   UNL     1       6.720   4.512  11.986  0.00  0.00    +0.000 A 
ATOM     35  C   UNL     1       7.749   5.172  12.663  0.00  0.00    +0.000 A 
ATOM     36  C   UNL     1       7.793   5.157  14.058  0.00  0.00    +0.000 A 
ATOM     37  C   UNL     1       6.813   4.474  14.776  0.00  0.00    +0.000 A 
ATOM     38  C   UNL     1       5.771   3.832  14.097  0.00  0.00    +0.000 A 
ENDBRANCH  31  37
ENDBRANCH   1  31
TORSDOF 9
ENDMDL
MODEL 2
REMARK VINA RESULT:      -8.2      0.243      1.288
REMARK  Name = 
REMARK  10 active torsions:
REMARK  status: ('A' for Active; 'I' for Inactive)
REMARK    1  A    between atoms: C_1  and  C_2
REMARK    2  A    between atoms: C_6  and  O_7
REMARK    3  A    between atoms: O_7  and  C_8
REMARK    4  A    between atoms: C_10  and  N_11
REMARK    5  A    between atoms: C_12  and  C_14
REMARK    6  A    between atoms: C_14  and  O_16
REMARK    7  A    between atoms: C_17  and  C_18
REMARK    8  A    between atoms: N_20  and  C_21
REMARK    9  A    between atoms: C_24  and  O_25
REMARK   10  A    between atoms: O_25  and  C_26
REMARK                            x       y       z     vdW  Elec       q    Type
REMARK                         _______ _______ _______ _____ _____    ______ ____
ROOT
ATOM      1  C   UNL     1       5.774   5.047  16.946  0.00  0.00    +0.000 A 
ATOM      2  N   UNL     1       4.986   4.156  17.497  0.00  0.00    +0.000 NA
ATOM      3  C   UNL     1       3.912   4.765  18.095  0.00  0.00    +0.000 A 
ATOM      4  C   UNL     1       3.913   6.151  18.018  0.00  0.00    +0.000 A 
ATOM      5  S   UNL     1       5.331   6.676  17.205  0.00  0.00    +0.000 S 
ENDROOT
BRANCH   3   6
ATOM      6  N   UNL     1       2.926   4.008  18.692  0.00  0.00    +0.000 N 
ATOM      7  C   UNL     1       1.656   3.853  18.184  0.00  0.00    +0.000 C 
ATOM      8  O   UNL     1       1.135   4.308  17.171  0.00  0.00    +0.000 OA
ATOM      9  H   UNL     1       3.152   3.536  19.570  0.00  0.00    +0.000 HD
BRANCH   7  10
ATOM     10  C   UNL     1       0.760   2.960  19.050  0.00  0.00    +0.000 C 
ATOM     11  O   UNL     1       0.424   1.839  18.719  0.00  0.00    +0.000 OA
BRANCH  10  12
ATOM     12  O   UNL     1       0.422   3.591  20.191  0.00  0.00    +0.000 OA
ATOM     13  H   UNL     1      -0.097   2.959  20.747  0.00  0.00    +0.000 HD
ENDBRANCH  10  12
ENDBRANCH   7  10
ENDBRANCH   3   6
BRANCH   4  14
ATOM     14  C   UNL     1       2.908   7.071  18.525  0.00  0.00    +0.000 C 
ATOM     15  O   UNL     1       2.249   6.782  19.521  0.00  0.00    +0.000 OA
ATOM     16  N   UNL     1       2.732   8.226  17.774  0.00  0.00    +0.000 N 
ATOM     17  H   UNL     1       3.244   8.274  16.901  0.00  0.00    +0.000 HD
BRANCH  16  18
ATOM     18  C   UNL     1       1.839   9.284  18.035  0.00  0.00    +0.000 A 
ATOM     19  C   UNL     1       0.451   9.139  18.026  0.00  0.00    +0.000 A 
ATOM     20  C   UNL     1      -0.379  10.231  18.296  0.00  0.00    +0.000 A 
ATOM     21  C   UNL     1       0.168  11.481  18.578  0.00  0.00    +0.000 A 
ATOM     22  C   UNL     1       1.554  11.644  18.544  0.00  0.00    +0.000 A 
ATOM     23  C   UNL     1       2.387  10.542  18.317  0.00  0.00    +0.000 A 
BRANCH  21  24
ATOM     24  O   UNL     1      -0.734  12.490  18.815  0.00  0.00    +0.000 OA
BRANCH  24  25
ATOM     25  C   UNL     1      -1.464  12.504  19.982  0.00  0.00    +0.000 A 
ATOM     26  C   UNL     1      -0.726  12.393  21.164  0.00  0.00    +0.000 A 
ATOM     27  C   UNL     1      -1.378  12.378  22.399  0.00  0.00    +0.000 A 
ATOM     28  C   UNL     1      -2.768  12.474  22.455  0.00  0.00    +0.000 A 
ATOM     29  C   UNL     1      -3.503  12.630  21.281  0.00  0.00    +0.000 A 
ATOM     30  C   UNL     1      -2.849  12.677  20.050  0.00  0.00    +0.000 A 
ENDBRANCH  24  25
ENDBRANCH  21  24
ENDBRANCH  16  18
ENDBRANCH   4  14
BRANCH   1  31
ATOM     31  O   UNL     1       6.856   4.735  16.232  0.00  0.00    +0.000 OA
BRANCH  31  37
ATOM     32  C   UNL     1       4.549   3.148  12.152  0.00  0.00    +0.000 C 
ATOM     33  C   UNL     1       5.683   3.866  12.820  0.00  0.00    +0.000 A 
ATOM     34  C   UNL     1       6.719   4.444  12.079  0.00  0.00    +0.000 A 
ATOM     35  C   UNL     1       7.773   5.097  12.725  0.00  0.00    +0.000 A 
ATOM     36  C   UNL     1       7.802   5.170  14.118  0.00  0.00    +0.000 A 
ATOM     37  C   UNL     1       6.784   4.582  14.866  0.00  0.00    +0.000 A 
ATOM     38  C   UNL     1       5.719   3.949  14.217  0.00  0.00    +0.000 A 
ENDBRANCH  31  37
ENDBRANCH   1  31
TORSDOF 9
ENDMDL
MODEL 3
REMARK VINA RESULT:      -8.1      1.655      1.954
REMARK  Name = 
REMARK  10 active torsions:
REMARK  status: ('A' for Active; 'I' for Inactive)
REMARK    1  A    between atoms: C_1  and  C_2
REMARK    2  A    between atoms: C_6  and  O_7
REMARK    3  A    between atoms: O_7  and  C_8
REMARK    4  A    between atoms: C_10  and  N_11
REMARK    5  A    between atoms: C_12  and  C_14
REMARK    6  A    between atoms: C_14  and  O_16
REMARK    7  A    between atoms: C_17  and  C_18
REMARK    8  A    between atoms: N_20  and  C_21
REMARK    9  A    between atoms: C_24  and  O_25
REMARK   10  A    between atoms: O_25  and  C_26
REMARK                            x       y       z     vdW  Elec       q    Type
REMARK                         _______ _______ _______ _____ _____    ______ ____
ROOT
ATOM      1  C   UNL     1       5.609   4.992  16.715  0.00  0.00    +0.000 A 
ATOM      2  N   UNL     1       4.618   4.229  17.107  0.00  0.00    +0.000 NA
ATOM      3  C   UNL     1       3.587   4.989  17.596  0.00  0.00    +0.000 A 
ATOM      4  C   UNL     1       3.825   6.357  17.600  0.00  0.00    +0.000 A 
ATOM      5  S   UNL     1       5.408   6.662  17.009  0.00  0.00    +0.000 S 
ENDROOT
BRANCH   3   6
ATOM      6  N   UNL     1       2.418   4.390  18.015  0.00  0.00    +0.000 N 
ATOM      7  C   UNL     1       2.362   3.347  18.911  0.00  0.00    +0.000 C 
ATOM      8  O   UNL     1       3.253   2.748  19.504  0.00  0.00    +0.000 OA
ATOM      9  H   UNL     1       1.538   4.739  17.630  0.00  0.00    +0.000 HD
BRANCH   7  10
ATOM     10  C   UNL     1       0.933   2.871  19.200  0.00  0.00    +0.000 C 
ATOM     11  O   UNL     1       0.324   2.121  18.462  0.00  0.00    +0.000 OA
BRANCH  10  12
ATOM     12  O   UNL     1       0.483   3.395  20.356  0.00  0.00    +0.000 OA
ATOM     13  H   UNL     1       0.791   2.814  21.094  0.00  0.00    +0.000 HD
ENDBRANCH  10  12
ENDBRANCH   7  10
ENDBRANCH   3   6
BRANCH   4  14
ATOM     14  C   UNL     1       2.924   7.415  18.026  0.00  0.00    +0.000 C 
ATOM     15  O   UNL     1       2.620   8.319  17.251  0.00  0.00    +0.000 OA
ATOM     16  N   UNL     1       2.509   7.341  19.349  0.00  0.00    +0.000 N 
ATOM     17  H   UNL     1       2.943   6.622  19.915  0.00  0.00    +0.000 HD
BRANCH  16  18
ATOM     18  C   UNL     1       1.637   8.223  20.019  0.00  0.00    +0.000 A 
ATOM     19  C   UNL     1       1.207   8.029  21.333  0.00  0.00    +0.000 A 
ATOM     20  C   UNL     1       0.343   8.945  21.939  0.00  0.00    +0.000 A 
ATOM     21  C   UNL     1      -0.102  10.065  21.241  0.00  0.00    +0.000 A 
ATOM     22  C   UNL     1       0.287  10.241  19.912  0.00  0.00    +0.000 A 
ATOM     23  C   UNL     1       1.187   9.348  19.318  0.00  0.00    +0.000 A 
BRANCH  21  24
ATOM     24  O   UNL     1      -0.960  10.894  21.923  0.00  0.00    +0.000 OA
BRANCH  24  25
ATOM     25  C   UNL     1      -1.057  12.223  21.578  0.00  0.00    +0.000 A 
ATOM     26  C   UNL     1      -2.207  12.587  20.873  0.00  0.00    +0.000 A 
ATOM     27  C   UNL     1      -2.388  13.909  20.460  0.00  0.00    +0.000 A 
ATOM     28  C   UNL     1      -1.420  14.869  20.751  0.00  0.00    +0.000 A 
ATOM     29  C   UNL     1      -0.293  14.518  21.493  0.00  0.00    +0.000 A 
ATOM     30  C   UNL     1      -0.128  13.204  21.932  0.00  0.00    +0.000 A 
ENDBRANCH  24  25
ENDBRANCH  21  24
ENDBRANCH  16  18
ENDBRANCH   4  14
BRANCH   1  31
ATOM     31  O   UNL     1       6.714   4.526  16.130  0.00  0.00    +0.000 OA
BRANCH  31  37
ATOM     32  C   UNL     1       5.189   2.735  11.776  0.00  0.00    +0.000 C 
ATOM     33  C   UNL     1       6.080   3.630  12.585  0.00  0.00    +0.000 A 
ATOM     34  C   UNL     1       7.039   4.447  11.978  0.00  0.00    +0.000 A 
ATOM     35  C   UNL     1       7.868   5.262  12.754  0.00  0.00    +0.000 A 
ATOM     36  C   UNL     1       7.748   5.261  14.144  0.00  0.00    +0.000 A 
ATOM     37  C   UNL     1       6.806   4.439  14.760  0.00  0.00    +0.000 A 
ATOM     38  C   UNL     1       5.963   3.640  13.980  0.00  0.00    +0.000 A 
ENDBRANCH  31  37
ENDBRANCH   1  31
TORSDOF 9
ENDMDL
MODEL 4
REMARK VINA RESULT:      -8.1      1.091      1.639
REMARK  Name = 
REMARK  10 active torsions:
REMARK  status: ('A' for Active; 'I' for Inactive)
REMARK    1  A    between atoms: C_1  and  C_2
REMARK    2  A    between atoms: C_6  and  O_7
REMARK    3  A    between atoms: O_7  and  C_8
REMARK    4  A    between atoms: C_10  and  N_11
REMARK    5  A    between atoms: C_12  and  C_14
REMARK    6  A    between atoms: C_14  and  O_16
REMARK    7  A    between atoms: C_17  and  C_18
REMARK    8  A    between atoms: N_20  and  C_21
REMARK    9  A    between atoms: C_24  and  O_25
REMARK   10  A    between atoms: O_25  and  C_26
REMARK                            x       y       z     vdW  Elec       q    Type
REMARK                         _______ _______ _______ _____ _____    ______ ____
ROOT
ATOM      1  C   UNL     1       6.189   5.074  16.676  0.00  0.00    +0.000 A 
ATOM      2  N   UNL     1       5.492   4.068  17.147  0.00  0.00    +0.000 NA
ATOM      3  C   UNL     1       4.392   4.521  17.829  0.00  0.00    +0.000 A 
ATOM      4  C   UNL     1       4.280   5.903  17.899  0.00  0.00    +0.000 A 
ATOM      5  S   UNL     1       5.627   6.625  17.116  0.00  0.00    +0.000 S 
ENDROOT
BRANCH   3   6
ATOM      6  N   UNL     1       3.488   3.627  18.364  0.00  0.00    +0.000 N 
ATOM      7  C   UNL     1       2.310   3.262  17.753  0.00  0.00    +0.000 C 
ATOM      8  O   UNL     1       1.817   3.608  16.685  0.00  0.00    +0.000 OA
ATOM      9  H   UNL     1       3.705   3.215  19.273  0.00  0.00    +0.000 HD
BRANCH   7  10
ATOM     10  C   UNL     1       1.491   2.253  18.569  0.00  0.00    +0.000 C 
ATOM     11  O   UNL     1       0.319   2.419  18.843  0.00  0.00    +0.000 OA
BRANCH  10  12
ATOM     12  O   UNL     1       2.252   1.196  18.916  0.00  0.00    +0.000 OA
ATOM     13  H   UNL     1       1.675   0.394  18.916  0.00  0.00    +0.000 HD
ENDBRANCH  10  12
ENDBRANCH   7  10
ENDBRANCH   3   6
BRANCH   4  14
ATOM     14  C   UNL     1       3.221   6.680  18.523  0.00  0.00    +0.000 C 
ATOM     15  O   UNL     1       2.477   6.160  19.351  0.00  0.00    +0.000 OA
ATOM     16  N   UNL     1       3.101   7.987  18.069  0.00  0.00    +0.000 N 
ATOM     17  H   UNL     1       3.691   8.245  17.287  0.00  0.00    +0.000 HD
BRANCH  16  18
ATOM     18  C   UNL     1       2.174   8.957  18.500  0.00  0.00    +0.000 A 
ATOM     19  C   UNL     1       1.267   8.746  19.540  0.00  0.00    +0.000 A 
ATOM     20  C   UNL     1       0.376   9.753  19.919  0.00  0.00    +0.000 A 
ATOM     21  C   UNL     1       0.379  10.983  19.265  0.00  0.00    +0.000 A 
ATOM     22  C   UNL     1       1.252  11.185  18.194  0.00  0.00    +0.000 A 
ATOM     23  C   UNL     1       2.175  10.193  17.842  0.00  0.00    +0.000 A 
BRANCH  21  24
ATOM     24  O   UNL     1      -0.547  11.899  19.705  0.00  0.00    +0.000 OA
BRANCH  24  25
ATOM     25  C   UNL     1      -1.838  11.858  19.230  0.00  0.00    +0.000 A 
ATOM     26  C   UNL     1      -2.815  12.390  20.075  0.00  0.00    +0.000 A 
ATOM     27  C   UNL     1      -4.157  12.377  19.691  0.00  0.00    +0.000 A 
ATOM     28  C   UNL     1      -4.525  11.834  18.460  0.00  0.00    +0.000 A 
ATOM     29  C   UNL     1      -3.548  11.344  17.596  0.00  0.00    +0.000 A 
ATOM     30  C   UNL     1      -2.203  11.385  17.967  0.00  0.00    +0.000 A 
ENDBRANCH  24  25
ENDBRANCH  21  24
ENDBRANCH  16  18
ENDBRANCH   4  14
BRANCH   1  31
ATOM     31  O   UNL     1       7.271   4.928  15.909  0.00  0.00    +0.000 OA
BRANCH  31  37
ATOM     32  C   UNL     1       5.133   2.709  12.037  0.00  0.00    +0.000 C 
ATOM     33  C   UNL     1       6.120   3.682  12.608  0.00  0.00    +0.000 A 
ATOM     34  C   UNL     1       6.961   4.437  11.784  0.00  0.00    +0.000 A 
ATOM     35  C   UNL     1       7.884   5.328  12.340  0.00  0.00    +0.000 A 
ATOM     36  C   UNL     1       7.977   5.465  13.726  0.00  0.00    +0.000 A 
ATOM     37  C   UNL     1       7.155   4.705  14.556  0.00  0.00    +0.000 A 
ATOM     38  C   UNL     1       6.217   3.830  13.997  0.00  0.00    +0.000 A 
ENDBRANCH  31  37
ENDBRANCH   1  31
TORSDOF 9
ENDMDL
MODEL 5
REMARK VINA RESULT:      -8.0      4.117     11.328
REMARK  Name = 
REMARK  10 active torsions:
REMARK  status: ('A' for Active; 'I' for Inactive)
REMARK    1  A    between atoms: C_1  and  C_2
REMARK    2  A    between atoms: C_6  and  O_7
REMARK    3  A    between atoms: O_7  and  C_8
REMARK    4  A    between atoms: C_10  and  N_11
REMARK    5  A    between atoms: C_12  and  C_14
REMARK    6  A    between atoms: C_14  and  O_16
REMARK    7  A    between atoms: C_17  and  C_18
REMARK    8  A    between atoms: N_20  and  C_21
REMARK    9  A    between atoms: C_24  and  O_25
REMARK   10  A    between atoms: O_25  and  C_26
REMARK                            x       y       z     vdW  Elec       q    Type
REMARK                         _______ _______ _______ _____ _____    ______ ____
ROOT
ATOM      1  C   UNL     1      -2.451  13.668  21.119  0.00  0.00    +0.000 A 
ATOM      2  N   UNL     1      -2.866  13.411  19.902  0.00  0.00    +0.000 NA
ATOM      3  C   UNL     1      -1.951  12.642  19.231  0.00  0.00    +0.000 A 
ATOM      4  C   UNL     1      -0.804  12.341  19.954  0.00  0.00    +0.000 A 
ATOM      5  S   UNL     1      -0.888  13.092  21.495  0.00  0.00    +0.000 S 
ENDROOT
BRANCH   3   6
ATOM      6  N   UNL     1      -2.212  12.209  17.948  0.00  0.00    +0.000 N 
ATOM      7  C   UNL     1      -2.558  10.917  17.624  0.00  0.00    +0.000 C 
ATOM      8  O   UNL     1      -2.705   9.924  18.327  0.00  0.00    +0.000 OA
ATOM      9  H   UNL     1      -2.138  12.891  17.190  0.00  0.00    +0.000 HD
BRANCH   7  10
ATOM     10  C   UNL     1      -2.790  10.710  16.122  0.00  0.00    +0.000 C 
ATOM     11  O   UNL     1      -2.435   9.710  15.529  0.00  0.00    +0.000 OA
BRANCH  10  12
ATOM     12  O   UNL     1      -3.427  11.771  15.590  0.00  0.00    +0.000 OA
ATOM     13  H   UNL     1      -4.382  11.535  15.491  0.00  0.00    +0.000 HD
ENDBRANCH  10  12
ENDBRANCH   7  10
ENDBRANCH   3   6
BRANCH   4  14
ATOM     14  C   UNL     1       0.326  11.529  19.532  0.00  0.00    +0.000 C 
ATOM     15  O   UNL     1       1.342  12.061  19.092  0.00  0.00    +0.000 OA
ATOM     16  N   UNL     1       0.131  10.156  19.617  0.00  0.00    +0.000 N 
ATOM     17  H   UNL     1      -0.802   9.851  19.868  0.00  0.00    +0.000 HD
BRANCH  16  18
ATOM     18  C   UNL     1       1.052   9.143  19.284  0.00  0.00    +0.000 A 
ATOM     19  C   UNL     1       1.509   8.189  20.196  0.00  0.00    +0.000 A 
ATOM     20  C   UNL     1       2.422   7.208  19.799  0.00  0.00    +0.000 A 
ATOM     21  C   UNL     1       2.889   7.168  18.487  0.00  0.00    +0.000 A 
ATOM     22  C   UNL     1       2.472   8.145  17.582  0.00  0.00    +0.000 A 
ATOM     23  C   UNL     1       1.525   9.101  17.967  0.00  0.00    +0.000 A 
BRANCH  21  24
ATOM     24  O   UNL     1       3.795   6.173  18.204  0.00  0.00    +0.000 OA
BRANCH  24  25
ATOM     25  C   UNL     1       3.383   4.861  18.143  0.00  0.00    +0.000 A 
ATOM     26  C   UNL     1       2.023   4.661  17.893  0.00  0.00    +0.000 A 
ATOM     27  C   UNL     1       1.505   3.365  17.832  0.00  0.00    +0.000 A 
ATOM     28  C   UNL     1       2.344   2.269  18.020  0.00  0.00    +0.000 A 
ATOM     29  C   UNL     1       3.709   2.464  18.224  0.00  0.00    +0.000 A 
ATOM     30  C   UNL     1       4.232   3.757  18.254  0.00  0.00    +0.000 A 
ENDBRANCH  24  25
ENDBRANCH  21  24
ENDBRANCH  16  18
ENDBRANCH   4  14
BRANCH   1  31
ATOM     31  O   UNL     1      -3.173  14.335  22.021  0.00  0.00    +0.000 OA
BRANCH  31  37
ATOM     32  C   UNL     1      -7.815  12.787  22.757  0.00  0.00    +0.000 C 
ATOM     33  C   UNL     1      -6.379  12.869  23.181  0.00  0.00    +0.000 A 
ATOM     34  C   UNL     1      -5.930  12.271  24.363  0.00  0.00    +0.000 A 
ATOM     35  C   UNL     1      -4.590  12.373  24.744  0.00  0.00    +0.000 A 
ATOM     36  C   UNL     1      -3.688  13.081  23.948  0.00  0.00    +0.000 A 
ATOM     37  C   UNL     1      -4.128  13.695  22.777  0.00  0.00    +0.000 A 
ATOM     38  C   UNL     1      -5.466  13.573  22.386  0.00  0.00    +0.000 A 
ENDBRANCH  31  37
ENDBRANCH   1  31
TORSDOF 9
ENDMDL
MODEL 6
REMARK VINA RESULT:      -8.0      3.287     11.239
REMARK  Name = 
REMARK  10 active torsions:
REMARK  status: ('A' for Active; 'I' for Inactive)
REMARK    1  A    between atoms: C_1  and  C_2
REMARK    2  A    between atoms: C_6  and  O_7
REMARK    3  A    between atoms: O_7  and  C_8
REMARK    4  A    between atoms: C_10  and  N_11
REMARK    5  A    between atoms: C_12  and  C_14
REMARK    6  A    between atoms: C_14  and  O_16
REMARK    7  A    between atoms: C_17  and  C_18
REMARK    8  A    between atoms: N_20  and  C_21
REMARK    9  A    between atoms: C_24  and  O_25
REMARK   10  A    between atoms: O_25  and  C_26
REMARK                            x       y       z     vdW  Elec       q    Type
REMARK                         _______ _______ _______ _____ _____    ______ ____
ROOT
ATOM      1  C   UNL     1      -1.465  12.777  20.922  0.00  0.00    +0.000 A 
ATOM      2  N   UNL     1      -1.979  12.772  19.716  0.00  0.00    +0.000 NA
ATOM      3  C   UNL     1      -1.416  11.781  18.955  0.00  0.00    +0.000 A 
ATOM      4  C   UNL     1      -0.429  11.044  19.597  0.00  0.00    +0.000 A 
ATOM      5  S   UNL     1      -0.197  11.663  21.181  0.00  0.00    +0.000 S 
ENDROOT
BRANCH   3   6
ATOM      6  N   UNL     1      -1.850  11.561  17.664  0.00  0.00    +0.000 N 
ATOM      7  C   UNL     1      -2.606  10.478  17.277  0.00  0.00    +0.000 C 
ATOM      8  O   UNL     1      -3.039   9.529  17.921  0.00  0.00    +0.000 OA
ATOM      9  H   UNL     1      -1.590  12.245  16.950  0.00  0.00    +0.000 HD
BRANCH   7  10
ATOM     10  C   UNL     1      -2.949  10.481  15.782  0.00  0.00    +0.000 C 
ATOM     11  O   UNL     1      -2.888   9.486  15.086  0.00  0.00    +0.000 OA
BRANCH  10  12
ATOM     12  O   UNL     1      -3.316  11.715  15.382  0.00  0.00    +0.000 OA
ATOM     13  H   UNL     1      -2.931  12.368  16.017  0.00  0.00    +0.000 HD
ENDBRANCH  10  12
ENDBRANCH   7  10
ENDBRANCH   3   6
BRANCH   4  14
ATOM     14  C   UNL     1       0.327   9.920  19.070  0.00  0.00    +0.000 C 
ATOM     15  O   UNL     1       0.431   9.757  17.857  0.00  0.00    +0.000 OA
ATOM     16  N   UNL     1       0.844   9.056  20.027  0.00  0.00    +0.000 N 
ATOM     17  H   UNL     1       0.567   9.232  20.985  0.00  0.00    +0.000 HD
BRANCH  16  18
ATOM     18  C   UNL     1       1.616   7.899  19.802  0.00  0.00    +0.000 A 
ATOM     19  C   UNL     1       1.598   6.786  20.644  0.00  0.00    +0.000 A 
ATOM     20  C   UNL     1       2.388   5.668  20.361  0.00  0.00    +0.000 A 
ATOM     21  C   UNL     1       3.204   5.649  19.232  0.00  0.00    +0.000 A 
ATOM     22  C   UNL     1       3.262   6.775  18.410  0.00  0.00    +0.000 A 
ATOM     23  C   UNL     1       2.438   7.877  18.669  0.00  0.00    +0.000 A 
BRANCH  21  24
ATOM     24  O   UNL     1       3.951   4.508  19.053  0.00  0.00    +0.000 OA
BRANCH  24  25
ATOM     25  C   UNL     1       5.112   4.552  18.315  0.00  0.00    +0.000 A 
ATOM     26  C   UNL     1       5.005   4.137  16.985  0.00  0.00    +0.000 A 
ATOM     27  C   UNL     1       6.131   4.126  16.160  0.00  0.00    +0.000 A 
ATOM     28  C   UNL     1       7.367   4.532  16.662  0.00  0.00    +0.000 A 
ATOM     29  C   UNL     1       7.468   4.989  17.975  0.00  0.00    +0.000 A 
ATOM     30  C   UNL     1       6.336   5.029  18.790  0.00  0.00    +0.000 A 
ENDBRANCH  24  25
ENDBRANCH  21  24
ENDBRANCH  16  18
ENDBRANCH   4  14
BRANCH   1  31
ATOM     31  O   UNL     1      -1.877  13.588  21.897  0.00  0.00    +0.000 OA
BRANCH  31  37
ATOM     32  C   UNL     1      -6.819  13.768  22.094  0.00  0.00    +0.000 C 
ATOM     33  C   UNL     1      -5.497  13.385  22.691  0.00  0.00    +0.000 A 
ATOM     34  C   UNL     1      -5.413  12.754  23.935  0.00  0.00    +0.000 A 
ATOM     35  C   UNL     1      -4.169  12.419  24.477  0.00  0.00    +0.000 A 
ATOM     36  C   UNL     1      -2.998  12.721  23.780  0.00  0.00    +0.000 A 
ATOM     37  C   UNL     1      -3.070  13.365  22.546  0.00  0.00    +0.000 A 
ATOM     38  C   UNL     1      -4.317  13.679  21.996  0.00  0.00    +0.000 A 
ENDBRANCH  31  37
ENDBRANCH   1  31
TORSDOF 9
ENDMDL
MODEL 7
REMARK VINA RESULT:      -7.9      3.633     11.495
REMARK  Name = 
REMARK  10 active torsions:
REMARK  status: ('A' for Active; 'I' for Inactive)
REMARK    1  A    between atoms: C_1  and  C_2
REMARK    2  A    between atoms: C_6  and  O_7
REMARK    3  A    between atoms: O_7  and  C_8
REMARK    4  A    between atoms: C_10  and  N_11
REMARK    5  A    between atoms: C_12  and  C_14
REMARK    6  A    between atoms: C_14  and  O_16
REMARK    7  A    between atoms: C_17  and  C_18
REMARK    8  A    between atoms: N_20  and  C_21
REMARK    9  A    between atoms: C_24  and  O_25
REMARK   10  A    between atoms: O_25  and  C_26
REMARK                            x       y       z     vdW  Elec       q    Type
REMARK                         _______ _______ _______ _____ _____    ______ ____
ROOT
ATOM      1  C   UNL     1      -1.731  13.108  22.491  0.00  0.00    +0.000 A 
ATOM      2  N   UNL     1      -0.885  13.659  21.654  0.00  0.00    +0.000 NA
ATOM      3  C   UNL     1       0.052  12.746  21.244  0.00  0.00    +0.000 A 
ATOM      4  C   UNL     1      -0.074  11.487  21.814  0.00  0.00    +0.000 A 
ATOM      5  S   UNL     1      -1.388  11.492  22.920  0.00  0.00    +0.000 S 
ENDROOT
BRANCH   3   6
ATOM      6  N   UNL     1       1.010  13.101  20.317  0.00  0.00    +0.000 N 
ATOM      7  C   UNL     1       0.894  12.880  18.964  0.00  0.00    +0.000 C 
ATOM      8  O   UNL     1      -0.003  12.362  18.307  0.00  0.00    +0.000 OA
ATOM      9  H   UNL     1       1.862  13.551  20.658  0.00  0.00    +0.000 HD
BRANCH   7  10
ATOM     10  C   UNL     1       2.107  13.371  18.163  0.00  0.00    +0.000 C 
ATOM     11  O   UNL     1       2.481  14.528  18.171  0.00  0.00    +0.000 OA
BRANCH  10  12
ATOM     12  O   UNL     1       2.666  12.355  17.478  0.00  0.00    +0.000 OA
ATOM     13  H   UNL     1       3.468  12.703  17.017  0.00  0.00    +0.000 HD
ENDBRANCH  10  12
ENDBRANCH   7  10
ENDBRANCH   3   6
BRANCH   4  14
ATOM     14  C   UNL     1       0.741  10.310  21.563  0.00  0.00    +0.000 C 
ATOM     15  O   UNL     1       1.442   9.839  22.455  0.00  0.00    +0.000 OA
ATOM     16  N   UNL     1       0.697   9.828  20.261  0.00  0.00    +0.000 N 
ATOM     17  H   UNL     1       0.185  10.392  19.592  0.00  0.00    +0.000 HD
BRANCH  16  18
ATOM     18  C   UNL     1       1.376   8.707  19.744  0.00  0.00    +0.000 A 
ATOM     19  C   UNL     1       1.558   7.521  20.457  0.00  0.00    +0.000 A 
ATOM     20  C   UNL     1       2.240   6.445  19.883  0.00  0.00    +0.000 A 
ATOM     21  C   UNL     1       2.748   6.540  18.589  0.00  0.00    +0.000 A 
ATOM     22  C   UNL     1       2.609   7.738  17.886  0.00  0.00    +0.000 A 
ATOM     23  C   UNL     1       1.889   8.801  18.444  0.00  0.00    +0.000 A 
BRANCH  21  24
ATOM     24  O   UNL     1       3.414   5.431  18.124  0.00  0.00    +0.000 OA
BRANCH  24  25
ATOM     25  C   UNL     1       4.779   5.468  17.949  0.00  0.00    +0.000 A 
ATOM     26  C   UNL     1       5.545   5.359  19.112  0.00  0.00    +0.000 A 
ATOM     27  C   UNL     1       6.939   5.406  19.041  0.00  0.00    +0.000 A 
ATOM     28  C   UNL     1       7.569   5.561  17.808  0.00  0.00    +0.000 A 
ATOM     29  C   UNL     1       6.809   5.625  16.641  0.00  0.00    +0.000 A 
ATOM     30  C   UNL     1       5.418   5.547  16.709  0.00  0.00    +0.000 A 
ENDBRANCH  24  25
ENDBRANCH  21  24
ENDBRANCH  16  18
ENDBRANCH   4  14
BRANCH   1  31
ATOM     31  O   UNL     1      -2.791  13.742  22.994  0.00  0.00    +0.000 OA
BRANCH  31  37
ATOM     32  C   UNL     1      -7.576  13.187  24.128  0.00  0.00    +0.000 C 
ATOM     33  C   UNL     1      -6.440  13.082  23.155  0.00  0.00    +0.000 A 
ATOM     34  C   UNL     1      -6.631  12.595  21.858  0.00  0.00    +0.000 A 
ATOM     35  C   UNL     1      -5.554  12.493  20.974  0.00  0.00    +0.000 A 
ATOM     36  C   UNL     1      -4.274  12.873  21.383  0.00  0.00    +0.000 A 
ATOM     37  C   UNL     1      -4.070  13.344  22.678  0.00  0.00    +0.000 A 
ATOM     38  C   UNL     1      -5.154  13.465  23.555  0.00  0.00    +0.000 A 
ENDBRANCH  31  37
ENDBRANCH   1  31
TORSDOF 9
ENDMDL
MODEL 8
REMARK VINA RESULT:      -7.9      2.405      3.577
REMARK  Name = 
REMARK  10 active torsions:
REMARK  status: ('A' for Active; 'I' for Inactive)
REMARK    1  A    between atoms: C_1  and  C_2
REMARK    2  A    between atoms: C_6  and  O_7
REMARK    3  A    between atoms: O_7  and  C_8
REMARK    4  A    between atoms: C_10  and  N_11
REMARK    5  A    between atoms: C_12  and  C_14
REMARK    6  A    between atoms: C_14  and  O_16
REMARK    7  A    between atoms: C_17  and  C_18
REMARK    8  A    between atoms: N_20  and  C_21
REMARK    9  A    between atoms: C_24  and  O_25
REMARK   10  A    between atoms: O_25  and  C_26
REMARK                            x       y       z     vdW  Elec       q    Type
REMARK                         _______ _______ _______ _____ _____    ______ ____
ROOT
ATOM      1  C   UNL     1       3.484   7.194  17.605  0.00  0.00    +0.000 A 
ATOM      2  N   UNL     1       3.249   6.104  18.295  0.00  0.00    +0.000 NA
ATOM      3  C   UNL     1       2.451   6.380  19.376  0.00  0.00    +0.000 A 
ATOM      4  C   UNL     1       2.106   7.717  19.517  0.00  0.00    +0.000 A 
ATOM      5  S   UNL     1       2.851   8.633  18.270  0.00  0.00    +0.000 S 
ENDROOT
BRANCH   3   6
ATOM      6  N   UNL     1       2.035   5.365  20.211  0.00  0.00    +0.000 N 
ATOM      7  C   UNL     1       2.639   4.131  20.288  0.00  0.00    +0.000 C 
ATOM      8  O   UNL     1       3.605   3.670  19.690  0.00  0.00    +0.000 OA
ATOM      9  H   UNL     1       1.223   5.539  20.807  0.00  0.00    +0.000 HD
BRANCH   7  10
ATOM     10  C   UNL     1       1.971   3.190  21.299  0.00  0.00    +0.000 C 
ATOM     11  O   UNL     1       2.540   2.768  22.287  0.00  0.00    +0.000 OA
BRANCH  10  12
ATOM     12  O   UNL     1       0.704   2.920  20.929  0.00  0.00    +0.000 OA
ATOM     13  H   UNL     1       0.125   3.031  21.723  0.00  0.00    +0.000 HD
ENDBRANCH  10  12
ENDBRANCH   7  10
ENDBRANCH   3   6
BRANCH   4  14
ATOM     14  C   UNL     1       1.257   8.315  20.534  0.00  0.00    +0.000 C 
ATOM     15  O   UNL     1       0.781   7.621  21.430  0.00  0.00    +0.000 OA
ATOM     16  N   UNL     1       0.999   9.669  20.369  0.00  0.00    +0.000 N 
ATOM     17  H   UNL     1       1.342  10.088  19.512  0.00  0.00    +0.000 HD
BRANCH  16  18
ATOM     18  C   UNL     1       0.221  10.497  21.202  0.00  0.00    +0.000 A 
ATOM     19  C   UNL     1      -0.496  10.025  22.302  0.00  0.00    +0.000 A 
ATOM     20  C   UNL     1      -1.248  10.902  23.090  0.00  0.00    +0.000 A 
ATOM     21  C   UNL     1      -1.291  12.261  22.788  0.00  0.00    +0.000 A 
ATOM     22  C   UNL     1      -0.613  12.733  21.663  0.00  0.00    +0.000 A 
ATOM     23  C   UNL     1       0.174  11.863  20.900  0.00  0.00    +0.000 A 
BRANCH  21  24
ATOM     24  O   UNL     1      -2.070  13.034  23.616  0.00  0.00    +0.000 OA
BRANCH  24  25
ATOM     25  C   UNL     1      -3.442  12.947  23.552  0.00  0.00    +0.000 A 
ATOM     26  C   UNL     1      -4.012  13.209  22.304  0.00  0.00    +0.000 A 
ATOM     27  C   UNL     1      -5.398  13.166  22.143  0.00  0.00    +0.000 A 
ATOM     28  C   UNL     1      -6.217  12.860  23.228  0.00  0.00    +0.000 A 
ATOM     29  C   UNL     1      -5.650  12.554  24.464  0.00  0.00    +0.000 A 
ATOM     30  C   UNL     1      -4.263  12.567  24.617  0.00  0.00    +0.000 A 
ENDBRANCH  24  25
ENDBRANCH  21  24
ENDBRANCH  16  18
ENDBRANCH   4  14
BRANCH   1  31
ATOM     31  O   UNL     1       4.171   7.210  16.461  0.00  0.00    +0.000 OA
BRANCH  31  37
ATOM     32  C   UNL     1       6.277   3.753  13.615  0.00  0.00    +0.000 C 
ATOM     33  C   UNL     1       6.267   4.607  14.847  0.00  0.00    +0.000 A 
ATOM     34  C   UNL     1       7.284   4.522  15.803  0.00  0.00    +0.000 A 
ATOM     35  C   UNL     1       7.246   5.319  16.951  0.00  0.00    +0.000 A 
ATOM     36  C   UNL     1       6.185   6.202  17.154  0.00  0.00    +0.000 A 
ATOM     37  C   UNL     1       5.158   6.283  16.216  0.00  0.00    +0.000 A 
ATOM     38  C   UNL     1       5.210   5.500  15.057  0.00  0.00    +0.000 A 
ENDBRANCH  31  37
ENDBRANCH   1  31
TORSDOF 9
ENDMDL
MODEL 9
REMARK VINA RESULT:      -7.8      1.560      2.000
REMARK  Name = 
REMARK  10 active torsions:
REMARK  status: ('A' for Active; 'I' for Inactive)
REMARK    1  A    between atoms: C_1  and  C_2
REMARK    2  A    between atoms: C_6  and  O_7
REMARK    3  A    between atoms: O_7  and  C_8
REMARK    4  A    between atoms: C_10  and  N_11
REMARK    5  A    between atoms: C_12  and  C_14
REMARK    6  A    between atoms: C_14  and  O_16
REMARK    7  A    between atoms: C_17  and  C_18
REMARK    8  A    between atoms: N_20  and  C_21
REMARK    9  A    between atoms: C_24  and  O_25
REMARK   10  A    between atoms: O_25  and  C_26
REMARK                            x       y       z     vdW  Elec       q    Type
REMARK                         _______ _______ _______ _____ _____    ______ ____
ROOT
ATOM      1  C   UNL     1       5.794   5.045  16.805  0.00  0.00    +0.000 A 
ATOM      2  N   UNL     1       4.969   4.320  17.522  0.00  0.00    +0.000 NA
ATOM      3  C   UNL     1       3.931   5.087  17.986  0.00  0.00    +0.000 A 
ATOM      4  C   UNL     1       3.997   6.428  17.635  0.00  0.00    +0.000 A 
ATOM      5  S   UNL     1       5.431   6.712  16.735  0.00  0.00    +0.000 S 
ENDROOT
BRANCH   3   6
ATOM      6  N   UNL     1       2.915   4.512  18.720  0.00  0.00    +0.000 N 
ATOM      7  C   UNL     1       1.896   3.763  18.176  0.00  0.00    +0.000 C 
ATOM      8  O   UNL     1       1.661   3.451  17.013  0.00  0.00    +0.000 OA
ATOM      9  H   UNL     1       2.916   4.656  19.732  0.00  0.00    +0.000 HD
BRANCH   7  10
ATOM     10  C   UNL     1       0.900   3.245  19.220  0.00  0.00    +0.000 C 
ATOM     11  O   UNL     1       0.207   2.262  19.043  0.00  0.00    +0.000 OA
BRANCH  10  12
ATOM     12  O   UNL     1       0.917   4.023  20.319  0.00  0.00    +0.000 OA
ATOM     13  H   UNL     1       1.724   4.593  20.276  0.00  0.00    +0.000 HD
ENDBRANCH  10  12
ENDBRANCH   7  10
ENDBRANCH   3   6
BRANCH   4  14
ATOM     14  C   UNL     1       3.041   7.478  17.948  0.00  0.00    +0.000 C 
ATOM     15  O   UNL     1       2.749   8.322  17.104  0.00  0.00    +0.000 OA
ATOM     16  N   UNL     1       2.558   7.469  19.250  0.00  0.00    +0.000 N 
ATOM     17  H   UNL     1       2.985   6.801  19.881  0.00  0.00    +0.000 HD
BRANCH  16  18
ATOM     18  C   UNL     1       1.625   8.357  19.819  0.00  0.00    +0.000 A 
ATOM     19  C   UNL     1       1.126   9.479  19.155  0.00  0.00    +0.000 A 
ATOM     20  C   UNL     1       0.198  10.319  19.777  0.00  0.00    +0.000 A 
ATOM     21  C   UNL     1      -0.242  10.048  21.070  0.00  0.00    +0.000 A 
ATOM     22  C   UNL     1       0.286   8.955  21.758  0.00  0.00    +0.000 A 
ATOM     23  C   UNL     1       1.181   8.089  21.120  0.00  0.00    +0.000 A 
BRANCH  21  24
ATOM     24  O   UNL     1      -1.143  10.944  21.596  0.00  0.00    +0.000 OA
BRANCH  24  25
ATOM     25  C   UNL     1      -1.029  12.286  21.312  0.00  0.00    +0.000 A 
ATOM     26  C   UNL     1      -0.081  12.989  22.058  0.00  0.00    +0.000 A 
ATOM     27  C   UNL     1       0.096  14.359  21.857  0.00  0.00    +0.000 A 
ATOM     28  C   UNL     1      -0.675  15.029  20.908  0.00  0.00    +0.000 A 
ATOM     29  C   UNL     1      -1.591  14.323  20.130  0.00  0.00    +0.000 A 
ATOM     30  C   UNL     1      -1.745  12.948  20.310  0.00  0.00    +0.000 A 
ENDBRANCH  24  25
ENDBRANCH  21  24
ENDBRANCH  16  18
ENDBRANCH   4  14
BRANCH   1  31
ATOM     31  O   UNL     1       6.854   4.546  16.169  0.00  0.00    +0.000 OA
BRANCH  31  37
ATOM     32  C   UNL     1       5.084   2.843  11.873  0.00  0.00    +0.000 C 
ATOM     33  C   UNL     1       6.038   3.702  12.648  0.00  0.00    +0.000 A 
ATOM     34  C   UNL     1       6.995   4.494  12.006  0.00  0.00    +0.000 A 
ATOM     35  C   UNL     1       7.882   5.276  12.751  0.00  0.00    +0.000 A 
ATOM     36  C   UNL     1       7.823   5.267  14.145  0.00  0.00    +0.000 A 
ATOM     37  C   UNL     1       6.884   4.468  14.795  0.00  0.00    +0.000 A 
ATOM     38  C   UNL     1       5.982   3.703  14.047  0.00  0.00    +0.000 A 
ENDBRANCH  31  37
ENDBRANCH   1  31
TORSDOF 9
ENDMDL
