MODEL 1
REMARK VINA RESULT:      -9.1      0.000      0.000
REMARK  Name = 
REMARK  3 active torsions:
REMARK  status: ('A' for Active; 'I' for Inactive)
REMARK    1  A    between atoms: C_1  and  C_2
REMARK    2  A    between atoms: C_6  and  C_7
REMARK    3  A    between atoms: C_13  and  C_15
REMARK                            x       y       z     vdW  Elec       q    Type
REMARK                         _______ _______ _______ _____ _____    ______ ____
ROOT
ATOM      1  C   UNL     1       4.198   3.907  18.385  0.00  0.00    +0.000 C 
ATOM      2  C   UNL     1       3.635   2.575  17.786  0.00  0.00    +0.000 C 
ATOM      3  O   UNL     1       2.365   2.212  18.352  0.00  0.00    +0.000 OA
ATOM      4  C   UNL     1       1.411   3.233  18.076  0.00  0.00    +0.000 C 
ATOM      5  C   UNL     1       1.863   4.542  18.694  0.00  0.00    +0.000 C 
ATOM      6  N   UNL     1       3.185   5.005  18.247  0.00  0.00    +0.000 N 
ATOM      7  C   UNL     1       3.495   6.392  18.171  0.00  0.00    +0.000 C 
ATOM      8  O   UNL     1       4.509   6.834  17.629  0.00  0.00    +0.000 OA
ENDROOT
BRANCH   7   9
ATOM      9  C   UNL     1       2.512   7.416  18.674  0.00  0.00    +0.000 A 
ATOM     10  C   UNL     1       1.976   8.370  17.806  0.00  0.00    +0.000 A 
ATOM     11  C   UNL     1       1.295   9.508  18.241  0.00  0.00    +0.000 A 
ATOM     12  C   UNL     1       1.010   9.543  19.590  0.00  0.00    +0.000 A 
ATOM     13  N   UNL     1       0.402  10.466  20.392  0.00  0.00    +0.000 N 
ATOM     14  N   UNL     1       0.250  10.018  21.642  0.00  0.00    +0.000 NA
ATOM     15  N   UNL     1       0.826   8.821  21.707  0.00  0.00    +0.000 NA
ATOM     16  C   UNL     1       1.341   8.509  20.471  0.00  0.00    +0.000 A 
ATOM     17  C   UNL     1       2.111   7.430  20.028  0.00  0.00    +0.000 A 
ATOM     18  H   UNL     1       0.097  11.407  20.158  0.00  0.00    +0.000 HD
ENDBRANCH   7   9
BRANCH   1  24
ATOM     19  C   UNL     1       5.301   4.277  15.273  0.00  0.00    +0.000 C 
ATOM     20  C   UNL     1       6.041   4.319  16.561  0.00  0.00    +0.000 A 
ATOM     21  C   UNL     1       7.423   4.563  16.729  0.00  0.00    +0.000 A 
ATOM     22  N   UNL     1       7.792   4.576  18.010  0.00  0.00    +0.000 NA
ATOM     23  N   UNL     1       6.657   4.292  18.668  0.00  0.00    +0.000 N 
ATOM     24  C   UNL     1       5.568   4.145  17.857  0.00  0.00    +0.000 A 
ATOM     25  H   UNL     1       6.698   4.135  19.668  0.00  0.00    +0.000 HD
ENDBRANCH   1  24
TORSDOF 2
ENDMDL
MODEL 2
REMARK VINA RESULT:      -8.6      1.330      1.592
REMARK  Name = 
REMARK  3 active torsions:
REMARK  status: ('A' for Active; 'I' for Inactive)
REMARK    1  A    between atoms: C_1  and  C_2
REMARK    2  A    between atoms: C_6  and  C_7
REMARK    3  A    between atoms: C_13  and  C_15
REMARK                            x       y       z     vdW  Elec       q    Type
REMARK                         _______ _______ _______ _____ _____    ______ ____
ROOT
ATOM      1  C   UNL     1       4.680   4.393  19.219  0.00  0.00    +0.000 C 
ATOM      2  C   UNL     1       4.287   2.896  19.453  0.00  0.00    +0.000 C 
ATOM      3  O   UNL     1       3.394   2.731  20.567  0.00  0.00    +0.000 OA
ATOM      4  C   UNL     1       2.189   3.448  20.321  0.00  0.00    +0.000 C 
ATOM      5  C   UNL     1       2.492   4.925  20.154  0.00  0.00    +0.000 C 
ATOM      6  N   UNL     1       3.448   5.236  19.081  0.00  0.00    +0.000 N 
ATOM      7  C   UNL     1       3.377   6.462  18.361  0.00  0.00    +0.000 C 
ATOM      8  O   UNL     1       4.025   6.689  17.339  0.00  0.00    +0.000 OA
ENDROOT
BRANCH   7   9
ATOM      9  C   UNL     1       2.396   7.527  18.775  0.00  0.00    +0.000 A 
ATOM     10  C   UNL     1       1.867   8.409  17.830  0.00  0.00    +0.000 A 
ATOM     11  C   UNL     1       1.189   9.581  18.168  0.00  0.00    +0.000 A 
ATOM     12  C   UNL     1       0.901   9.728  19.509  0.00  0.00    +0.000 A 
ATOM     13  N   UNL     1       0.293  10.716  20.231  0.00  0.00    +0.000 N 
ATOM     14  N   UNL     1       0.137  10.372  21.513  0.00  0.00    +0.000 NA
ATOM     15  N   UNL     1       0.708   9.182  21.678  0.00  0.00    +0.000 NA
ATOM     16  C   UNL     1       1.225   8.768  20.473  0.00  0.00    +0.000 A 
ATOM     17  C   UNL     1       1.992   7.653  20.123  0.00  0.00    +0.000 A 
ATOM     18  H   UNL     1      -0.007  11.635  19.919  0.00  0.00    +0.000 HD
ENDBRANCH   7   9
BRANCH   1  24
ATOM     19  C   UNL     1       7.724   5.727  19.201  0.00  0.00    +0.000 C 
ATOM     20  C   UNL     1       6.990   5.008  18.129  0.00  0.00    +0.000 A 
ATOM     21  C   UNL     1       7.472   4.709  16.834  0.00  0.00    +0.000 A 
ATOM     22  N   UNL     1       6.596   4.018  16.104  0.00  0.00    +0.000 NA
ATOM     23  N   UNL     1       5.528   3.912  16.910  0.00  0.00    +0.000 N 
ATOM     24  C   UNL     1       5.707   4.469  18.145  0.00  0.00    +0.000 A 
ATOM     25  H   UNL     1       4.672   3.515  16.539  0.00  0.00    +0.000 HD
ENDBRANCH   1  24
TORSDOF 2
ENDMDL
MODEL 3
REMARK VINA RESULT:      -8.3      0.675      1.455
REMARK  Name = 
REMARK  3 active torsions:
REMARK  status: ('A' for Active; 'I' for Inactive)
REMARK    1  A    between atoms: C_1  and  C_2
REMARK    2  A    between atoms: C_6  and  C_7
REMARK    3  A    between atoms: C_13  and  C_15
REMARK                            x       y       z     vdW  Elec       q    Type
REMARK                         _______ _______ _______ _____ _____    ______ ____
ROOT
ATOM      1  C   UNL     1       4.187   3.914  18.370  0.00  0.00    +0.000 C 
ATOM      2  C   UNL     1       3.553   2.623  17.749  0.00  0.00    +0.000 C 
ATOM      3  O   UNL     1       2.310   2.267  18.376  0.00  0.00    +0.000 OA
ATOM      4  C   UNL     1       1.370   3.322  18.202  0.00  0.00    +0.000 C 
ATOM      5  C   UNL     1       1.893   4.592  18.847  0.00  0.00    +0.000 C 
ATOM      6  N   UNL     1       3.199   5.041  18.340  0.00  0.00    +0.000 N 
ATOM      7  C   UNL     1       3.541   6.422  18.304  0.00  0.00    +0.000 C 
ATOM      8  O   UNL     1       4.532   6.862  17.722  0.00  0.00    +0.000 OA
ENDROOT
BRANCH   7   9
ATOM      9  C   UNL     1       2.618   7.447  18.910  0.00  0.00    +0.000 A 
ATOM     10  C   UNL     1       2.266   7.373  20.259  0.00  0.00    +0.000 A 
ATOM     11  C   UNL     1       1.212   8.098  20.819  0.00  0.00    +0.000 A 
ATOM     12  C   UNL     1       0.648   9.048  19.993  0.00  0.00    +0.000 A 
ATOM     13  N   UNL     1      -0.392   9.921  20.147  0.00  0.00    +0.000 N 
ATOM     14  N   UNL     1      -0.514  10.741  19.099  0.00  0.00    +0.000 NA
ATOM     15  N   UNL     1       0.394  10.373  18.199  0.00  0.00    +0.000 NA
ATOM     16  C   UNL     1       1.105   9.307  18.697  0.00  0.00    +0.000 A 
ATOM     17  C   UNL     1       2.093   8.500  18.127  0.00  0.00    +0.000 A 
ATOM     18  H   UNL     1      -1.055   9.988  20.914  0.00  0.00    +0.000 HD
ENDBRANCH   7   9
BRANCH   1  24
ATOM     19  C   UNL     1       5.122   4.323  15.208  0.00  0.00    +0.000 C 
ATOM     20  C   UNL     1       5.932   4.331  16.452  0.00  0.00    +0.000 A 
ATOM     21  C   UNL     1       7.326   4.551  16.547  0.00  0.00    +0.000 A 
ATOM     22  N   UNL     1       7.766   4.536  17.805  0.00  0.00    +0.000 NA
ATOM     23  N   UNL     1       6.665   4.257  18.521  0.00  0.00    +0.000 N 
ATOM     24  C   UNL     1       5.529   4.140  17.770  0.00  0.00    +0.000 A 
ATOM     25  H   UNL     1       6.758   4.081  19.515  0.00  0.00    +0.000 HD
ENDBRANCH   1  24
TORSDOF 2
ENDMDL
MODEL 4
REMARK VINA RESULT:      -8.2      1.609      3.018
REMARK  Name = 
REMARK  3 active torsions:
REMARK  status: ('A' for Active; 'I' for Inactive)
REMARK    1  A    between atoms: C_1  and  C_2
REMARK    2  A    between atoms: C_6  and  C_7
REMARK    3  A    between atoms: C_13  and  C_15
REMARK                            x       y       z     vdW  Elec       q    Type
REMARK                         _______ _______ _______ _____ _____    ______ ____
ROOT
ATOM      1  C   UNL     1       4.689   4.627  17.755  0.00  0.00    +0.000 C 
ATOM      2  C   UNL     1       6.206   4.709  17.376  0.00  0.00    +0.000 C 
ATOM      3  O   UNL     1       6.484   5.775  16.453  0.00  0.00    +0.000 OA
ATOM      4  C   UNL     1       6.131   7.021  17.045  0.00  0.00    +0.000 C 
ATOM      5  C   UNL     1       4.649   7.036  17.373  0.00  0.00    +0.000 C 
ATOM      6  N   UNL     1       4.211   5.953  18.267  0.00  0.00    +0.000 N 
ATOM      7  C   UNL     1       3.123   6.134  19.166  0.00  0.00    +0.000 C 
ATOM      8  O   UNL     1       2.839   5.336  20.059  0.00  0.00    +0.000 OA
ENDROOT
BRANCH   7   9
ATOM      9  C   UNL     1       2.311   7.402  19.127  0.00  0.00    +0.000 A 
ATOM     10  C   UNL     1       2.097   8.069  17.919  0.00  0.00    +0.000 A 
ATOM     11  C   UNL     1       1.611   9.375  17.838  0.00  0.00    +0.000 A 
ATOM     12  C   UNL     1       1.168   9.913  19.028  0.00  0.00    +0.000 A 
ATOM     13  N   UNL     1       0.662  11.135  19.370  0.00  0.00    +0.000 N 
ATOM     14  N   UNL     1       0.263  11.170  20.645  0.00  0.00    +0.000 NA
ATOM     15  N   UNL     1       0.571   9.996  21.191  0.00  0.00    +0.000 NA
ATOM     16  C   UNL     1       1.166   9.207  20.236  0.00  0.00    +0.000 A 
ATOM     17  C   UNL     1       1.751   7.939  20.308  0.00  0.00    +0.000 A 
ATOM     18  H   UNL     1       0.588  11.972  18.800  0.00  0.00    +0.000 HD
ENDBRANCH   7   9
BRANCH   1  24
ATOM     19  C   UNL     1       2.401   2.226  17.548  0.00  0.00    +0.000 C 
ATOM     20  C   UNL     1       3.516   2.403  18.513  0.00  0.00    +0.000 A 
ATOM     21  C   UNL     1       3.860   1.529  19.571  0.00  0.00    +0.000 A 
ATOM     22  N   UNL     1       4.935   1.935  20.245  0.00  0.00    +0.000 NA
ATOM     23  N   UNL     1       5.258   3.097  19.655  0.00  0.00    +0.000 N 
ATOM     24  C   UNL     1       4.456   3.424  18.598  0.00  0.00    +0.000 A 
ATOM     25  H   UNL     1       5.991   3.666  20.064  0.00  0.00    +0.000 HD
ENDBRANCH   1  24
TORSDOF 2
ENDMDL
MODEL 5
REMARK VINA RESULT:      -8.1      1.299      1.955
REMARK  Name = 
REMARK  3 active torsions:
REMARK  status: ('A' for Active; 'I' for Inactive)
REMARK    1  A    between atoms: C_1  and  C_2
REMARK    2  A    between atoms: C_6  and  C_7
REMARK    3  A    between atoms: C_13  and  C_15
REMARK                            x       y       z     vdW  Elec       q    Type
REMARK                         _______ _______ _______ _____ _____    ______ ____
ROOT
ATOM      1  C   UNL     1       4.149   4.082  18.008  0.00  0.00    +0.000 C 
ATOM      2  C   UNL     1       3.487   2.696  17.709  0.00  0.00    +0.000 C 
ATOM      3  O   UNL     1       2.514   2.327  18.701  0.00  0.00    +0.000 OA
ATOM      4  C   UNL     1       1.469   3.295  18.725  0.00  0.00    +0.000 C 
ATOM      5  C   UNL     1       2.036   4.657  19.081  0.00  0.00    +0.000 C 
ATOM      6  N   UNL     1       3.094   5.134  18.177  0.00  0.00    +0.000 N 
ATOM      7  C   UNL     1       3.282   6.523  17.929  0.00  0.00    +0.000 C 
ATOM      8  O   UNL     1       4.020   6.962  17.047  0.00  0.00    +0.000 OA
ENDROOT
BRANCH   7   9
ATOM      9  C   UNL     1       2.480   7.544  18.693  0.00  0.00    +0.000 A 
ATOM     10  C   UNL     1       2.282   7.404  20.068  0.00  0.00    +0.000 A 
ATOM     11  C   UNL     1       1.332   8.133  20.786  0.00  0.00    +0.000 A 
ATOM     12  C   UNL     1       0.719   9.151  20.084  0.00  0.00    +0.000 A 
ATOM     13  N   UNL     1      -0.256  10.051  20.406  0.00  0.00    +0.000 N 
ATOM     14  N   UNL     1      -0.462  10.936  19.425  0.00  0.00    +0.000 NA
ATOM     15  N   UNL     1       0.320  10.588  18.406  0.00  0.00    +0.000 NA
ATOM     16  C   UNL     1       1.036   9.469  18.759  0.00  0.00    +0.000 A 
ATOM     17  C   UNL     1       1.916   8.660  18.035  0.00  0.00    +0.000 A 
ATOM     18  H   UNL     1      -0.824  10.097  21.247  0.00  0.00    +0.000 HD
ENDBRANCH   7   9
BRANCH   1  24
ATOM     19  C   UNL     1       7.321   4.975  18.437  0.00  0.00    +0.000 C 
ATOM     20  C   UNL     1       6.571   4.686  17.189  0.00  0.00    +0.000 A 
ATOM     21  C   UNL     1       7.087   4.709  15.873  0.00  0.00    +0.000 A 
ATOM     22  N   UNL     1       6.180   4.368  14.957  0.00  0.00    +0.000 NA
ATOM     23  N   UNL     1       5.064   4.173  15.677  0.00  0.00    +0.000 N 
ATOM     24  C   UNL     1       5.236   4.331  17.023  0.00  0.00    +0.000 A 
ATOM     25  H   UNL     1       4.190   4.008  15.190  0.00  0.00    +0.000 HD
ENDBRANCH   1  24
TORSDOF 2
ENDMDL
MODEL 6
REMARK VINA RESULT:      -8.0      2.743      6.696
REMARK  Name = 
REMARK  3 active torsions:
REMARK  status: ('A' for Active; 'I' for Inactive)
REMARK    1  A    between atoms: C_1  and  C_2
REMARK    2  A    between atoms: C_6  and  C_7
REMARK    3  A    between atoms: C_13  and  C_15
REMARK                            x       y       z     vdW  Elec       q    Type
REMARK                         _______ _______ _______ _____ _____    ______ ____
ROOT
ATOM      1  C   UNL     1       2.668   5.494  20.091  0.00  0.00    +0.000 C 
ATOM      2  C   UNL     1       1.540   6.579  20.047  0.00  0.00    +0.000 C 
ATOM      3  O   UNL     1       2.015   7.846  19.564  0.00  0.00    +0.000 OA
ATOM      4  C   UNL     1       2.505   7.696  18.236  0.00  0.00    +0.000 C 
ATOM      5  C   UNL     1       3.655   6.706  18.219  0.00  0.00    +0.000 C 
ATOM      6  N   UNL     1       3.323   5.374  18.748  0.00  0.00    +0.000 N 
ATOM      7  C   UNL     1       3.968   4.204  18.259  0.00  0.00    +0.000 C 
ATOM      8  O   UNL     1       3.598   3.060  18.528  0.00  0.00    +0.000 OA
ENDROOT
BRANCH   7   9
ATOM      9  C   UNL     1       5.104   4.320  17.277  0.00  0.00    +0.000 A 
ATOM     10  C   UNL     1       6.376   4.705  17.707  0.00  0.00    +0.000 A 
ATOM     11  C   UNL     1       7.392   5.107  16.838  0.00  0.00    +0.000 A 
ATOM     12  C   UNL     1       7.127   4.920  15.497  0.00  0.00    +0.000 A 
ATOM     13  N   UNL     1       7.828   5.200  14.359  0.00  0.00    +0.000 N 
ATOM     14  N   UNL     1       7.212   4.737  13.267  0.00  0.00    +0.000 NA
ATOM     15  N   UNL     1       6.054   4.211  13.657  0.00  0.00    +0.000 NA
ATOM     16  C   UNL     1       5.946   4.340  15.022  0.00  0.00    +0.000 A 
ATOM     17  C   UNL     1       4.907   4.040  15.906  0.00  0.00    +0.000 A 
ATOM     18  H   UNL     1       8.699   5.714  14.261  0.00  0.00    +0.000 HD
ENDBRANCH   7   9
BRANCH   1  24
ATOM     19  C   UNL     1       0.405   3.299  19.042  0.00  0.00    +0.000 C 
ATOM     20  C   UNL     1       1.206   3.322  20.293  0.00  0.00    +0.000 A 
ATOM     21  C   UNL     1       1.184   2.355  21.324  0.00  0.00    +0.000 A 
ATOM     22  N   UNL     1       2.042   2.628  22.306  0.00  0.00    +0.000 NA
ATOM     23  N   UNL     1       2.584   3.799  21.934  0.00  0.00    +0.000 N 
ATOM     24  C   UNL     1       2.138   4.258  20.727  0.00  0.00    +0.000 A 
ATOM     25  H   UNL     1       3.200   4.280  22.580  0.00  0.00    +0.000 HD
ENDBRANCH   1  24
TORSDOF 2
ENDMDL
MODEL 7
REMARK VINA RESULT:      -7.9      1.654      1.980
REMARK  Name = 
REMARK  3 active torsions:
REMARK  status: ('A' for Active; 'I' for Inactive)
REMARK    1  A    between atoms: C_1  and  C_2
REMARK    2  A    between atoms: C_6  and  C_7
REMARK    3  A    between atoms: C_13  and  C_15
REMARK                            x       y       z     vdW  Elec       q    Type
REMARK                         _______ _______ _______ _____ _____    ______ ____
ROOT
ATOM      1  C   UNL     1       3.924   4.819  19.401  0.00  0.00    +0.000 C 
ATOM      2  C   UNL     1       3.449   3.329  19.487  0.00  0.00    +0.000 C 
ATOM      3  O   UNL     1       2.649   3.075  20.654  0.00  0.00    +0.000 OA
ATOM      4  C   UNL     1       1.479   3.887  20.614  0.00  0.00    +0.000 C 
ATOM      5  C   UNL     1       1.869   5.353  20.600  0.00  0.00    +0.000 C 
ATOM      6  N   UNL     1       2.746   5.742  19.486  0.00  0.00    +0.000 N 
ATOM      7  C   UNL     1       2.698   7.052  18.932  0.00  0.00    +0.000 C 
ATOM      8  O   UNL     1       3.267   7.371  17.887  0.00  0.00    +0.000 OA
ENDROOT
BRANCH   7   9
ATOM      9  C   UNL     1       1.834   8.111  19.566  0.00  0.00    +0.000 A 
ATOM     10  C   UNL     1       1.261   9.118  18.786  0.00  0.00    +0.000 A 
ATOM     11  C   UNL     1       0.696  10.277  19.321  0.00  0.00    +0.000 A 
ATOM     12  C   UNL     1       0.563  10.286  20.694  0.00  0.00    +0.000 A 
ATOM     13  N   UNL     1       0.098  11.215  21.580  0.00  0.00    +0.000 N 
ATOM     14  N   UNL     1       0.059  10.738  22.828  0.00  0.00    +0.000 NA
ATOM     15  N   UNL     1       0.571   9.510  22.800  0.00  0.00    +0.000 NA
ATOM     16  C   UNL     1       0.930   9.210  21.508  0.00  0.00    +0.000 A 
ATOM     17  C   UNL     1       1.585   8.105  20.956  0.00  0.00    +0.000 A 
ATOM     18  H   UNL     1      -0.177  12.177  21.405  0.00  0.00    +0.000 HD
ENDBRANCH   7   9
BRANCH   1  24
ATOM     19  C   UNL     1       7.144   5.629  19.294  0.00  0.00    +0.000 C 
ATOM     20  C   UNL     1       6.207   5.293  18.192  0.00  0.00    +0.000 A 
ATOM     21  C   UNL     1       6.519   5.220  16.815  0.00  0.00    +0.000 A 
ATOM     22  N   UNL     1       5.476   4.857  16.069  0.00  0.00    +0.000 NA
ATOM     23  N   UNL     1       4.477   4.741  16.958  0.00  0.00    +0.000 N 
ATOM     24  C   UNL     1       4.855   4.972  18.251  0.00  0.00    +0.000 A 
ATOM     25  H   UNL     1       3.536   4.577  16.618  0.00  0.00    +0.000 HD
ENDBRANCH   1  24
TORSDOF 2
ENDMDL
MODEL 8
REMARK VINA RESULT:      -7.9      1.467      2.142
REMARK  Name = 
REMARK  3 active torsions:
REMARK  status: ('A' for Active; 'I' for Inactive)
REMARK    1  A    between atoms: C_1  and  C_2
REMARK    2  A    between atoms: C_6  and  C_7
REMARK    3  A    between atoms: C_13  and  C_15
REMARK                            x       y       z     vdW  Elec       q    Type
REMARK                         _______ _______ _______ _____ _____    ______ ____
ROOT
ATOM      1  C   UNL     1       4.062   4.248  19.244  0.00  0.00    +0.000 C 
ATOM      2  C   UNL     1       3.466   2.800  19.259  0.00  0.00    +0.000 C 
ATOM      3  O   UNL     1       2.532   2.602  20.334  0.00  0.00    +0.000 OA
ATOM      4  C   UNL     1       1.440   3.505  20.187  0.00  0.00    +0.000 C 
ATOM      5  C   UNL     1       1.942   4.935  20.236  0.00  0.00    +0.000 C 
ATOM      6  N   UNL     1       2.957   5.262  19.223  0.00  0.00    +0.000 N 
ATOM      7  C   UNL     1       3.069   6.575  18.686  0.00  0.00    +0.000 C 
ATOM      8  O   UNL     1       3.767   6.855  17.711  0.00  0.00    +0.000 OA
ENDROOT
BRANCH   7   9
ATOM      9  C   UNL     1       2.230   7.695  19.245  0.00  0.00    +0.000 A 
ATOM     10  C   UNL     1       1.879   7.711  20.596  0.00  0.00    +0.000 A 
ATOM     11  C   UNL     1       0.887   8.539  21.123  0.00  0.00    +0.000 A 
ATOM     12  C   UNL     1       0.394   9.492  20.255  0.00  0.00    +0.000 A 
ATOM     13  N   UNL     1      -0.574  10.448  20.369  0.00  0.00    +0.000 N 
ATOM     14  N   UNL     1      -0.637  11.226  19.285  0.00  0.00    +0.000 NA
ATOM     15  N   UNL     1       0.236  10.749  18.402  0.00  0.00    +0.000 NA
ATOM     16  C   UNL     1       0.865   9.655  18.948  0.00  0.00    +0.000 A 
ATOM     17  C   UNL     1       1.785   8.748  18.415  0.00  0.00    +0.000 A 
ATOM     18  H   UNL     1      -1.227  10.601  21.133  0.00  0.00    +0.000 HD
ENDBRANCH   7   9
BRANCH   1  24
ATOM     19  C   UNL     1       7.110   5.569  19.323  0.00  0.00    +0.000 C 
ATOM     20  C   UNL     1       6.400   4.868  18.222  0.00  0.00    +0.000 A 
ATOM     21  C   UNL     1       6.914   4.586  16.936  0.00  0.00    +0.000 A 
ATOM     22  N   UNL     1       6.055   3.909  16.174  0.00  0.00    +0.000 NA
ATOM     23  N   UNL     1       4.966   3.797  16.951  0.00  0.00    +0.000 N 
ATOM     24  C   UNL     1       5.116   4.335  18.198  0.00  0.00    +0.000 A 
ATOM     25  H   UNL     1       4.118   3.409  16.553  0.00  0.00    +0.000 HD
ENDBRANCH   1  24
TORSDOF 2
ENDMDL
MODEL 9
REMARK VINA RESULT:      -7.9      3.798      4.821
REMARK  Name = 
REMARK  3 active torsions:
REMARK  status: ('A' for Active; 'I' for Inactive)
REMARK    1  A    between atoms: C_1  and  C_2
REMARK    2  A    between atoms: C_6  and  C_7
REMARK    3  A    between atoms: C_13  and  C_15
REMARK                            x       y       z     vdW  Elec       q    Type
REMARK                         _______ _______ _______ _____ _____    ______ ____
ROOT
ATOM      1  C   UNL     1       6.803   5.238  16.862  0.00  0.00    +0.000 C 
ATOM      2  C   UNL     1       7.008   5.210  15.310  0.00  0.00    +0.000 C 
ATOM      3  O   UNL     1       6.599   3.963  14.725  0.00  0.00    +0.000 OA
ATOM      4  C   UNL     1       5.211   3.755  14.969  0.00  0.00    +0.000 C 
ATOM      5  C   UNL     1       4.953   3.700  16.463  0.00  0.00    +0.000 C 
ATOM      6  N   UNL     1       5.383   4.896  17.202  0.00  0.00    +0.000 N 
ATOM      7  C   UNL     1       4.704   5.322  18.379  0.00  0.00    +0.000 C 
ATOM      8  O   UNL     1       4.901   6.408  18.923  0.00  0.00    +0.000 OA
ENDROOT
BRANCH   7   9
ATOM      9  C   UNL     1       3.604   4.476  18.965  0.00  0.00    +0.000 A 
ATOM     10  C   UNL     1       2.398   4.308  18.282  0.00  0.00    +0.000 A 
ATOM     11  C   UNL     1       1.246   3.788  18.873  0.00  0.00    +0.000 A 
ATOM     12  C   UNL     1       1.419   3.264  20.137  0.00  0.00    +0.000 A 
ATOM     13  N   UNL     1       0.561   2.703  21.040  0.00  0.00    +0.000 N 
ATOM     14  N   UNL     1       1.206   2.233  22.113  0.00  0.00    +0.000 NA
ATOM     15  N   UNL     1       2.491   2.545  21.974  0.00  0.00    +0.000 NA
ATOM     16  C   UNL     1       2.657   3.217  20.786  0.00  0.00    +0.000 A 
ATOM     17  C   UNL     1       3.772   3.835  20.213  0.00  0.00    +0.000 A 
ATOM     18  H   UNL     1      -0.451   2.635  20.996  0.00  0.00    +0.000 HD
ENDBRANCH   7   9
BRANCH   1  24
ATOM     19  C   UNL     1       8.348   5.863  19.737  0.00  0.00    +0.000 C 
ATOM     20  C   UNL     1       8.037   6.770  18.603  0.00  0.00    +0.000 A 
ATOM     21  C   UNL     1       8.377   8.139  18.502  0.00  0.00    +0.000 A 
ATOM     22  N   UNL     1       7.996   8.681  17.346  0.00  0.00    +0.000 NA
ATOM     23  N   UNL     1       7.367   7.675  16.718  0.00  0.00    +0.000 N 
ATOM     24  C   UNL     1       7.373   6.498  17.411  0.00  0.00    +0.000 A 
ATOM     25  H   UNL     1       6.883   7.868  15.848  0.00  0.00    +0.000 HD
ENDBRANCH   1  24
TORSDOF 2
ENDMDL
