MODEL 1
REMARK VINA RESULT:      -8.1      0.000      0.000
REMARK  Name = 
REMARK  12 active torsions:
REMARK  status: ('A' for Active; 'I' for Inactive)
REMARK    1  A    between atoms: C_1  and  O_2
REMARK    2  A    between atoms: O_2  and  C_3
REMARK    3  A    between atoms: C_8  and  N_9
REMARK    4  A    between atoms: C_10  and  C_12
REMARK    5  A    between atoms: C_12  and  C_13
REMARK    6  A    between atoms: C_13  and  C_14
REMARK    7  A    between atoms: C_14  and  C_15
REMARK    8  A    between atoms: C_14  and  C_16
REMARK    9  A    between atoms: C_21  and  O_22
REMARK   10  A    between atoms: C_26  and  O_27
REMARK   11  A    between atoms: C_30  and  C_31
REMARK   12  A    between atoms: C_35  and  C_36
REMARK                            x       y       z     vdW  Elec       q    Type
REMARK                         _______ _______ _______ _____ _____    ______ ____
ROOT
ATOM      1  C   UNL     1      -0.031  11.470  18.634  0.00  0.00    +0.000 C 
ATOM      2  C   UNL     1      -1.132  10.723  17.830  0.00  0.00    +0.000 C 
ATOM      3  C   UNL     1      -2.487  11.057  18.478  0.00  0.00    +0.000 C 
ATOM      4  C   UNL     1      -2.174  12.154  19.491  0.00  0.00    +0.000 C 
ATOM      5  C   UNL     1      -3.152  12.403  20.663  0.00  0.00    +0.000 C 
ATOM      6  C   UNL     1      -4.585  12.770  20.222  0.00  0.00    +0.000 C 
ATOM      7  C   UNL     1      -5.498  13.025  21.428  0.00  0.00    +0.000 C 
ATOM      8  C   UNL     1      -4.954  14.072  22.415  0.00  0.00    +0.000 C 
ATOM      9  C   UNL     1      -5.121  15.488  21.829  0.00  0.00    +0.000 C 
ATOM     10  C   UNL     1      -4.570  16.571  22.753  0.00  0.00    +0.000 C 
ATOM     11  C   UNL     1      -3.112  16.307  23.106  0.00  0.00    +0.000 C 
ATOM     12  C   UNL     1      -2.968  14.934  23.750  0.00  0.00    +0.000 C 
ATOM     13  C   UNL     1      -3.487  13.763  22.860  0.00  0.00    +0.000 C 
ATOM     14  C   UNL     1      -3.482  12.505  23.770  0.00  0.00    +0.000 C 
ATOM     15  C   UNL     1      -2.593  13.542  21.581  0.00  0.00    +0.000 C 
ATOM     16  C   UNL     1      -1.092  13.393  21.915  0.00  0.00    +0.000 C 
ATOM     17  C   UNL     1      -0.221  13.022  20.716  0.00  0.00    +0.000 C 
ATOM     18  C   UNL     1      -0.748  11.779  19.985  0.00  0.00    +0.000 C 
ATOM     19  C   UNL     1      -0.740  10.533  20.907  0.00  0.00    +0.000 C 
ENDROOT
BRANCH   1  20
ATOM     20  C   UNL     1       1.329  10.696  18.669  0.00  0.00    +0.000 C 
ATOM     21  C   UNL     1       2.468  11.474  17.998  0.00  0.00    +0.000 C 
BRANCH  20  22
ATOM     22  C   UNL     1       1.197   9.305  17.999  0.00  0.00    +0.000 C 
BRANCH  22  23
ATOM     23  C   UNL     1       2.525   8.532  17.868  0.00  0.00    +0.000 C 
BRANCH  23  25
ATOM     24  N   UNL     1       2.874   6.124  17.879  0.00  0.00    +0.000 N 
ATOM     25  C   UNL     1       2.471   7.216  18.630  0.00  0.00    +0.000 C 
ATOM     26  O   UNL     1       2.087   7.179  19.796  0.00  0.00    +0.000 OA
ATOM     27  H   UNL     1       3.392   6.274  17.022  0.00  0.00    +0.000 HD
BRANCH  24  33
ATOM     28  C   UNL     1       3.849   4.093  18.846  0.00  0.00    +0.000 A 
ATOM     29  C   UNL     1       3.732   2.740  19.195  0.00  0.00    +0.000 A 
ATOM     30  C   UNL     1       2.528   2.057  19.014  0.00  0.00    +0.000 A 
ATOM     31  C   UNL     1       1.438   2.716  18.465  0.00  0.00    +0.000 A 
ATOM     32  C   UNL     1       1.553   4.053  18.085  0.00  0.00    +0.000 A 
ATOM     33  C   UNL     1       2.746   4.762  18.272  0.00  0.00    +0.000 A 
BRANCH  28  35
ATOM     34  C   UNL     1       6.075   4.503  18.155  0.00  0.00    +0.000 C 
ATOM     35  O   UNL     1       5.001   4.825  19.042  0.00  0.00    +0.000 OA
ENDBRANCH  28  35
ENDBRANCH  24  33
ENDBRANCH  23  25
ENDBRANCH  22  23
ENDBRANCH  20  22
ENDBRANCH   1  20
BRANCH   6  36
ATOM     36  O   UNL     1      -5.172  11.728  19.448  0.00  0.00    +0.000 OA
ATOM     37  H   UNL     1      -5.745  11.204  20.033  0.00  0.00    +0.000 HD
ENDBRANCH   6  36
BRANCH  10  38
ATOM     38  O   UNL     1      -4.690  17.843  22.130  0.00  0.00    +0.000 OA
ATOM     39  H   UNL     1      -5.628  18.102  22.148  0.00  0.00    +0.000 HD
ENDBRANCH  10  38
TORSDOF 8
ENDMDL
MODEL 2
REMARK VINA RESULT:      -8.0      1.833      3.044
REMARK  Name = 
REMARK  12 active torsions:
REMARK  status: ('A' for Active; 'I' for Inactive)
REMARK    1  A    between atoms: C_1  and  O_2
REMARK    2  A    between atoms: O_2  and  C_3
REMARK    3  A    between atoms: C_8  and  N_9
REMARK    4  A    between atoms: C_10  and  C_12
REMARK    5  A    between atoms: C_12  and  C_13
REMARK    6  A    between atoms: C_13  and  C_14
REMARK    7  A    between atoms: C_14  and  C_15
REMARK    8  A    between atoms: C_14  and  C_16
REMARK    9  A    between atoms: C_21  and  O_22
REMARK   10  A    between atoms: C_26  and  O_27
REMARK   11  A    between atoms: C_30  and  C_31
REMARK   12  A    between atoms: C_35  and  C_36
REMARK                            x       y       z     vdW  Elec       q    Type
REMARK                         _______ _______ _______ _____ _____    ______ ____
ROOT
ATOM      1  C   UNL     1      -0.414  10.773  19.762  0.00  0.00    +0.000 C 
ATOM      2  C   UNL     1       0.593  11.176  20.875  0.00  0.00    +0.000 C 
ATOM      3  C   UNL     1      -0.145  12.106  21.855  0.00  0.00    +0.000 C 
ATOM      4  C   UNL     1      -1.606  12.047  21.421  0.00  0.00    +0.000 C 
ATOM      5  C   UNL     1      -2.563  13.193  21.825  0.00  0.00    +0.000 C 
ATOM      6  C   UNL     1      -2.686  13.403  23.349  0.00  0.00    +0.000 C 
ATOM      7  C   UNL     1      -3.664  14.537  23.684  0.00  0.00    +0.000 C 
ATOM      8  C   UNL     1      -5.055  14.373  23.050  0.00  0.00    +0.000 C 
ATOM      9  C   UNL     1      -5.855  13.290  23.801  0.00  0.00    +0.000 C 
ATOM     10  C   UNL     1      -7.237  13.060  23.197  0.00  0.00    +0.000 C 
ATOM     11  C   UNL     1      -7.142  12.722  21.714  0.00  0.00    +0.000 C 
ATOM     12  C   UNL     1      -6.413  13.831  20.968  0.00  0.00    +0.000 C 
ATOM     13  C   UNL     1      -4.978  14.116  21.508  0.00  0.00    +0.000 C 
ATOM     14  C   UNL     1      -4.507  15.413  20.797  0.00  0.00    +0.000 C 
ATOM     15  C   UNL     1      -3.986  12.924  21.230  0.00  0.00    +0.000 C 
ATOM     16  C   UNL     1      -3.969  12.488  19.747  0.00  0.00    +0.000 C 
ATOM     17  C   UNL     1      -2.906  11.443  19.417  0.00  0.00    +0.000 C 
ATOM     18  C   UNL     1      -1.508  11.879  19.878  0.00  0.00    +0.000 C 
ATOM     19  C   UNL     1      -1.054  13.177  19.161  0.00  0.00    +0.000 C 
ENDROOT
BRANCH   1  20
ATOM     20  C   UNL     1       0.273  10.543  18.374  0.00  0.00    +0.000 C 
ATOM     21  C   UNL     1      -0.536   9.610  17.464  0.00  0.00    +0.000 C 
BRANCH  20  22
ATOM     22  C   UNL     1       1.704   9.974  18.547  0.00  0.00    +0.000 C 
BRANCH  22  23
ATOM     23  C   UNL     1       1.899   8.556  17.973  0.00  0.00    +0.000 C 
BRANCH  23  25
ATOM     24  N   UNL     1       2.454   6.278  18.622  0.00  0.00    +0.000 N 
ATOM     25  C   UNL     1       2.128   7.542  19.084  0.00  0.00    +0.000 C 
ATOM     26  O   UNL     1       2.011   7.864  20.264  0.00  0.00    +0.000 OA
ATOM     27  H   UNL     1       2.759   6.162  17.663  0.00  0.00    +0.000 HD
BRANCH  24  33
ATOM     28  C   UNL     1       3.615   4.210  19.247  0.00  0.00    +0.000 A 
ATOM     29  C   UNL     1       3.671   3.035  20.010  0.00  0.00    +0.000 A 
ATOM     30  C   UNL     1       2.693   2.755  20.965  0.00  0.00    +0.000 A 
ATOM     31  C   UNL     1       1.640   3.639  21.151  0.00  0.00    +0.000 A 
ATOM     32  C   UNL     1       1.557   4.796  20.376  0.00  0.00    +0.000 A 
ATOM     33  C   UNL     1       2.536   5.104  19.423  0.00  0.00    +0.000 A 
BRANCH  28  35
ATOM     34  C   UNL     1       4.563   3.776  17.122  0.00  0.00    +0.000 C 
ATOM     35  O   UNL     1       4.577   4.555  18.321  0.00  0.00    +0.000 OA
ENDBRANCH  28  35
ENDBRANCH  24  33
ENDBRANCH  23  25
ENDBRANCH  22  23
ENDBRANCH  20  22
ENDBRANCH   1  20
BRANCH   6  36
ATOM     36  O   UNL     1      -1.428  13.731  23.931  0.00  0.00    +0.000 OA
ATOM     37  H   UNL     1      -1.567  14.457  24.562  0.00  0.00    +0.000 HD
ENDBRANCH   6  36
BRANCH  10  38
ATOM     38  O   UNL     1      -7.897  12.007  23.888  0.00  0.00    +0.000 OA
ATOM     39  H   UNL     1      -7.260  11.602  24.502  0.00  0.00    +0.000 HD
ENDBRANCH  10  38
TORSDOF 8
ENDMDL
MODEL 3
REMARK VINA RESULT:      -7.9      0.940      1.015
REMARK  Name = 
REMARK  12 active torsions:
REMARK  status: ('A' for Active; 'I' for Inactive)
REMARK    1  A    between atoms: C_1  and  O_2
REMARK    2  A    between atoms: O_2  and  C_3
REMARK    3  A    between atoms: C_8  and  N_9
REMARK    4  A    between atoms: C_10  and  C_12
REMARK    5  A    between atoms: C_12  and  C_13
REMARK    6  A    between atoms: C_13  and  C_14
REMARK    7  A    between atoms: C_14  and  C_15
REMARK    8  A    between atoms: C_14  and  C_16
REMARK    9  A    between atoms: C_21  and  O_22
REMARK   10  A    between atoms: C_26  and  O_27
REMARK   11  A    between atoms: C_30  and  C_31
REMARK   12  A    between atoms: C_35  and  C_36
REMARK                            x       y       z     vdW  Elec       q    Type
REMARK                         _______ _______ _______ _____ _____    ______ ____
ROOT
ATOM      1  C   UNL     1      -0.226  11.080  18.240  0.00  0.00    +0.000 C 
ATOM      2  C   UNL     1      -1.227  10.078  17.596  0.00  0.00    +0.000 C 
ATOM      3  C   UNL     1      -2.634  10.432  18.110  0.00  0.00    +0.000 C 
ATOM      4  C   UNL     1      -2.455  11.751  18.855  0.00  0.00    +0.000 C 
ATOM      5  C   UNL     1      -3.505  12.174  19.909  0.00  0.00    +0.000 C 
ATOM      6  C   UNL     1      -4.938  12.307  19.354  0.00  0.00    +0.000 C 
ATOM      7  C   UNL     1      -5.926  12.748  20.442  0.00  0.00    +0.000 C 
ATOM      8  C   UNL     1      -5.513  14.033  21.179  0.00  0.00    +0.000 C 
ATOM      9  C   UNL     1      -5.759  15.262  20.280  0.00  0.00    +0.000 C 
ATOM     10  C   UNL     1      -5.339  16.568  20.948  0.00  0.00    +0.000 C 
ATOM     11  C   UNL     1      -3.883  16.516  21.395  0.00  0.00    +0.000 C 
ATOM     12  C   UNL     1      -3.665  15.341  22.339  0.00  0.00    +0.000 C 
ATOM     13  C   UNL     1      -4.049  13.960  21.726  0.00  0.00    +0.000 C 
ATOM     14  C   UNL     1      -3.992  12.944  22.899  0.00  0.00    +0.000 C 
ATOM     15  C   UNL     1      -3.080  13.534  20.559  0.00  0.00    +0.000 C 
ATOM     16  C   UNL     1      -1.589  13.594  20.961  0.00  0.00    +0.000 C 
ATOM     17  C   UNL     1      -0.636  13.038  19.905  0.00  0.00    +0.000 C 
ATOM     18  C   UNL     1      -1.030  11.622  19.462  0.00  0.00    +0.000 C 
ATOM     19  C   UNL     1      -0.970  10.622  20.645  0.00  0.00    +0.000 C 
ENDROOT
BRANCH   1  20
ATOM     20  C   UNL     1       1.185  10.452  18.492  0.00  0.00    +0.000 C 
ATOM     21  C   UNL     1       2.328  11.390  18.080  0.00  0.00    +0.000 C 
BRANCH  20  22
ATOM     22  C   UNL     1       1.338   9.103  17.746  0.00  0.00    +0.000 C 
BRANCH  22  23
ATOM     23  C   UNL     1       2.741   8.471  17.854  0.00  0.00    +0.000 C 
BRANCH  23  25
ATOM     24  N   UNL     1       2.921   6.050  17.697  0.00  0.00    +0.000 N 
ATOM     25  C   UNL     1       2.680   7.118  18.546  0.00  0.00    +0.000 C 
ATOM     26  O   UNL     1       2.427   7.035  19.745  0.00  0.00    +0.000 OA
ATOM     27  H   UNL     1       3.349   6.217  16.795  0.00  0.00    +0.000 HD
BRANCH  24  33
ATOM     28  C   UNL     1       3.872   3.841  18.179  0.00  0.00    +0.000 A 
ATOM     29  C   UNL     1       3.691   2.481  18.467  0.00  0.00    +0.000 A 
ATOM     30  C   UNL     1       2.413   1.951  18.644  0.00  0.00    +0.000 A 
ATOM     31  C   UNL     1       1.302   2.773  18.515  0.00  0.00    +0.000 A 
ATOM     32  C   UNL     1       1.468   4.121  18.197  0.00  0.00    +0.000 A 
ATOM     33  C   UNL     1       2.743   4.676  18.031  0.00  0.00    +0.000 A 
BRANCH  28  35
ATOM     34  C   UNL     1       5.690   4.913  19.249  0.00  0.00    +0.000 C 
ATOM     35  O   UNL     1       5.113   4.423  18.036  0.00  0.00    +0.000 OA
ENDBRANCH  28  35
ENDBRANCH  24  33
ENDBRANCH  23  25
ENDBRANCH  22  23
ENDBRANCH  20  22
ENDBRANCH   1  20
BRANCH   6  36
ATOM     36  O   UNL     1      -5.405  11.071  18.822  0.00  0.00    +0.000 OA
ATOM     37  H   UNL     1      -6.292  10.902  19.184  0.00  0.00    +0.000 HD
ENDBRANCH   6  36
BRANCH  10  38
ATOM     38  O   UNL     1      -5.526  17.652  20.047  0.00  0.00    +0.000 OA
ATOM     39  H   UNL     1      -6.313  17.464  19.506  0.00  0.00    +0.000 HD
ENDBRANCH  10  38
TORSDOF 8
ENDMDL
MODEL 4
REMARK VINA RESULT:      -7.9      1.409      2.065
REMARK  Name = 
REMARK  12 active torsions:
REMARK  status: ('A' for Active; 'I' for Inactive)
REMARK    1  A    between atoms: C_1  and  O_2
REMARK    2  A    between atoms: O_2  and  C_3
REMARK    3  A    between atoms: C_8  and  N_9
REMARK    4  A    between atoms: C_10  and  C_12
REMARK    5  A    between atoms: C_12  and  C_13
REMARK    6  A    between atoms: C_13  and  C_14
REMARK    7  A    between atoms: C_14  and  C_15
REMARK    8  A    between atoms: C_14  and  C_16
REMARK    9  A    between atoms: C_21  and  O_22
REMARK   10  A    between atoms: C_26  and  O_27
REMARK   11  A    between atoms: C_30  and  C_31
REMARK   12  A    between atoms: C_35  and  C_36
REMARK                            x       y       z     vdW  Elec       q    Type
REMARK                         _______ _______ _______ _____ _____    ______ ____
ROOT
ATOM      1  C   UNL     1      -0.422  12.341  19.369  0.00  0.00    +0.000 C 
ATOM      2  C   UNL     1      -1.505  11.736  18.432  0.00  0.00    +0.000 C 
ATOM      3  C   UNL     1      -2.869  11.916  19.121  0.00  0.00    +0.000 C 
ATOM      4  C   UNL     1      -2.582  12.809  20.324  0.00  0.00    +0.000 C 
ATOM      5  C   UNL     1      -3.567  12.815  21.516  0.00  0.00    +0.000 C 
ATOM      6  C   UNL     1      -5.006  13.229  21.143  0.00  0.00    +0.000 C 
ATOM      7  C   UNL     1      -5.928  13.236  22.369  0.00  0.00    +0.000 C 
ATOM      8  C   UNL     1      -5.409  14.089  23.538  0.00  0.00    +0.000 C 
ATOM      9  C   UNL     1      -5.602  15.587  23.227  0.00  0.00    +0.000 C 
ATOM     10  C   UNL     1      -5.077  16.488  24.341  0.00  0.00    +0.000 C 
ATOM     11  C   UNL     1      -3.614  16.191  24.648  0.00  0.00    +0.000 C 
ATOM     12  C   UNL     1      -3.444  14.724  25.024  0.00  0.00    +0.000 C 
ATOM     13  C   UNL     1      -3.936  13.731  23.927  0.00  0.00    +0.000 C 
ATOM     14  C   UNL     1      -3.908  12.325  24.584  0.00  0.00    +0.000 C 
ATOM     15  C   UNL     1      -3.034  13.772  22.635  0.00  0.00    +0.000 C 
ATOM     16  C   UNL     1      -1.531  13.593  22.944  0.00  0.00    +0.000 C 
ATOM     17  C   UNL     1      -0.650  13.470  21.703  0.00  0.00    +0.000 C 
ATOM     18  C   UNL     1      -1.150  12.377  20.748  0.00  0.00    +0.000 C 
ATOM     19  C   UNL     1      -1.118  10.980  21.421  0.00  0.00    +0.000 C 
ENDROOT
BRANCH   1  20
ATOM     20  C   UNL     1       0.953  11.600  19.267  0.00  0.00    +0.000 C 
ATOM     21  C   UNL     1       2.034  12.455  18.594  0.00  0.00    +0.000 C 
BRANCH  20  22
ATOM     22  C   UNL     1       0.810  10.261  18.500  0.00  0.00    +0.000 C 
BRANCH  22  23
ATOM     23  C   UNL     1       1.481   9.057  19.191  0.00  0.00    +0.000 C 
BRANCH  23  25
ATOM     24  N   UNL     1       2.467   6.899  18.653  0.00  0.00    +0.000 N 
ATOM     25  C   UNL     1       2.196   8.172  18.181  0.00  0.00    +0.000 C 
ATOM     26  O   UNL     1       2.492   8.600  17.068  0.00  0.00    +0.000 OA
ATOM     27  H   UNL     1       1.985   6.560  19.476  0.00  0.00    +0.000 HD
BRANCH  24  33
ATOM     28  C   UNL     1       2.795   4.625  17.794  0.00  0.00    +0.000 A 
ATOM     29  C   UNL     1       3.618   3.667  17.185  0.00  0.00    +0.000 A 
ATOM     30  C   UNL     1       4.899   4.000  16.745  0.00  0.00    +0.000 A 
ATOM     31  C   UNL     1       5.377   5.290  16.930  0.00  0.00    +0.000 A 
ATOM     32  C   UNL     1       4.579   6.243  17.563  0.00  0.00    +0.000 A 
ATOM     33  C   UNL     1       3.284   5.934  17.997  0.00  0.00    +0.000 A 
BRANCH  28  35
ATOM     34  C   UNL     1       1.235   2.983  18.480  0.00  0.00    +0.000 C 
ATOM     35  O   UNL     1       1.507   4.360  18.208  0.00  0.00    +0.000 OA
ENDBRANCH  28  35
ENDBRANCH  24  33
ENDBRANCH  23  25
ENDBRANCH  22  23
ENDBRANCH  20  22
ENDBRANCH   1  20
BRANCH   6  36
ATOM     36  O   UNL     1      -5.570  12.340  20.183  0.00  0.00    +0.000 OA
ATOM     37  H   UNL     1      -6.345  12.774  19.787  0.00  0.00    +0.000 HD
ENDBRANCH   6  36
BRANCH  10  38
ATOM     38  O   UNL     1      -5.220  17.852  23.967  0.00  0.00    +0.000 OA
ATOM     39  H   UNL     1      -5.599  17.882  23.071  0.00  0.00    +0.000 HD
ENDBRANCH  10  38
TORSDOF 8
ENDMDL
MODEL 5
REMARK VINA RESULT:      -7.6      8.223     10.154
REMARK  Name = 
REMARK  12 active torsions:
REMARK  status: ('A' for Active; 'I' for Inactive)
REMARK    1  A    between atoms: C_1  and  O_2
REMARK    2  A    between atoms: O_2  and  C_3
REMARK    3  A    between atoms: C_8  and  N_9
REMARK    4  A    between atoms: C_10  and  C_12
REMARK    5  A    between atoms: C_12  and  C_13
REMARK    6  A    between atoms: C_13  and  C_14
REMARK    7  A    between atoms: C_14  and  C_15
REMARK    8  A    between atoms: C_14  and  C_16
REMARK    9  A    between atoms: C_21  and  O_22
REMARK   10  A    between atoms: C_26  and  O_27
REMARK   11  A    between atoms: C_30  and  C_31
REMARK   12  A    between atoms: C_35  and  C_36
REMARK                            x       y       z     vdW  Elec       q    Type
REMARK                         _______ _______ _______ _____ _____    ______ ____
ROOT
ATOM      1  C   UNL     1      10.438  12.048  19.927  0.00  0.00    +0.000 C 
ATOM      2  C   UNL     1      11.308  13.300  19.622  0.00  0.00    +0.000 C 
ATOM      3  C   UNL     1      10.965  14.371  20.674  0.00  0.00    +0.000 C 
ATOM      4  C   UNL     1      10.080  13.651  21.687  0.00  0.00    +0.000 C 
ATOM      5  C   UNL     1       9.147  14.479  22.601  0.00  0.00    +0.000 C 
ATOM      6  C   UNL     1       9.883  15.508  23.486  0.00  0.00    +0.000 C 
ATOM      7  C   UNL     1       8.906  16.280  24.383  0.00  0.00    +0.000 C 
ATOM      8  C   UNL     1       8.000  15.382  25.241  0.00  0.00    +0.000 C 
ATOM      9  C   UNL     1       8.804  14.786  26.414  0.00  0.00    +0.000 C 
ATOM     10  C   UNL     1       7.963  13.859  27.288  0.00  0.00    +0.000 C 
ATOM     11  C   UNL     1       7.324  12.751  26.460  0.00  0.00    +0.000 C 
ATOM     12  C   UNL     1       6.474  13.350  25.347  0.00  0.00    +0.000 C 
ATOM     13  C   UNL     1       7.263  14.295  24.391  0.00  0.00    +0.000 C 
ATOM     14  C   UNL     1       6.196  14.983  23.497  0.00  0.00    +0.000 C 
ATOM     15  C   UNL     1       8.319  13.517  23.517  0.00  0.00    +0.000 C 
ATOM     16  C   UNL     1       7.708  12.313  22.765  0.00  0.00    +0.000 C 
ATOM     17  C   UNL     1       8.668  11.635  21.790  0.00  0.00    +0.000 C 
ATOM     18  C   UNL     1       9.294  12.636  20.810  0.00  0.00    +0.000 C 
ATOM     19  C   UNL     1       8.215  13.315  19.927  0.00  0.00    +0.000 C 
ENDROOT
BRANCH   1  20
ATOM     20  C   UNL     1      10.052  11.247  18.638  0.00  0.00    +0.000 C 
ATOM     21  C   UNL     1       9.435  12.139  17.553  0.00  0.00    +0.000 C 
BRANCH  20  22
ATOM     22  C   UNL     1       9.072  10.094  18.970  0.00  0.00    +0.000 C 
BRANCH  22  23
ATOM     23  C   UNL     1       8.263   9.579  17.762  0.00  0.00    +0.000 C 
BRANCH  23  25
ATOM     24  N   UNL     1       6.904   7.686  17.061  0.00  0.00    +0.000 N 
ATOM     25  C   UNL     1       7.886   8.115  17.939  0.00  0.00    +0.000 C 
ATOM     26  O   UNL     1       8.424   7.427  18.802  0.00  0.00    +0.000 OA
ATOM     27  H   UNL     1       6.693   8.241  16.241  0.00  0.00    +0.000 HD
BRANCH  24  33
ATOM     28  C   UNL     1       6.555   5.417  16.199  0.00  0.00    +0.000 A 
ATOM     29  C   UNL     1       5.864   4.198  16.241  0.00  0.00    +0.000 A 
ATOM     30  C   UNL     1       4.885   3.963  17.208  0.00  0.00    +0.000 A 
ATOM     31  C   UNL     1       4.577   4.954  18.130  0.00  0.00    +0.000 A 
ATOM     32  C   UNL     1       5.236   6.182  18.078  0.00  0.00    +0.000 A 
ATOM     33  C   UNL     1       6.232   6.432  17.126  0.00  0.00    +0.000 A 
BRANCH  28  35
ATOM     34  C   UNL     1       7.389   5.073  14.011  0.00  0.00    +0.000 C 
ATOM     35  O   UNL     1       7.558   5.684  15.292  0.00  0.00    +0.000 OA
ENDBRANCH  28  35
ENDBRANCH  24  33
ENDBRANCH  23  25
ENDBRANCH  22  23
ENDBRANCH  20  22
ENDBRANCH   1  20
BRANCH   6  36
ATOM     36  O   UNL     1      10.590  16.459  22.697  0.00  0.00    +0.000 OA
ATOM     37  H   UNL     1      10.212  17.338  22.872  0.00  0.00    +0.000 HD
ENDBRANCH   6  36
BRANCH  10  38
ATOM     38  O   UNL     1       8.774  13.289  28.307  0.00  0.00    +0.000 OA
ATOM     39  H   UNL     1       9.163  12.467  27.961  0.00  0.00    +0.000 HD
ENDBRANCH  10  38
TORSDOF 8
ENDMDL
MODEL 6
REMARK VINA RESULT:      -7.5      1.950      2.470
REMARK  Name = 
REMARK  12 active torsions:
REMARK  status: ('A' for Active; 'I' for Inactive)
REMARK    1  A    between atoms: C_1  and  O_2
REMARK    2  A    between atoms: O_2  and  C_3
REMARK    3  A    between atoms: C_8  and  N_9
REMARK    4  A    between atoms: C_10  and  C_12
REMARK    5  A    between atoms: C_12  and  C_13
REMARK    6  A    between atoms: C_13  and  C_14
REMARK    7  A    between atoms: C_14  and  C_15
REMARK    8  A    between atoms: C_14  and  C_16
REMARK    9  A    between atoms: C_21  and  O_22
REMARK   10  A    between atoms: C_26  and  O_27
REMARK   11  A    between atoms: C_30  and  C_31
REMARK   12  A    between atoms: C_35  and  C_36
REMARK                            x       y       z     vdW  Elec       q    Type
REMARK                         _______ _______ _______ _____ _____    ______ ____
ROOT
ATOM      1  C   UNL     1       0.023  10.807  18.078  0.00  0.00    +0.000 C 
ATOM      2  C   UNL     1      -0.900   9.723  17.452  0.00  0.00    +0.000 C 
ATOM      3  C   UNL     1      -2.343  10.033  17.890  0.00  0.00    +0.000 C 
ATOM      4  C   UNL     1      -2.259  11.398  18.567  0.00  0.00    +0.000 C 
ATOM      5  C   UNL     1      -3.371  11.823  19.554  0.00  0.00    +0.000 C 
ATOM      6  C   UNL     1      -4.785  11.854  18.937  0.00  0.00    +0.000 C 
ATOM      7  C   UNL     1      -5.837  12.303  19.959  0.00  0.00    +0.000 C 
ATOM      8  C   UNL     1      -5.517  13.645  20.640  0.00  0.00    +0.000 C 
ATOM      9  C   UNL     1      -5.784  14.809  19.665  0.00  0.00    +0.000 C 
ATOM     10  C   UNL     1      -5.456  16.169  20.275  0.00  0.00    +0.000 C 
ATOM     11  C   UNL     1      -4.019  16.214  20.781  0.00  0.00    +0.000 C 
ATOM     12  C   UNL     1      -3.785  15.103  21.797  0.00  0.00    +0.000 C 
ATOM     13  C   UNL     1      -4.076  13.674  21.247  0.00  0.00    +0.000 C 
ATOM     14  C   UNL     1      -4.019  12.726  22.475  0.00  0.00    +0.000 C 
ATOM     15  C   UNL     1      -3.040  13.235  20.144  0.00  0.00    +0.000 C 
ATOM     16  C   UNL     1      -1.572  13.391  20.600  0.00  0.00    +0.000 C 
ATOM     17  C   UNL     1      -0.549  12.829  19.615  0.00  0.00    +0.000 C 
ATOM     18  C   UNL     1      -0.856  11.373  19.236  0.00  0.00    +0.000 C 
ATOM     19  C   UNL     1      -0.799  10.441  20.474  0.00  0.00    +0.000 C 
ENDROOT
BRANCH   1  20
ATOM     20  C   UNL     1       1.451  10.265  18.419  0.00  0.00    +0.000 C 
ATOM     21  C   UNL     1       2.567  11.176  17.893  0.00  0.00    +0.000 C 
BRANCH  20  22
ATOM     22  C   UNL     1       1.654   8.834  17.861  0.00  0.00    +0.000 C 
BRANCH  22  23
ATOM     23  C   UNL     1       2.132   7.805  18.905  0.00  0.00    +0.000 C 
BRANCH  23  25
ATOM     24  N   UNL     1       4.217   7.049  17.905  0.00  0.00    +0.000 N 
ATOM     25  C   UNL     1       2.925   6.685  18.249  0.00  0.00    +0.000 C 
ATOM     26  O   UNL     1       2.417   5.584  18.054  0.00  0.00    +0.000 OA
ATOM     27  H   UNL     1       4.624   7.883  18.310  0.00  0.00    +0.000 HD
BRANCH  24  33
ATOM     28  C   UNL     1       6.209   5.630  17.728  0.00  0.00    +0.000 A 
ATOM     29  C   UNL     1       7.109   4.897  16.941  0.00  0.00    +0.000 A 
ATOM     30  C   UNL     1       6.911   4.762  15.567  0.00  0.00    +0.000 A 
ATOM     31  C   UNL     1       5.822   5.376  14.964  0.00  0.00    +0.000 A 
ATOM     32  C   UNL     1       4.939   6.135  15.732  0.00  0.00    +0.000 A 
ATOM     33  C   UNL     1       5.110   6.270  17.115  0.00  0.00    +0.000 A 
BRANCH  28  35
ATOM     34  C   UNL     1       7.649   5.518  19.603  0.00  0.00    +0.000 C 
ATOM     35  O   UNL     1       6.335   5.760  19.095  0.00  0.00    +0.000 OA
ENDBRANCH  28  35
ENDBRANCH  24  33
ENDBRANCH  23  25
ENDBRANCH  22  23
ENDBRANCH  20  22
ENDBRANCH   1  20
BRANCH   6  36
ATOM     36  O   UNL     1      -5.170  10.570  18.456  0.00  0.00    +0.000 OA
ATOM     37  H   UNL     1      -4.802   9.899  19.056  0.00  0.00    +0.000 HD
ENDBRANCH   6  36
BRANCH  10  38
ATOM     38  O   UNL     1      -5.656  17.192  19.309  0.00  0.00    +0.000 OA
ATOM     39  H   UNL     1      -5.016  17.904  19.485  0.00  0.00    +0.000 HD
ENDBRANCH  10  38
TORSDOF 8
ENDMDL
MODEL 7
REMARK VINA RESULT:      -7.5      1.903      2.567
REMARK  Name = 
REMARK  12 active torsions:
REMARK  status: ('A' for Active; 'I' for Inactive)
REMARK    1  A    between atoms: C_1  and  O_2
REMARK    2  A    between atoms: O_2  and  C_3
REMARK    3  A    between atoms: C_8  and  N_9
REMARK    4  A    between atoms: C_10  and  C_12
REMARK    5  A    between atoms: C_12  and  C_13
REMARK    6  A    between atoms: C_13  and  C_14
REMARK    7  A    between atoms: C_14  and  C_15
REMARK    8  A    between atoms: C_14  and  C_16
REMARK    9  A    between atoms: C_21  and  O_22
REMARK   10  A    between atoms: C_26  and  O_27
REMARK   11  A    between atoms: C_30  and  C_31
REMARK   12  A    between atoms: C_35  and  C_36
REMARK                            x       y       z     vdW  Elec       q    Type
REMARK                         _______ _______ _______ _____ _____    ______ ____
ROOT
ATOM      1  C   UNL     1       0.944  10.977  19.884  0.00  0.00    +0.000 C 
ATOM      2  C   UNL     1       1.315  11.942  18.722  0.00  0.00    +0.000 C 
ATOM      3  C   UNL     1       0.450  13.205  18.873  0.00  0.00    +0.000 C 
ATOM      4  C   UNL     1      -0.236  13.048  20.226  0.00  0.00    +0.000 C 
ATOM      5  C   UNL     1      -1.531  13.841  20.516  0.00  0.00    +0.000 C 
ATOM      6  C   UNL     1      -1.370  15.373  20.411  0.00  0.00    +0.000 C 
ATOM      7  C   UNL     1      -2.682  16.101  20.730  0.00  0.00    +0.000 C 
ATOM      8  C   UNL     1      -3.298  15.717  22.086  0.00  0.00    +0.000 C 
ATOM      9  C   UNL     1      -2.506  16.375  23.233  0.00  0.00    +0.000 C 
ATOM     10  C   UNL     1      -3.054  16.005  24.609  0.00  0.00    +0.000 C 
ATOM     11  C   UNL     1      -3.107  14.494  24.794  0.00  0.00    +0.000 C 
ATOM     12  C   UNL     1      -3.951  13.859  23.696  0.00  0.00    +0.000 C 
ATOM     13  C   UNL     1      -3.445  14.168  22.254  0.00  0.00    +0.000 C 
ATOM     14  C   UNL     1      -4.552  13.653  21.296  0.00  0.00    +0.000 C 
ATOM     15  C   UNL     1      -2.061  13.480  21.945  0.00  0.00    +0.000 C 
ATOM     16  C   UNL     1      -2.063  11.964  22.244  0.00  0.00    +0.000 C 
ATOM     17  C   UNL     1      -0.789  11.242  21.808  0.00  0.00    +0.000 C 
ATOM     18  C   UNL     1      -0.451  11.512  20.335  0.00  0.00    +0.000 C 
ATOM     19  C   UNL     1      -1.567  10.994  19.393  0.00  0.00    +0.000 C 
ENDROOT
BRANCH   1  20
ATOM     20  C   UNL     1       1.075   9.469  19.488  0.00  0.00    +0.000 C 
ATOM     21  C   UNL     1       1.228   8.551  20.708  0.00  0.00    +0.000 C 
BRANCH  20  22
ATOM     22  C   UNL     1       2.270   9.245  18.528  0.00  0.00    +0.000 C 
BRANCH  22  23
ATOM     23  C   UNL     1       2.120   8.023  17.599  0.00  0.00    +0.000 C 
BRANCH  23  25
ATOM     24  N   UNL     1       1.660   5.732  18.277  0.00  0.00    +0.000 N 
ATOM     25  C   UNL     1       2.598   6.752  18.285  0.00  0.00    +0.000 C 
ATOM     26  O   UNL     1       3.714   6.691  18.792  0.00  0.00    +0.000 OA
ATOM     27  H   UNL     1       0.874   5.784  17.641  0.00  0.00    +0.000 HD
BRANCH  24  33
ATOM     28  C   UNL     1       2.347   3.380  18.390  0.00  0.00    +0.000 A 
ATOM     29  C   UNL     1       2.411   2.169  19.094  0.00  0.00    +0.000 A 
ATOM     30  C   UNL     1       1.939   2.078  20.404  0.00  0.00    +0.000 A 
ATOM     31  C   UNL     1       1.381   3.191  21.014  0.00  0.00    +0.000 A 
ATOM     32  C   UNL     1       1.282   4.393  20.313  0.00  0.00    +0.000 A 
ATOM     33  C   UNL     1       1.764   4.511  19.003  0.00  0.00    +0.000 A 
BRANCH  28  35
ATOM     34  C   UNL     1       4.259   3.631  17.019  0.00  0.00    +0.000 C 
ATOM     35  O   UNL     1       2.836   3.536  17.111  0.00  0.00    +0.000 OA
ENDBRANCH  28  35
ENDBRANCH  24  33
ENDBRANCH  23  25
ENDBRANCH  22  23
ENDBRANCH  20  22
ENDBRANCH   1  20
BRANCH   6  36
ATOM     36  O   UNL     1      -0.965  15.763  19.103  0.00  0.00    +0.000 OA
ATOM     37  H   UNL     1      -0.078  16.158  19.165  0.00  0.00    +0.000 HD
ENDBRANCH   6  36
BRANCH  10  38
ATOM     38  O   UNL     1      -2.244  16.585  25.623  0.00  0.00    +0.000 OA
ATOM     39  H   UNL     1      -2.657  16.398  26.484  0.00  0.00    +0.000 HD
ENDBRANCH  10  38
TORSDOF 8
ENDMDL
MODEL 8
REMARK VINA RESULT:      -7.4      1.244      1.456
REMARK  Name = 
REMARK  12 active torsions:
REMARK  status: ('A' for Active; 'I' for Inactive)
REMARK    1  A    between atoms: C_1  and  O_2
REMARK    2  A    between atoms: O_2  and  C_3
REMARK    3  A    between atoms: C_8  and  N_9
REMARK    4  A    between atoms: C_10  and  C_12
REMARK    5  A    between atoms: C_12  and  C_13
REMARK    6  A    between atoms: C_13  and  C_14
REMARK    7  A    between atoms: C_14  and  C_15
REMARK    8  A    between atoms: C_14  and  C_16
REMARK    9  A    between atoms: C_21  and  O_22
REMARK   10  A    between atoms: C_26  and  O_27
REMARK   11  A    between atoms: C_30  and  C_31
REMARK   12  A    between atoms: C_35  and  C_36
REMARK                            x       y       z     vdW  Elec       q    Type
REMARK                         _______ _______ _______ _____ _____    ______ ____
ROOT
ATOM      1  C   UNL     1       0.202  11.083  18.576  0.00  0.00    +0.000 C 
ATOM      2  C   UNL     1      -0.902  10.305  17.808  0.00  0.00    +0.000 C 
ATOM      3  C   UNL     1      -2.259  10.707  18.411  0.00  0.00    +0.000 C 
ATOM      4  C   UNL     1      -1.939  11.862  19.354  0.00  0.00    +0.000 C 
ATOM      5  C   UNL     1      -2.927  12.207  20.493  0.00  0.00    +0.000 C 
ATOM      6  C   UNL     1      -4.346  12.570  20.007  0.00  0.00    +0.000 C 
ATOM      7  C   UNL     1      -5.271  12.922  21.180  0.00  0.00    +0.000 C 
ATOM      8  C   UNL     1      -4.720  14.022  22.103  0.00  0.00    +0.000 C 
ATOM      9  C   UNL     1      -4.850  15.399  21.423  0.00  0.00    +0.000 C 
ATOM     10  C   UNL     1      -4.291  16.530  22.280  0.00  0.00    +0.000 C 
ATOM     11  C   UNL     1      -2.844  16.263  22.672  0.00  0.00    +0.000 C 
ATOM     12  C   UNL     1      -2.736  14.933  23.407  0.00  0.00    +0.000 C 
ATOM     13  C   UNL     1      -3.265  13.716  22.590  0.00  0.00    +0.000 C 
ATOM     14  C   UNL     1      -3.298  12.521  23.580  0.00  0.00    +0.000 C 
ATOM     15  C   UNL     1      -2.358  13.394  21.342  0.00  0.00    +0.000 C 
ATOM     16  C   UNL     1      -0.865  13.239  21.706  0.00  0.00    +0.000 C 
ATOM     17  C   UNL     1       0.015  12.773  20.548  0.00  0.00    +0.000 C 
ATOM     18  C   UNL     1      -0.527  11.495  19.893  0.00  0.00    +0.000 C 
ATOM     19  C   UNL     1      -0.556  10.313  20.896  0.00  0.00    +0.000 C 
ENDROOT
BRANCH   1  20
ATOM     20  C   UNL     1       1.546  10.287  18.683  0.00  0.00    +0.000 C 
ATOM     21  C   UNL     1       2.662  10.899  17.827  0.00  0.00    +0.000 C 
BRANCH  20  22
ATOM     22  C   UNL     1       1.349   8.804  18.282  0.00  0.00    +0.000 C 
BRANCH  22  23
ATOM     23  C   UNL     1       2.576   8.159  17.605  0.00  0.00    +0.000 C 
BRANCH  23  25
ATOM     24  N   UNL     1       1.807   6.089  18.626  0.00  0.00    +0.000 N 
ATOM     25  C   UNL     1       2.919   6.824  18.248  0.00  0.00    +0.000 C 
ATOM     26  O   UNL     1       4.088   6.482  18.405  0.00  0.00    +0.000 OA
ATOM     27  H   UNL     1       0.899   6.331  18.250  0.00  0.00    +0.000 HD
BRANCH  24  33
ATOM     28  C   UNL     1       1.762   3.642  18.779  0.00  0.00    +0.000 A 
ATOM     29  C   UNL     1       1.746   2.477  19.559  0.00  0.00    +0.000 A 
ATOM     30  C   UNL     1       1.835   2.546  20.950  0.00  0.00    +0.000 A 
ATOM     31  C   UNL     1       1.919   3.783  21.574  0.00  0.00    +0.000 A 
ATOM     32  C   UNL     1       1.904   4.950  20.810  0.00  0.00    +0.000 A 
ATOM     33  C   UNL     1       1.832   4.902  19.412  0.00  0.00    +0.000 A 
BRANCH  28  35
ATOM     34  C   UNL     1       2.945   3.255  16.767  0.00  0.00    +0.000 C 
ATOM     35  O   UNL     1       1.719   3.627  17.402  0.00  0.00    +0.000 OA
ENDBRANCH  28  35
ENDBRANCH  24  33
ENDBRANCH  23  25
ENDBRANCH  22  23
ENDBRANCH  20  22
ENDBRANCH   1  20
BRANCH   6  36
ATOM     36  O   UNL     1      -4.943  11.491  19.295  0.00  0.00    +0.000 OA
ATOM     37  H   UNL     1      -5.905  11.534  19.431  0.00  0.00    +0.000 HD
ENDBRANCH   6  36
BRANCH  10  38
ATOM     38  O   UNL     1      -4.377  17.761  21.573  0.00  0.00    +0.000 OA
ATOM     39  H   UNL     1      -5.319  17.980  21.461  0.00  0.00    +0.000 HD
ENDBRANCH  10  38
TORSDOF 8
ENDMDL
MODEL 9
REMARK VINA RESULT:      -7.4      1.481      1.795
REMARK  Name = 
REMARK  12 active torsions:
REMARK  status: ('A' for Active; 'I' for Inactive)
REMARK    1  A    between atoms: C_1  and  O_2
REMARK    2  A    between atoms: O_2  and  C_3
REMARK    3  A    between atoms: C_8  and  N_9
REMARK    4  A    between atoms: C_10  and  C_12
REMARK    5  A    between atoms: C_12  and  C_13
REMARK    6  A    between atoms: C_13  and  C_14
REMARK    7  A    between atoms: C_14  and  C_15
REMARK    8  A    between atoms: C_14  and  C_16
REMARK    9  A    between atoms: C_21  and  O_22
REMARK   10  A    between atoms: C_26  and  O_27
REMARK   11  A    between atoms: C_30  and  C_31
REMARK   12  A    between atoms: C_35  and  C_36
REMARK                            x       y       z     vdW  Elec       q    Type
REMARK                         _______ _______ _______ _____ _____    ______ ____
ROOT
ATOM      1  C   UNL     1      -0.188  11.291  18.373  0.00  0.00    +0.000 C 
ATOM      2  C   UNL     1      -0.982  10.118  17.732  0.00  0.00    +0.000 C 
ATOM      3  C   UNL     1      -2.469  10.326  18.067  0.00  0.00    +0.000 C 
ATOM      4  C   UNL     1      -2.535  11.714  18.696  0.00  0.00    +0.000 C 
ATOM      5  C   UNL     1      -3.738  12.082  19.596  0.00  0.00    +0.000 C 
ATOM      6  C   UNL     1      -5.107  11.980  18.892  0.00  0.00    +0.000 C 
ATOM      7  C   UNL     1      -6.255  12.377  19.829  0.00  0.00    +0.000 C 
ATOM      8  C   UNL     1      -6.085  13.762  20.477  0.00  0.00    +0.000 C 
ATOM      9  C   UNL     1      -6.377  14.869  19.444  0.00  0.00    +0.000 C 
ATOM     10  C   UNL     1      -6.194  16.269  20.022  0.00  0.00    +0.000 C 
ATOM     11  C   UNL     1      -4.802  16.445  20.614  0.00  0.00    +0.000 C 
ATOM     12  C   UNL     1      -4.549  15.391  21.684  0.00  0.00    +0.000 C 
ATOM     13  C   UNL     1      -4.692  13.925  21.171  0.00  0.00    +0.000 C 
ATOM     14  C   UNL     1      -4.642  13.026  22.435  0.00  0.00    +0.000 C 
ATOM     15  C   UNL     1      -3.556  13.535  20.151  0.00  0.00    +0.000 C 
ATOM     16  C   UNL     1      -2.137  13.821  20.692  0.00  0.00    +0.000 C 
ATOM     17  C   UNL     1      -1.012  13.310  19.794  0.00  0.00    +0.000 C 
ATOM     18  C   UNL     1      -1.181  11.823  19.452  0.00  0.00    +0.000 C 
ATOM     19  C   UNL     1      -1.132  10.940  20.725  0.00  0.00    +0.000 C 
ENDROOT
BRANCH   1  20
ATOM     20  C   UNL     1       1.253  10.876  18.822  0.00  0.00    +0.000 C 
ATOM     21  C   UNL     1       2.349  11.602  18.031  0.00  0.00    +0.000 C 
BRANCH  20  22
ATOM     22  C   UNL     1       1.460   9.346  18.694  0.00  0.00    +0.000 C 
BRANCH  22  23
ATOM     23  C   UNL     1       1.530   8.597  20.040  0.00  0.00    +0.000 C 
BRANCH  23  25
ATOM     24  N   UNL     1       2.496   6.913  18.575  0.00  0.00    +0.000 N 
ATOM     25  C   UNL     1       2.016   7.169  19.849  0.00  0.00    +0.000 C 
ATOM     26  O   UNL     1       1.955   6.355  20.766  0.00  0.00    +0.000 OA
ATOM     27  H   UNL     1       2.728   7.687  17.965  0.00  0.00    +0.000 HD
BRANCH  24  33
ATOM     28  C   UNL     1       4.168   5.352  17.690  0.00  0.00    +0.000 A 
ATOM     29  C   UNL     1       4.489   4.098  17.151  0.00  0.00    +0.000 A 
ATOM     30  C   UNL     1       3.516   3.107  17.014  0.00  0.00    +0.000 A 
ATOM     31  C   UNL     1       2.208   3.370  17.396  0.00  0.00    +0.000 A 
ATOM     32  C   UNL     1       1.870   4.624  17.904  0.00  0.00    +0.000 A 
ATOM     33  C   UNL     1       2.834   5.627  18.065  0.00  0.00    +0.000 A 
BRANCH  28  35
ATOM     34  C   UNL     1       6.354   5.906  18.407  0.00  0.00    +0.000 C 
ATOM     35  O   UNL     1       5.098   6.349  17.886  0.00  0.00    +0.000 OA
ENDBRANCH  28  35
ENDBRANCH  24  33
ENDBRANCH  23  25
ENDBRANCH  22  23
ENDBRANCH  20  22
ENDBRANCH   1  20
BRANCH   6  36
ATOM     36  O   UNL     1      -5.360  10.655  18.436  0.00  0.00    +0.000 OA
ATOM     37  H   UNL     1      -4.833  10.505  17.633  0.00  0.00    +0.000 HD
ENDBRANCH   6  36
BRANCH  10  38
ATOM     38  O   UNL     1      -6.411  17.242  19.007  0.00  0.00    +0.000 OA
ATOM     39  H   UNL     1      -5.570  17.704  18.847  0.00  0.00    +0.000 HD
ENDBRANCH  10  38
TORSDOF 8
ENDMDL
