MODEL 1
REMARK VINA RESULT:      -6.8      0.000      0.000
REMARK  Name = 
REMARK  7 active torsions:
REMARK  status: ('A' for Active; 'I' for Inactive)
REMARK    1  A    between atoms: C_1  and  C_2
REMARK    2  A    between atoms: C_2  and  N_3
REMARK    3  A    between atoms: N_3  and  C_4
REMARK    4  A    between atoms: N_3  and  C_6
REMARK    5  A    between atoms: C_4  and  C_5
REMARK    6  A    between atoms: C_6  and  C_7
REMARK    7  A    between atoms: C_14  and  C_16
REMARK                            x       y       z     vdW  Elec       q    Type
REMARK                         _______ _______ _______ _____ _____    ______ ____
ROOT
ATOM      1  C   UNL     1       6.390   4.033  13.786  0.00  0.00    +0.000 A 
ATOM      2  N   UNL     1       5.169   3.913  14.309  0.00  0.00    +0.000 NA
ATOM      3  C   UNL     1       5.370   4.343  15.568  0.00  0.00    +0.000 A 
ATOM      4  C   UNL     1       6.647   4.718  15.771  0.00  0.00    +0.000 A 
ATOM      5  O   UNL     1       7.361   4.556  14.642  0.00  0.00    +0.000 OA
ATOM      6  C   UNL     1       6.940   5.260  17.094  0.00  0.00    +0.000 C 
ATOM      7  N   UNL     1       5.578   5.051  17.717  0.00  0.00    +0.000 N 
ATOM      8  C   UNL     1       5.438   5.037  19.101  0.00  0.00    +0.000 C 
ATOM      9  O   UNL     1       6.392   5.187  19.853  0.00  0.00    +0.000 OA
ATOM     10  C   UNL     1       4.538   4.607  16.730  0.00  0.00    +0.000 C 
ENDROOT
BRANCH   8  11
ATOM     11  C   UNL     1       4.079   4.849  19.681  0.00  0.00    +0.000 A 
ATOM     12  C   UNL     1       3.210   5.932  19.857  0.00  0.00    +0.000 A 
ATOM     13  C   UNL     1       1.928   5.697  20.313  0.00  0.00    +0.000 A 
ATOM     14  N   UNL     1       1.484   4.480  20.683  0.00  0.00    +0.000 NA
ATOM     15  C   UNL     1       2.370   3.460  20.591  0.00  0.00    +0.000 A 
ATOM     16  C   UNL     1       3.654   3.588  20.092  0.00  0.00    +0.000 A 
ATOM     17  F   UNL     1       4.433   2.503  20.001  0.00  0.00    +0.000 F 
ENDBRANCH   8  11
BRANCH   1  18
ATOM     18  C   UNL     1       6.789   3.676  12.387  0.00  0.00    +0.000 C 
BRANCH  18  19
ATOM     19  N   UNL     1       5.933   2.665  11.727  0.00  0.00    +0.000 NA
BRANCH  19  21
ATOM     20  C   UNL     1       3.530   3.071  11.077  0.00  0.00    +0.000 C 
ATOM     21  C   UNL     1       5.008   3.289  10.762  0.00  0.00    +0.000 C 
ENDBRANCH  19  21
BRANCH  19  22
ATOM     22  C   UNL     1       6.756   1.587  11.159  0.00  0.00    +0.000 C 
ATOM     23  C   UNL     1       6.165   0.178  11.220  0.00  0.00    +0.000 C 
ENDBRANCH  19  22
ENDBRANCH  18  19
ENDBRANCH   1  18
TORSDOF 5
ENDMDL
MODEL 2
REMARK VINA RESULT:      -6.7      0.556      1.414
REMARK  Name = 
REMARK  7 active torsions:
REMARK  status: ('A' for Active; 'I' for Inactive)
REMARK    1  A    between atoms: C_1  and  C_2
REMARK    2  A    between atoms: C_2  and  N_3
REMARK    3  A    between atoms: N_3  and  C_4
REMARK    4  A    between atoms: N_3  and  C_6
REMARK    5  A    between atoms: C_4  and  C_5
REMARK    6  A    between atoms: C_6  and  C_7
REMARK    7  A    between atoms: C_14  and  C_16
REMARK                            x       y       z     vdW  Elec       q    Type
REMARK                         _______ _______ _______ _____ _____    ______ ____
ROOT
ATOM      1  C   UNL     1       6.672   4.540  13.675  0.00  0.00    +0.000 A 
ATOM      2  N   UNL     1       5.462   4.256  14.158  0.00  0.00    +0.000 NA
ATOM      3  C   UNL     1       5.601   4.591  15.454  0.00  0.00    +0.000 A 
ATOM      4  C   UNL     1       6.833   5.067  15.718  0.00  0.00    +0.000 A 
ATOM      5  O   UNL     1       7.575   5.076  14.595  0.00  0.00    +0.000 OA
ATOM      6  C   UNL     1       7.053   5.516  17.089  0.00  0.00    +0.000 C 
ATOM      7  N   UNL     1       5.709   5.122  17.660  0.00  0.00    +0.000 N 
ATOM      8  C   UNL     1       5.551   4.972  19.034  0.00  0.00    +0.000 C 
ATOM      9  O   UNL     1       6.476   5.146  19.818  0.00  0.00    +0.000 OA
ATOM     10  C   UNL     1       4.732   4.669  16.615  0.00  0.00    +0.000 C 
ENDROOT
BRANCH   8  11
ATOM     11  C   UNL     1       4.210   4.602  19.565  0.00  0.00    +0.000 A 
ATOM     12  C   UNL     1       3.233   5.576  19.805  0.00  0.00    +0.000 A 
ATOM     13  C   UNL     1       1.974   5.178  20.210  0.00  0.00    +0.000 A 
ATOM     14  N   UNL     1       1.649   3.897  20.471  0.00  0.00    +0.000 NA
ATOM     15  C   UNL     1       2.635   2.981  20.320  0.00  0.00    +0.000 A 
ATOM     16  C   UNL     1       3.908   3.276  19.864  0.00  0.00    +0.000 A 
ATOM     17  F   UNL     1       4.794   2.285  19.706  0.00  0.00    +0.000 F 
ENDBRANCH   8  11
BRANCH   1  18
ATOM     18  C   UNL     1       7.124   4.349  12.260  0.00  0.00    +0.000 C 
BRANCH  18  19
ATOM     19  N   UNL     1       6.408   3.294  11.508  0.00  0.00    +0.000 NA
BRANCH  19  21
ATOM     20  C   UNL     1       6.345   0.815  11.046  0.00  0.00    +0.000 C 
ATOM     21  C   UNL     1       7.151   2.020  11.526  0.00  0.00    +0.000 C 
ENDBRANCH  19  21
BRANCH  19  22
ATOM     22  C   UNL     1       5.017   3.185  11.974  0.00  0.00    +0.000 C 
ATOM     23  C   UNL     1       3.930   3.414  10.924  0.00  0.00    +0.000 C 
ENDBRANCH  19  22
ENDBRANCH  18  19
ENDBRANCH   1  18
TORSDOF 5
ENDMDL
MODEL 3
REMARK VINA RESULT:      -6.7      0.978      1.382
REMARK  Name = 
REMARK  7 active torsions:
REMARK  status: ('A' for Active; 'I' for Inactive)
REMARK    1  A    between atoms: C_1  and  C_2
REMARK    2  A    between atoms: C_2  and  N_3
REMARK    3  A    between atoms: N_3  and  C_4
REMARK    4  A    between atoms: N_3  and  C_6
REMARK    5  A    between atoms: C_4  and  C_5
REMARK    6  A    between atoms: C_6  and  C_7
REMARK    7  A    between atoms: C_14  and  C_16
REMARK                            x       y       z     vdW  Elec       q    Type
REMARK                         _______ _______ _______ _____ _____    ______ ____
ROOT
ATOM      1  C   UNL     1       6.258   3.977  13.794  0.00  0.00    +0.000 A 
ATOM      2  N   UNL     1       5.066   3.739  14.343  0.00  0.00    +0.000 NA
ATOM      3  C   UNL     1       5.251   4.190  15.598  0.00  0.00    +0.000 A 
ATOM      4  C   UNL     1       6.490   4.687  15.773  0.00  0.00    +0.000 A 
ATOM      5  O   UNL     1       7.192   4.593  14.628  0.00  0.00    +0.000 OA
ATOM      6  C   UNL     1       6.758   5.258  17.090  0.00  0.00    +0.000 C 
ATOM      7  N   UNL     1       5.437   4.918  17.742  0.00  0.00    +0.000 N 
ATOM      8  C   UNL     1       5.328   4.894  19.129  0.00  0.00    +0.000 C 
ATOM      9  O   UNL     1       6.280   5.137  19.860  0.00  0.00    +0.000 OA
ATOM     10  C   UNL     1       4.423   4.373  16.778  0.00  0.00    +0.000 C 
ENDROOT
BRANCH   8  11
ATOM     11  C   UNL     1       4.008   4.575  19.738  0.00  0.00    +0.000 A 
ATOM     12  C   UNL     1       3.704   3.279  20.172  0.00  0.00    +0.000 A 
ATOM     13  C   UNL     1       2.503   3.050  20.815  0.00  0.00    +0.000 A 
ATOM     14  N   UNL     1       1.557   3.994  20.977  0.00  0.00    +0.000 NA
ATOM     15  C   UNL     1       1.833   5.219  20.469  0.00  0.00    +0.000 A 
ATOM     16  C   UNL     1       3.029   5.558  19.862  0.00  0.00    +0.000 A 
ATOM     17  F   UNL     1       3.215   6.814  19.435  0.00  0.00    +0.000 F 
ENDBRANCH   8  11
BRANCH   1  18
ATOM     18  C   UNL     1       6.659   3.658  12.386  0.00  0.00    +0.000 C 
BRANCH  18  19
ATOM     19  N   UNL     1       5.831   2.632  11.713  0.00  0.00    +0.000 NA
BRANCH  19  21
ATOM     20  C   UNL     1       3.413   3.021  11.112  0.00  0.00    +0.000 C 
ATOM     21  C   UNL     1       4.883   3.241  10.763  0.00  0.00    +0.000 C 
ENDBRANCH  19  21
BRANCH  19  22
ATOM     22  C   UNL     1       6.685   1.588  11.124  0.00  0.00    +0.000 C 
ATOM     23  C   UNL     1       6.157   0.156  11.202  0.00  0.00    +0.000 C 
ENDBRANCH  19  22
ENDBRANCH  18  19
ENDBRANCH   1  18
TORSDOF 5
ENDMDL
MODEL 4
REMARK VINA RESULT:      -6.6      1.122      1.964
REMARK  Name = 
REMARK  7 active torsions:
REMARK  status: ('A' for Active; 'I' for Inactive)
REMARK    1  A    between atoms: C_1  and  C_2
REMARK    2  A    between atoms: C_2  and  N_3
REMARK    3  A    between atoms: N_3  and  C_4
REMARK    4  A    between atoms: N_3  and  C_6
REMARK    5  A    between atoms: C_4  and  C_5
REMARK    6  A    between atoms: C_6  and  C_7
REMARK    7  A    between atoms: C_14  and  C_16
REMARK                            x       y       z     vdW  Elec       q    Type
REMARK                         _______ _______ _______ _____ _____    ______ ____
ROOT
ATOM      1  C   UNL     1       6.743   4.478  13.655  0.00  0.00    +0.000 A 
ATOM      2  N   UNL     1       5.590   4.040  14.164  0.00  0.00    +0.000 NA
ATOM      3  C   UNL     1       5.698   4.423  15.450  0.00  0.00    +0.000 A 
ATOM      4  C   UNL     1       6.853   5.074  15.683  0.00  0.00    +0.000 A 
ATOM      5  O   UNL     1       7.573   5.158  14.548  0.00  0.00    +0.000 OA
ATOM      6  C   UNL     1       7.026   5.583  17.039  0.00  0.00    +0.000 C 
ATOM      7  N   UNL     1       5.759   5.019  17.641  0.00  0.00    +0.000 N 
ATOM      8  C   UNL     1       5.641   4.883  19.021  0.00  0.00    +0.000 C 
ATOM      9  O   UNL     1       6.542   5.205  19.785  0.00  0.00    +0.000 OA
ATOM     10  C   UNL     1       4.841   4.407  16.623  0.00  0.00    +0.000 C 
ENDROOT
BRANCH   8  11
ATOM     11  C   UNL     1       4.372   4.342  19.582  0.00  0.00    +0.000 A 
ATOM     12  C   UNL     1       4.218   2.974  19.834  0.00  0.00    +0.000 A 
ATOM     13  C   UNL     1       3.058   2.530  20.440  0.00  0.00    +0.000 A 
ATOM     14  N   UNL     1       2.018   3.334  20.730  0.00  0.00    +0.000 NA
ATOM     15  C   UNL     1       2.152   4.640  20.394  0.00  0.00    +0.000 A 
ATOM     16  C   UNL     1       3.295   5.186  19.839  0.00  0.00    +0.000 A 
ATOM     17  F   UNL     1       3.338   6.501  19.588  0.00  0.00    +0.000 F 
ENDBRANCH   8  11
BRANCH   1  18
ATOM     18  C   UNL     1       7.199   4.317  12.238  0.00  0.00    +0.000 C 
BRANCH  18  19
ATOM     19  N   UNL     1       6.472   3.292  11.456  0.00  0.00    +0.000 NA
BRANCH  19  21
ATOM     20  C   UNL     1       6.394   0.795  11.110  0.00  0.00    +0.000 C 
ATOM     21  C   UNL     1       7.243   2.039  11.360  0.00  0.00    +0.000 C 
ENDBRANCH  19  21
BRANCH  19  22
ATOM     22  C   UNL     1       5.108   3.119  11.979  0.00  0.00    +0.000 C 
ATOM     23  C   UNL     1       3.966   3.366  10.992  0.00  0.00    +0.000 C 
ENDBRANCH  19  22
ENDBRANCH  18  19
ENDBRANCH   1  18
TORSDOF 5
ENDMDL
MODEL 5
REMARK VINA RESULT:      -6.6      4.451      8.453
REMARK  Name = 
REMARK  7 active torsions:
REMARK  status: ('A' for Active; 'I' for Inactive)
REMARK    1  A    between atoms: C_1  and  C_2
REMARK    2  A    between atoms: C_2  and  N_3
REMARK    3  A    between atoms: N_3  and  C_4
REMARK    4  A    between atoms: N_3  and  C_6
REMARK    5  A    between atoms: C_4  and  C_5
REMARK    6  A    between atoms: C_6  and  C_7
REMARK    7  A    between atoms: C_14  and  C_16
REMARK                            x       y       z     vdW  Elec       q    Type
REMARK                         _______ _______ _______ _____ _____    ______ ____
ROOT
ATOM      1  C   UNL     1       1.169   9.873  18.657  0.00  0.00    +0.000 A 
ATOM      2  N   UNL     1       1.981   9.598  17.635  0.00  0.00    +0.000 NA
ATOM      3  C   UNL     1       2.494   8.411  18.008  0.00  0.00    +0.000 A 
ATOM      4  C   UNL     1       1.992   7.997  19.187  0.00  0.00    +0.000 A 
ATOM      5  O   UNL     1       1.109   8.899  19.655  0.00  0.00    +0.000 OA
ATOM      6  C   UNL     1       2.446   6.686  19.638  0.00  0.00    +0.000 C 
ATOM      7  N   UNL     1       3.428   6.406  18.523  0.00  0.00    +0.000 N 
ATOM      8  C   UNL     1       4.425   5.451  18.695  0.00  0.00    +0.000 C 
ATOM      9  O   UNL     1       4.546   4.816  19.735  0.00  0.00    +0.000 OA
ATOM     10  C   UNL     1       3.368   7.415  17.414  0.00  0.00    +0.000 C 
ENDROOT
BRANCH   8  11
ATOM     11  C   UNL     1       5.364   5.185  17.569  0.00  0.00    +0.000 A 
ATOM     12  C   UNL     1       6.578   5.874  17.461  0.00  0.00    +0.000 A 
ATOM     13  C   UNL     1       7.457   5.530  16.453  0.00  0.00    +0.000 A 
ATOM     14  N   UNL     1       7.178   4.616  15.505  0.00  0.00    +0.000 NA
ATOM     15  C   UNL     1       5.960   4.026  15.574  0.00  0.00    +0.000 A 
ATOM     16  C   UNL     1       5.038   4.263  16.578  0.00  0.00    +0.000 A 
ATOM     17  F   UNL     1       3.881   3.589  16.578  0.00  0.00    +0.000 F 
ENDBRANCH   8  11
BRANCH   1  18
ATOM     18  C   UNL     1       0.327  11.103  18.809  0.00  0.00    +0.000 C 
BRANCH  18  19
ATOM     19  N   UNL     1      -1.132  10.863  18.874  0.00  0.00    +0.000 NA
BRANCH  19  21
ATOM     20  C   UNL     1      -0.990  13.338  19.332  0.00  0.00    +0.000 C 
ATOM     21  C   UNL     1      -1.867  12.094  19.215  0.00  0.00    +0.000 C 
ENDBRANCH  19  21
BRANCH  19  22
ATOM     22  C   UNL     1      -1.599  10.205  17.644  0.00  0.00    +0.000 C 
ATOM     23  C   UNL     1      -3.082   9.833  17.594  0.00  0.00    +0.000 C 
ENDBRANCH  19  22
ENDBRANCH  18  19
ENDBRANCH   1  18
TORSDOF 5
ENDMDL
MODEL 6
REMARK VINA RESULT:      -6.6      3.891      8.219
REMARK  Name = 
REMARK  7 active torsions:
REMARK  status: ('A' for Active; 'I' for Inactive)
REMARK    1  A    between atoms: C_1  and  C_2
REMARK    2  A    between atoms: C_2  and  N_3
REMARK    3  A    between atoms: N_3  and  C_4
REMARK    4  A    between atoms: N_3  and  C_6
REMARK    5  A    between atoms: C_4  and  C_5
REMARK    6  A    between atoms: C_6  and  C_7
REMARK    7  A    between atoms: C_14  and  C_16
REMARK                            x       y       z     vdW  Elec       q    Type
REMARK                         _______ _______ _______ _____ _____    ______ ____
ROOT
ATOM      1  C   UNL     1       1.456   8.761  19.566  0.00  0.00    +0.000 A 
ATOM      2  N   UNL     1       2.082   8.669  18.392  0.00  0.00    +0.000 NA
ATOM      3  C   UNL     1       2.707   7.483  18.509  0.00  0.00    +0.000 A 
ATOM      4  C   UNL     1       2.445   6.895  19.692  0.00  0.00    +0.000 A 
ATOM      5  O   UNL     1       1.621   7.671  20.421  0.00  0.00    +0.000 OA
ATOM      6  C   UNL     1       3.032   5.572  19.880  0.00  0.00    +0.000 C 
ATOM      7  N   UNL     1       3.809   5.498  18.585  0.00  0.00    +0.000 N 
ATOM      8  C   UNL     1       4.863   4.600  18.453  0.00  0.00    +0.000 C 
ATOM      9  O   UNL     1       5.198   3.853  19.364  0.00  0.00    +0.000 OA
ATOM     10  C   UNL     1       3.504   6.629  17.646  0.00  0.00    +0.000 C 
ENDROOT
BRANCH   8  11
ATOM     11  C   UNL     1       5.594   4.538  17.157  0.00  0.00    +0.000 A 
ATOM     12  C   UNL     1       5.013   3.954  16.025  0.00  0.00    +0.000 A 
ATOM     13  C   UNL     1       5.691   4.002  14.823  0.00  0.00    +0.000 A 
ATOM     14  N   UNL     1       6.932   4.510  14.690  0.00  0.00    +0.000 NA
ATOM     15  C   UNL     1       7.512   4.988  15.817  0.00  0.00    +0.000 A 
ATOM     16  C   UNL     1       6.890   5.036  17.052  0.00  0.00    +0.000 A 
ATOM     17  F   UNL     1       7.540   5.573  18.093  0.00  0.00    +0.000 F 
ENDBRANCH   8  11
BRANCH   1  18
ATOM     18  C   UNL     1       0.601   9.903  20.022  0.00  0.00    +0.000 C 
BRANCH  18  19
ATOM     19  N   UNL     1       0.370  10.960  19.011  0.00  0.00    +0.000 NA
BRANCH  19  21
ATOM     20  C   UNL     1      -1.681  10.039  17.868  0.00  0.00    +0.000 C 
ATOM     21  C   UNL     1      -1.067  11.137  18.734  0.00  0.00    +0.000 C 
ENDBRANCH  19  21
BRANCH  19  22
ATOM     22  C   UNL     1       1.065  12.198  19.395  0.00  0.00    +0.000 C 
ATOM     23  C   UNL     1       2.244  12.615  18.516  0.00  0.00    +0.000 C 
ENDBRANCH  19  22
ENDBRANCH  18  19
ENDBRANCH   1  18
TORSDOF 5
ENDMDL
MODEL 7
REMARK VINA RESULT:      -6.5      3.752      8.753
REMARK  Name = 
REMARK  7 active torsions:
REMARK  status: ('A' for Active; 'I' for Inactive)
REMARK    1  A    between atoms: C_1  and  C_2
REMARK    2  A    between atoms: C_2  and  N_3
REMARK    3  A    between atoms: N_3  and  C_4
REMARK    4  A    between atoms: N_3  and  C_6
REMARK    5  A    between atoms: C_4  and  C_5
REMARK    6  A    between atoms: C_6  and  C_7
REMARK    7  A    between atoms: C_14  and  C_16
REMARK                            x       y       z     vdW  Elec       q    Type
REMARK                         _______ _______ _______ _____ _____    ______ ____
ROOT
ATOM      1  C   UNL     1       1.070   8.178  20.705  0.00  0.00    +0.000 A 
ATOM      2  N   UNL     1       1.924   8.321  19.690  0.00  0.00    +0.000 NA
ATOM      3  C   UNL     1       2.429   7.078  19.584  0.00  0.00    +0.000 A 
ATOM      4  C   UNL     1       1.883   6.237  20.483  0.00  0.00    +0.000 A 
ATOM      5  O   UNL     1       0.976   6.890  21.234  0.00  0.00    +0.000 OA
ATOM      6  C   UNL     1       2.327   4.850  20.397  0.00  0.00    +0.000 C 
ATOM      7  N   UNL     1       3.355   5.023  19.301  0.00  0.00    +0.000 N 
ATOM      8  C   UNL     1       4.351   4.068  19.121  0.00  0.00    +0.000 C 
ATOM      9  O   UNL     1       4.434   3.073  19.830  0.00  0.00    +0.000 OA
ATOM     10  C   UNL     1       3.333   6.389  18.679  0.00  0.00    +0.000 C 
ENDROOT
BRANCH   8  11
ATOM     11  C   UNL     1       5.336   4.260  18.020  0.00  0.00    +0.000 A 
ATOM     12  C   UNL     1       6.633   4.716  18.281  0.00  0.00    +0.000 A 
ATOM     13  C   UNL     1       7.540   4.790  17.241  0.00  0.00    +0.000 A 
ATOM     14  N   UNL     1       7.222   4.527  15.960  0.00  0.00    +0.000 NA
ATOM     15  C   UNL     1       5.937   4.175  15.716  0.00  0.00    +0.000 A 
ATOM     16  C   UNL     1       4.975   4.017  16.697  0.00  0.00    +0.000 A 
ATOM     17  F   UNL     1       3.743   3.620  16.350  0.00  0.00    +0.000 F 
ENDBRANCH   8  11
BRANCH   1  18
ATOM     18  C   UNL     1       0.215   9.256  21.296  0.00  0.00    +0.000 C 
BRANCH  18  19
ATOM     19  N   UNL     1       0.151  10.510  20.512  0.00  0.00    +0.000 NA
BRANCH  19  21
ATOM     20  C   UNL     1      -1.041  11.717  18.645  0.00  0.00    +0.000 C 
ATOM     21  C   UNL     1      -0.870  10.431  19.451  0.00  0.00    +0.000 C 
ENDBRANCH  19  21
BRANCH  19  22
ATOM     22  C   UNL     1       0.000  11.668  21.406  0.00  0.00    +0.000 C 
ATOM     23  C   UNL     1      -0.861  11.457  22.651  0.00  0.00    +0.000 C 
ENDBRANCH  19  22
ENDBRANCH  18  19
ENDBRANCH   1  18
TORSDOF 5
ENDMDL
MODEL 8
REMARK VINA RESULT:      -6.5      4.487      8.483
REMARK  Name = 
REMARK  7 active torsions:
REMARK  status: ('A' for Active; 'I' for Inactive)
REMARK    1  A    between atoms: C_1  and  C_2
REMARK    2  A    between atoms: C_2  and  N_3
REMARK    3  A    between atoms: N_3  and  C_4
REMARK    4  A    between atoms: N_3  and  C_6
REMARK    5  A    between atoms: C_4  and  C_5
REMARK    6  A    between atoms: C_6  and  C_7
REMARK    7  A    between atoms: C_14  and  C_16
REMARK                            x       y       z     vdW  Elec       q    Type
REMARK                         _______ _______ _______ _____ _____    ______ ____
ROOT
ATOM      1  C   UNL     1       1.160   9.857  19.100  0.00  0.00    +0.000 A 
ATOM      2  N   UNL     1       1.902   9.615  18.019  0.00  0.00    +0.000 NA
ATOM      3  C   UNL     1       2.395   8.394  18.296  0.00  0.00    +0.000 A 
ATOM      4  C   UNL     1       1.947   7.930  19.478  0.00  0.00    +0.000 A 
ATOM      5  O   UNL     1       1.123   8.831  20.046  0.00  0.00    +0.000 OA
ATOM      6  C   UNL     1       2.381   6.581  19.829  0.00  0.00    +0.000 C 
ATOM      7  N   UNL     1       3.287   6.334  18.644  0.00  0.00    +0.000 N 
ATOM      8  C   UNL     1       4.260   5.341  18.704  0.00  0.00    +0.000 C 
ATOM      9  O   UNL     1       4.418   4.645  19.699  0.00  0.00    +0.000 OA
ATOM     10  C   UNL     1       3.198   7.406  17.597  0.00  0.00    +0.000 C 
ENDROOT
BRANCH   8  11
ATOM     11  C   UNL     1       5.123   5.110  17.513  0.00  0.00    +0.000 A 
ATOM     12  C   UNL     1       6.343   5.780  17.362  0.00  0.00    +0.000 A 
ATOM     13  C   UNL     1       7.153   5.467  16.288  0.00  0.00    +0.000 A 
ATOM     14  N   UNL     1       6.796   4.604  15.317  0.00  0.00    +0.000 NA
ATOM     15  C   UNL     1       5.572   4.035  15.434  0.00  0.00    +0.000 A 
ATOM     16  C   UNL     1       4.717   4.242  16.502  0.00  0.00    +0.000 A 
ATOM     17  F   UNL     1       3.547   3.592  16.541  0.00  0.00    +0.000 F 
ENDBRANCH   8  11
BRANCH   1  18
ATOM     18  C   UNL     1       0.371  11.102  19.368  0.00  0.00    +0.000 C 
BRANCH  18  19
ATOM     19  N   UNL     1      -0.685  11.404  18.375  0.00  0.00    +0.000 NA
BRANCH  19  21
ATOM     20  C   UNL     1      -2.092   9.870  16.951  0.00  0.00    +0.000 C 
ATOM     21  C   UNL     1      -1.719  10.353  18.351  0.00  0.00    +0.000 C 
ENDBRANCH  19  21
BRANCH  19  22
ATOM     22  C   UNL     1      -1.212  12.762  18.582  0.00  0.00    +0.000 C 
ATOM     23  C   UNL     1      -0.181  13.889  18.636  0.00  0.00    +0.000 C 
ENDBRANCH  19  22
ENDBRANCH  18  19
ENDBRANCH   1  18
TORSDOF 5
ENDMDL
MODEL 9
REMARK VINA RESULT:      -6.4      4.402      8.517
REMARK  Name = 
REMARK  7 active torsions:
REMARK  status: ('A' for Active; 'I' for Inactive)
REMARK    1  A    between atoms: C_1  and  C_2
REMARK    2  A    between atoms: C_2  and  N_3
REMARK    3  A    between atoms: N_3  and  C_4
REMARK    4  A    between atoms: N_3  and  C_6
REMARK    5  A    between atoms: C_4  and  C_5
REMARK    6  A    between atoms: C_6  and  C_7
REMARK    7  A    between atoms: C_14  and  C_16
REMARK                            x       y       z     vdW  Elec       q    Type
REMARK                         _______ _______ _______ _____ _____    ______ ____
ROOT
ATOM      1  C   UNL     1       1.327   9.821  18.596  0.00  0.00    +0.000 A 
ATOM      2  N   UNL     1       2.257   9.500  17.696  0.00  0.00    +0.000 NA
ATOM      3  C   UNL     1       2.632   8.278  18.117  0.00  0.00    +0.000 A 
ATOM      4  C   UNL     1       1.940   7.890  19.205  0.00  0.00    +0.000 A 
ATOM      5  O   UNL     1       1.061   8.846  19.558  0.00  0.00    +0.000 OA
ATOM      6  C   UNL     1       2.237   6.547  19.694  0.00  0.00    +0.000 C 
ATOM      7  N   UNL     1       3.348   6.210  18.725  0.00  0.00    +0.000 N 
ATOM      8  C   UNL     1       4.246   5.188  19.021  0.00  0.00    +0.000 C 
ATOM      9  O   UNL     1       4.174   4.539  20.057  0.00  0.00    +0.000 OA
ATOM     10  C   UNL     1       3.514   7.229  17.636  0.00  0.00    +0.000 C 
ENDROOT
BRANCH   8  11
ATOM     11  C   UNL     1       5.316   4.868  18.036  0.00  0.00    +0.000 A 
ATOM     12  C   UNL     1       5.017   4.247  16.818  0.00  0.00    +0.000 A 
ATOM     13  C   UNL     1       6.028   4.053  15.897  0.00  0.00    +0.000 A 
ATOM     14  N   UNL     1       7.319   4.354  16.139  0.00  0.00    +0.000 NA
ATOM     15  C   UNL     1       7.601   4.870  17.359  0.00  0.00    +0.000 A 
ATOM     16  C   UNL     1       6.649   5.154  18.322  0.00  0.00    +0.000 A 
ATOM     17  F   UNL     1       7.032   5.707  19.480  0.00  0.00    +0.000 F 
ENDBRANCH   8  11
BRANCH   1  18
ATOM     18  C   UNL     1       0.556  11.104  18.648  0.00  0.00    +0.000 C 
BRANCH  18  19
ATOM     19  N   UNL     1      -0.788  11.006  19.262  0.00  0.00    +0.000 NA
BRANCH  19  21
ATOM     20  C   UNL     1      -2.241  12.566  20.610  0.00  0.00    +0.000 C 
ATOM     21  C   UNL     1      -0.896  11.858  20.461  0.00  0.00    +0.000 C 
ENDBRANCH  19  21
BRANCH  19  22
ATOM     22  C   UNL     1      -1.832  11.250  18.255  0.00  0.00    +0.000 C 
ATOM     23  C   UNL     1      -1.966  10.203  17.149  0.00  0.00    +0.000 C 
ENDBRANCH  19  22
ENDBRANCH  18  19
ENDBRANCH   1  18
TORSDOF 5
ENDMDL
