MODEL 1
REMARK VINA RESULT:      -8.2      0.000      0.000
REMARK  Name = 
REMARK  6 active torsions:
REMARK  status: ('A' for Active; 'I' for Inactive)
REMARK    1  A    between atoms: C_2  and  C_3
REMARK    2  A    between atoms: C_3  and  C_4
REMARK    3  A    between atoms: N_6  and  C_7
REMARK    4  A    between atoms: C_11  and  C_12
REMARK    5  A    between atoms: N_17  and  C_18
REMARK    6  A    between atoms: C_21  and  N_22
REMARK                            x       y       z     vdW  Elec       q    Type
REMARK                         _______ _______ _______ _____ _____    ______ ____
ROOT
ATOM      1  C   UNL     1      -1.325  11.015  19.499  0.00  0.00    +0.000 A 
ATOM      2  C   UNL     1      -1.540  11.872  20.562  0.00  0.00    +0.000 A 
ATOM      3  C   UNL     1      -0.633  11.816  21.591  0.00  0.00    +0.000 A 
ATOM      4  N   UNL     1       0.412  10.976  21.607  0.00  0.00    +0.000 NA
ATOM      5  C   UNL     1       0.536  10.146  20.562  0.00  0.00    +0.000 A 
ATOM      6  N   UNL     1       1.600   9.249  20.632  0.00  0.00    +0.000 N 
ATOM      7  N   UNL     1      -0.288  10.158  19.497  0.00  0.00    +0.000 NA
ATOM      8  H   UNL     1       2.155   9.442  21.452  0.00  0.00    +0.000 HD
ENDROOT
BRANCH   1  13
ATOM      9  C   UNL     1      -4.256  11.705  17.139  0.00  0.00    +0.000 A 
ATOM     10  C   UNL     1      -3.979  10.785  16.128  0.00  0.00    +0.000 A 
ATOM     11  C   UNL     1      -2.832   9.998  16.175  0.00  0.00    +0.000 A 
ATOM     12  C   UNL     1      -1.959  10.100  17.253  0.00  0.00    +0.000 A 
ATOM     13  C   UNL     1      -2.203  10.999  18.305  0.00  0.00    +0.000 A 
ATOM     14  C   UNL     1      -3.342  11.838  18.202  0.00  0.00    +0.000 A 
BRANCH   9  17
ATOM     15  C   UNL     1      -6.512  12.318  18.034  0.00  0.00    +0.000 C 
ATOM     16  O   UNL     1      -6.566  11.494  18.943  0.00  0.00    +0.000 OA
ATOM     17  N   UNL     1      -5.443  12.491  17.149  0.00  0.00    +0.000 N 
ATOM     18  H   UNL     1      -5.428  13.315  16.564  0.00  0.00    +0.000 HD
BRANCH  15  19
ATOM     19  C   UNL     1      -7.664  13.278  17.844  0.00  0.00    +0.000 C 
BRANCH  19  21
ATOM     20  N   UNL     1      -6.926  15.211  15.984  0.00  0.00    +0.000 NA
ATOM     21  C   UNL     1      -7.261  14.335  16.828  0.00  0.00    +0.000 C 
ENDBRANCH  19  21
ENDBRANCH  15  19
ENDBRANCH   9  17
ENDBRANCH   1  13
BRANCH   6  22
ATOM     22  C   UNL     1       1.752   7.985  20.055  0.00  0.00    +0.000 A 
ATOM     23  C   UNL     1       2.305   7.787  18.790  0.00  0.00    +0.000 A 
ATOM     24  C   UNL     1       2.552   6.503  18.296  0.00  0.00    +0.000 A 
ATOM     25  C   UNL     1       2.286   5.360  19.055  0.00  0.00    +0.000 A 
ATOM     26  C   UNL     1       1.702   5.562  20.312  0.00  0.00    +0.000 A 
ATOM     27  C   UNL     1       1.442   6.847  20.807  0.00  0.00    +0.000 A 
BRANCH  25  28
ATOM     28  N   UNL     1       2.683   4.119  18.601  0.00  0.00    +0.000 N 
ATOM     29  C   UNL     1       1.801   2.949  18.691  0.00  0.00    +0.000 C 
ATOM     30  C   UNL     1       2.670   1.694  18.880  0.00  0.00    +0.000 C 
ATOM     31  O   UNL     1       3.636   1.551  17.826  0.00  0.00    +0.000 OA
ATOM     32  C   UNL     1       4.504   2.699  17.785  0.00  0.00    +0.000 C 
ATOM     33  C   UNL     1       3.714   3.998  17.556  0.00  0.00    +0.000 C 
ENDBRANCH  25  28
ENDBRANCH   6  22
TORSDOF 6
ENDMDL
MODEL 2
REMARK VINA RESULT:      -7.6      5.240      9.801
REMARK  Name = 
REMARK  6 active torsions:
REMARK  status: ('A' for Active; 'I' for Inactive)
REMARK    1  A    between atoms: C_2  and  C_3
REMARK    2  A    between atoms: C_3  and  C_4
REMARK    3  A    between atoms: N_6  and  C_7
REMARK    4  A    between atoms: C_11  and  C_12
REMARK    5  A    between atoms: N_17  and  C_18
REMARK    6  A    between atoms: C_21  and  N_22
REMARK                            x       y       z     vdW  Elec       q    Type
REMARK                         _______ _______ _______ _____ _____    ______ ____
ROOT
ATOM      1  C   UNL     1       0.596  10.237  20.853  0.00  0.00    +0.000 A 
ATOM      2  C   UNL     1      -0.248   9.873  21.886  0.00  0.00    +0.000 A 
ATOM      3  C   UNL     1      -0.751  10.891  22.656  0.00  0.00    +0.000 A 
ATOM      4  N   UNL     1      -0.452  12.183  22.458  0.00  0.00    +0.000 NA
ATOM      5  C   UNL     1       0.403  12.459  21.463  0.00  0.00    +0.000 A 
ATOM      6  N   UNL     1       0.736  13.804  21.316  0.00  0.00    +0.000 N 
ATOM      7  N   UNL     1       0.916  11.526  20.639  0.00  0.00    +0.000 NA
ATOM      8  H   UNL     1       0.194  14.363  21.958  0.00  0.00    +0.000 HD
ENDROOT
BRANCH   1  13
ATOM      9  C   UNL     1       2.321   7.101  19.502  0.00  0.00    +0.000 A 
ATOM     10  C   UNL     1       2.488   7.468  18.167  0.00  0.00    +0.000 A 
ATOM     11  C   UNL     1       1.998   8.682  17.695  0.00  0.00    +0.000 A 
ATOM     12  C   UNL     1       1.356   9.560  18.562  0.00  0.00    +0.000 A 
ATOM     13  C   UNL     1       1.179   9.244  19.919  0.00  0.00    +0.000 A 
ATOM     14  C   UNL     1       1.628   7.974  20.362  0.00  0.00    +0.000 A 
BRANCH   9  17
ATOM     15  C   UNL     1       2.405   4.607  19.706  0.00  0.00    +0.000 C 
ATOM     16  O   UNL     1       1.520   4.339  18.897  0.00  0.00    +0.000 OA
ATOM     17  N   UNL     1       2.853   5.891  20.031  0.00  0.00    +0.000 N 
ATOM     18  H   UNL     1       3.706   5.984  20.566  0.00  0.00    +0.000 HD
BRANCH  15  19
ATOM     19  C   UNL     1       3.130   3.479  20.403  0.00  0.00    +0.000 C 
BRANCH  19  21
ATOM     20  N   UNL     1       1.434   2.357  22.301  0.00  0.00    +0.000 NA
ATOM     21  C   UNL     1       2.202   2.866  21.441  0.00  0.00    +0.000 C 
ENDBRANCH  19  21
ENDBRANCH  15  19
ENDBRANCH   9  17
ENDBRANCH   1  13
BRANCH   6  22
ATOM     22  C   UNL     1       1.889  14.395  20.790  0.00  0.00    +0.000 A 
ATOM     23  C   UNL     1       3.093  14.469  21.488  0.00  0.00    +0.000 A 
ATOM     24  C   UNL     1       4.255  14.959  20.886  0.00  0.00    +0.000 A 
ATOM     25  C   UNL     1       4.274  15.367  19.549  0.00  0.00    +0.000 A 
ATOM     26  C   UNL     1       3.054  15.321  18.861  0.00  0.00    +0.000 A 
ATOM     27  C   UNL     1       1.884  14.842  19.464  0.00  0.00    +0.000 A 
BRANCH  25  28
ATOM     28  N   UNL     1       5.468  15.699  18.943  0.00  0.00    +0.000 N 
ATOM     29  C   UNL     1       6.045  14.869  17.879  0.00  0.00    +0.000 C 
ATOM     30  C   UNL     1       7.578  14.969  17.957  0.00  0.00    +0.000 C 
ATOM     31  O   UNL     1       8.029  16.332  17.873  0.00  0.00    +0.000 OA
ATOM     32  C   UNL     1       7.470  17.109  18.947  0.00  0.00    +0.000 C 
ATOM     33  C   UNL     1       5.932  17.096  18.916  0.00  0.00    +0.000 C 
ENDBRANCH  25  28
ENDBRANCH   6  22
TORSDOF 6
ENDMDL
MODEL 3
REMARK VINA RESULT:      -7.6      4.467      8.873
REMARK  Name = 
REMARK  6 active torsions:
REMARK  status: ('A' for Active; 'I' for Inactive)
REMARK    1  A    between atoms: C_2  and  C_3
REMARK    2  A    between atoms: C_3  and  C_4
REMARK    3  A    between atoms: N_6  and  C_7
REMARK    4  A    between atoms: C_11  and  C_12
REMARK    5  A    between atoms: N_17  and  C_18
REMARK    6  A    between atoms: C_21  and  N_22
REMARK                            x       y       z     vdW  Elec       q    Type
REMARK                         _______ _______ _______ _____ _____    ______ ____
ROOT
ATOM      1  C   UNL     1      -0.983  10.726  19.445  0.00  0.00    +0.000 A 
ATOM      2  C   UNL     1       0.297  10.218  19.320  0.00  0.00    +0.000 A 
ATOM      3  C   UNL     1       1.059  10.184  20.462  0.00  0.00    +0.000 A 
ATOM      4  N   UNL     1       0.625  10.624  21.652  0.00  0.00    +0.000 NA
ATOM      5  C   UNL     1      -0.612  11.140  21.691  0.00  0.00    +0.000 A 
ATOM      6  N   UNL     1      -1.014  11.638  22.928  0.00  0.00    +0.000 N 
ATOM      7  N   UNL     1      -1.437  11.180  20.628  0.00  0.00    +0.000 NA
ATOM      8  H   UNL     1      -0.306  11.445  23.621  0.00  0.00    +0.000 HD
ENDROOT
BRANCH   1  13
ATOM      9  C   UNL     1      -4.026  11.587  17.293  0.00  0.00    +0.000 A 
ATOM     10  C   UNL     1      -3.828  10.712  16.226  0.00  0.00    +0.000 A 
ATOM     11  C   UNL     1      -2.699   9.900  16.170  0.00  0.00    +0.000 A 
ATOM     12  C   UNL     1      -1.764   9.933  17.199  0.00  0.00    +0.000 A 
ATOM     13  C   UNL     1      -1.927  10.784  18.305  0.00  0.00    +0.000 A 
ATOM     14  C   UNL     1      -3.050  11.650  18.307  0.00  0.00    +0.000 A 
BRANCH   9  17
ATOM     15  C   UNL     1      -6.443  11.944  17.842  0.00  0.00    +0.000 C 
ATOM     16  O   UNL     1      -6.704  10.802  18.214  0.00  0.00    +0.000 OA
ATOM     17  N   UNL     1      -5.192  12.396  17.409  0.00  0.00    +0.000 N 
ATOM     18  H   UNL     1      -5.048  13.391  17.305  0.00  0.00    +0.000 HD
BRANCH  15  19
ATOM     19  C   UNL     1      -7.528  12.995  17.877  0.00  0.00    +0.000 C 
BRANCH  19  21
ATOM     20  N   UNL     1      -6.879  15.019  16.083  0.00  0.00    +0.000 NA
ATOM     21  C   UNL     1      -7.174  14.102  16.897  0.00  0.00    +0.000 C 
ENDBRANCH  19  21
ENDBRANCH  15  19
ENDBRANCH   9  17
ENDBRANCH   1  13
BRANCH   6  22
ATOM     22  C   UNL     1      -1.939  12.639  23.239  0.00  0.00    +0.000 A 
ATOM     23  C   UNL     1      -1.671  13.998  23.082  0.00  0.00    +0.000 A 
ATOM     24  C   UNL     1      -2.660  14.964  23.289  0.00  0.00    +0.000 A 
ATOM     25  C   UNL     1      -3.969  14.613  23.633  0.00  0.00    +0.000 A 
ATOM     26  C   UNL     1      -4.225  13.248  23.821  0.00  0.00    +0.000 A 
ATOM     27  C   UNL     1      -3.234  12.278  23.625  0.00  0.00    +0.000 A 
BRANCH  25  28
ATOM     28  N   UNL     1      -4.955  15.577  23.679  0.00  0.00    +0.000 N 
ATOM     29  C   UNL     1      -6.288  15.340  23.111  0.00  0.00    +0.000 C 
ATOM     30  C   UNL     1      -6.846  16.679  22.597  0.00  0.00    +0.000 C 
ATOM     31  O   UNL     1      -6.878  17.676  23.632  0.00  0.00    +0.000 OA
ATOM     32  C   UNL     1      -5.553  17.906  24.144  0.00  0.00    +0.000 C 
ATOM     33  C   UNL     1      -4.936  16.619  24.719  0.00  0.00    +0.000 C 
ENDBRANCH  25  28
ENDBRANCH   6  22
TORSDOF 6
ENDMDL
MODEL 4
REMARK VINA RESULT:      -7.6      4.895      9.920
REMARK  Name = 
REMARK  6 active torsions:
REMARK  status: ('A' for Active; 'I' for Inactive)
REMARK    1  A    between atoms: C_2  and  C_3
REMARK    2  A    between atoms: C_3  and  C_4
REMARK    3  A    between atoms: N_6  and  C_7
REMARK    4  A    between atoms: C_11  and  C_12
REMARK    5  A    between atoms: N_17  and  C_18
REMARK    6  A    between atoms: C_21  and  N_22
REMARK                            x       y       z     vdW  Elec       q    Type
REMARK                         _______ _______ _______ _____ _____    ______ ____
ROOT
ATOM      1  C   UNL     1       0.603   9.551  21.258  0.00  0.00    +0.000 A 
ATOM      2  C   UNL     1      -0.116   9.191  22.383  0.00  0.00    +0.000 A 
ATOM      3  C   UNL     1      -0.687  10.213  23.100  0.00  0.00    +0.000 A 
ATOM      4  N   UNL     1      -0.565  11.506  22.767  0.00  0.00    +0.000 NA
ATOM      5  C   UNL     1       0.178  11.784  21.687  0.00  0.00    +0.000 A 
ATOM      6  N   UNL     1       0.331  13.139  21.398  0.00  0.00    +0.000 N 
ATOM      7  N   UNL     1       0.745  10.843  20.909  0.00  0.00    +0.000 NA
ATOM      8  H   UNL     1      -0.230  13.688  22.031  0.00  0.00    +0.000 HD
ENDROOT
BRANCH   1  13
ATOM      9  C   UNL     1       2.294   6.351  20.022  0.00  0.00    +0.000 A 
ATOM     10  C   UNL     1       2.650   6.742  18.732  0.00  0.00    +0.000 A 
ATOM     11  C   UNL     1       2.295   7.997  18.245  0.00  0.00    +0.000 A 
ATOM     12  C   UNL     1       1.603   8.890  19.056  0.00  0.00    +0.000 A 
ATOM     13  C   UNL     1       1.238   8.550  20.369  0.00  0.00    +0.000 A 
ATOM     14  C   UNL     1       1.551   7.242  20.820  0.00  0.00    +0.000 A 
BRANCH   9  17
ATOM     15  C   UNL     1       1.838   3.992  20.729  0.00  0.00    +0.000 C 
ATOM     16  O   UNL     1       0.659   3.936  20.387  0.00  0.00    +0.000 OA
ATOM     17  N   UNL     1       2.683   5.095  20.572  0.00  0.00    +0.000 N 
ATOM     18  H   UNL     1       3.675   4.969  20.718  0.00  0.00    +0.000 HD
BRANCH  15  19
ATOM     19  C   UNL     1       2.485   2.771  21.340  0.00  0.00    +0.000 C 
BRANCH  19  21
ATOM     20  N   UNL     1       4.845   2.222  19.973  0.00  0.00    +0.000 NA
ATOM     21  C   UNL     1       3.775   2.471  20.592  0.00  0.00    +0.000 C 
ENDBRANCH  19  21
ENDBRANCH  15  19
ENDBRANCH   9  17
ENDBRANCH   1  13
BRANCH   6  22
ATOM     22  C   UNL     1       1.363  13.807  20.733  0.00  0.00    +0.000 A 
ATOM     23  C   UNL     1       1.832  15.061  21.120  0.00  0.00    +0.000 A 
ATOM     24  C   UNL     1       2.944  15.645  20.506  0.00  0.00    +0.000 A 
ATOM     25  C   UNL     1       3.655  14.988  19.498  0.00  0.00    +0.000 A 
ATOM     26  C   UNL     1       3.161  13.742  19.089  0.00  0.00    +0.000 A 
ATOM     27  C   UNL     1       2.040  13.158  19.694  0.00  0.00    +0.000 A 
BRANCH  25  28
ATOM     28  N   UNL     1       4.834  15.523  19.021  0.00  0.00    +0.000 N 
ATOM     29  C   UNL     1       5.518  14.955  17.853  0.00  0.00    +0.000 C 
ATOM     30  C   UNL     1       7.033  15.164  18.023  0.00  0.00    +0.000 C 
ATOM     31  O   UNL     1       7.362  16.551  18.211  0.00  0.00    +0.000 OA
ATOM     32  C   UNL     1       6.701  17.067  19.380  0.00  0.00    +0.000 C 
ATOM     33  C   UNL     1       5.172  16.934  19.271  0.00  0.00    +0.000 C 
ENDBRANCH  25  28
ENDBRANCH   6  22
TORSDOF 6
ENDMDL
MODEL 5
REMARK VINA RESULT:      -7.5      4.308     10.465
REMARK  Name = 
REMARK  6 active torsions:
REMARK  status: ('A' for Active; 'I' for Inactive)
REMARK    1  A    between atoms: C_2  and  C_3
REMARK    2  A    between atoms: C_3  and  C_4
REMARK    3  A    between atoms: N_6  and  C_7
REMARK    4  A    between atoms: C_11  and  C_12
REMARK    5  A    between atoms: N_17  and  C_18
REMARK    6  A    between atoms: C_21  and  N_22
REMARK                            x       y       z     vdW  Elec       q    Type
REMARK                         _______ _______ _______ _____ _____    ______ ____
ROOT
ATOM      1  C   UNL     1       4.250   4.229  19.039  0.00  0.00    +0.000 A 
ATOM      2  C   UNL     1       4.341   3.021  19.706  0.00  0.00    +0.000 A 
ATOM      3  C   UNL     1       3.371   2.761  20.642  0.00  0.00    +0.000 A 
ATOM      4  N   UNL     1       2.379   3.616  20.933  0.00  0.00    +0.000 NA
ATOM      5  C   UNL     1       2.377   4.785  20.277  0.00  0.00    +0.000 A 
ATOM      6  N   UNL     1       1.367   5.673  20.640  0.00  0.00    +0.000 N 
ATOM      7  N   UNL     1       3.269   5.105  19.321  0.00  0.00    +0.000 NA
ATOM      8  H   UNL     1       0.746   5.232  21.302  0.00  0.00    +0.000 HD
ENDROOT
BRANCH   1  13
ATOM      9  C   UNL     1       6.642   6.306  16.895  0.00  0.00    +0.000 A 
ATOM     10  C   UNL     1       6.840   5.430  15.828  0.00  0.00    +0.000 A 
ATOM     11  C   UNL     1       6.261   4.165  15.829  0.00  0.00    +0.000 A 
ATOM     12  C   UNL     1       5.450   3.768  16.887  0.00  0.00    +0.000 A 
ATOM     13  C   UNL     1       5.206   4.621  17.976  0.00  0.00    +0.000 A 
ATOM     14  C   UNL     1       5.860   5.879  17.986  0.00  0.00    +0.000 A 
BRANCH   9  17
ATOM     15  C   UNL     1       8.050   8.130  17.875  0.00  0.00    +0.000 C 
ATOM     16  O   UNL     1       8.505   7.502  18.829  0.00  0.00    +0.000 OA
ATOM     17  N   UNL     1       7.177   7.626  16.907  0.00  0.00    +0.000 N 
ATOM     18  H   UNL     1       7.016   8.172  16.071  0.00  0.00    +0.000 HD
BRANCH  15  19
ATOM     19  C   UNL     1       8.477   9.565  17.670  0.00  0.00    +0.000 C 
BRANCH  19  21
ATOM     20  N   UNL     1       9.450  10.569  20.075  0.00  0.00    +0.000 NA
ATOM     21  C   UNL     1       9.009  10.113  18.985  0.00  0.00    +0.000 C 
ENDBRANCH  19  21
ENDBRANCH  15  19
ENDBRANCH   9  17
ENDBRANCH   1  13
BRANCH   6  22
ATOM     22  C   UNL     1       1.330   7.069  20.579  0.00  0.00    +0.000 A 
ATOM     23  C   UNL     1       1.783   7.796  19.479  0.00  0.00    +0.000 A 
ATOM     24  C   UNL     1       1.620   9.181  19.404  0.00  0.00    +0.000 A 
ATOM     25  C   UNL     1       0.968   9.900  20.411  0.00  0.00    +0.000 A 
ATOM     26  C   UNL     1       0.542   9.170  21.528  0.00  0.00    +0.000 A 
ATOM     27  C   UNL     1       0.714   7.783  21.613  0.00  0.00    +0.000 A 
BRANCH  25  28
ATOM     28  N   UNL     1       0.688  11.240  20.235  0.00  0.00    +0.000 N 
ATOM     29  C   UNL     1       0.029  12.030  21.282  0.00  0.00    +0.000 C 
ATOM     30  C   UNL     1      -0.823  13.120  20.609  0.00  0.00    +0.000 C 
ATOM     31  O   UNL     1      -0.037  13.946  19.733  0.00  0.00    +0.000 OA
ATOM     32  C   UNL     1       0.569  13.146  18.702  0.00  0.00    +0.000 C 
ATOM     33  C   UNL     1       1.475  12.052  19.293  0.00  0.00    +0.000 C 
ENDBRANCH  25  28
ENDBRANCH   6  22
TORSDOF 6
ENDMDL
MODEL 6
REMARK VINA RESULT:      -7.5      4.059     10.762
REMARK  Name = 
REMARK  6 active torsions:
REMARK  status: ('A' for Active; 'I' for Inactive)
REMARK    1  A    between atoms: C_2  and  C_3
REMARK    2  A    between atoms: C_3  and  C_4
REMARK    3  A    between atoms: N_6  and  C_7
REMARK    4  A    between atoms: C_11  and  C_12
REMARK    5  A    between atoms: N_17  and  C_18
REMARK    6  A    between atoms: C_21  and  N_22
REMARK                            x       y       z     vdW  Elec       q    Type
REMARK                         _______ _______ _______ _____ _____    ______ ____
ROOT
ATOM      1  C   UNL     1       4.340   4.402  18.797  0.00  0.00    +0.000 A 
ATOM      2  C   UNL     1       4.475   3.258  19.561  0.00  0.00    +0.000 A 
ATOM      3  C   UNL     1       3.565   3.084  20.574  0.00  0.00    +0.000 A 
ATOM      4  N   UNL     1       2.591   3.964  20.849  0.00  0.00    +0.000 NA
ATOM      5  C   UNL     1       2.544   5.070  20.093  0.00  0.00    +0.000 A 
ATOM      6  N   UNL     1       1.556   5.989  20.437  0.00  0.00    +0.000 N 
ATOM      7  N   UNL     1       3.375   5.302  19.059  0.00  0.00    +0.000 NA
ATOM      8  H   UNL     1       0.978   5.610  21.173  0.00  0.00    +0.000 HD
ENDROOT
BRANCH   1  13
ATOM      9  C   UNL     1       6.020   4.204  15.366  0.00  0.00    +0.000 A 
ATOM     10  C   UNL     1       7.067   5.106  15.552  0.00  0.00    +0.000 A 
ATOM     11  C   UNL     1       7.194   5.814  16.744  0.00  0.00    +0.000 A 
ATOM     12  C   UNL     1       6.288   5.607  17.779  0.00  0.00    +0.000 A 
ATOM     13  C   UNL     1       5.227   4.696  17.647  0.00  0.00    +0.000 A 
ATOM     14  C   UNL     1       5.079   4.036  16.400  0.00  0.00    +0.000 A 
BRANCH   9  17
ATOM     15  C   UNL     1       6.484   3.725  12.952  0.00  0.00    +0.000 C 
ATOM     16  O   UNL     1       7.232   4.674  12.730  0.00  0.00    +0.000 OA
ATOM     17  N   UNL     1       5.886   3.426  14.180  0.00  0.00    +0.000 N 
ATOM     18  H   UNL     1       5.443   2.525  14.295  0.00  0.00    +0.000 HD
BRANCH  15  19
ATOM     19  C   UNL     1       6.189   2.746  11.840  0.00  0.00    +0.000 C 
BRANCH  19  21
ATOM     20  N   UNL     1       3.567   3.113  10.988  0.00  0.00    +0.000 NA
ATOM     21  C   UNL     1       4.756   2.946  11.374  0.00  0.00    +0.000 C 
ENDBRANCH  19  21
ENDBRANCH  15  19
ENDBRANCH   9  17
ENDBRANCH   1  13
BRANCH   6  22
ATOM     22  C   UNL     1       1.511   7.374  20.255  0.00  0.00    +0.000 A 
ATOM     23  C   UNL     1       1.821   7.994  19.046  0.00  0.00    +0.000 A 
ATOM     24  C   UNL     1       1.649   9.369  18.867  0.00  0.00    +0.000 A 
ATOM     25  C   UNL     1       1.130  10.182  19.878  0.00  0.00    +0.000 A 
ATOM     26  C   UNL     1       0.850   9.561  21.102  0.00  0.00    +0.000 A 
ATOM     27  C   UNL     1       1.031   8.185  21.290  0.00  0.00    +0.000 A 
BRANCH  25  28
ATOM     28  N   UNL     1       0.829  11.504  19.619  0.00  0.00    +0.000 N 
ATOM     29  C   UNL     1      -0.535  11.930  19.282  0.00  0.00    +0.000 C 
ATOM     30  C   UNL     1      -0.451  13.137  18.333  0.00  0.00    +0.000 C 
ATOM     31  O   UNL     1       0.317  14.211  18.903  0.00  0.00    +0.000 OA
ATOM     32  C   UNL     1       1.655  13.769  19.191  0.00  0.00    +0.000 C 
ATOM     33  C   UNL     1       1.662  12.585  20.172  0.00  0.00    +0.000 C 
ENDBRANCH  25  28
ENDBRANCH   6  22
TORSDOF 6
ENDMDL
MODEL 7
REMARK VINA RESULT:      -7.5      4.190      8.461
REMARK  Name = 
REMARK  6 active torsions:
REMARK  status: ('A' for Active; 'I' for Inactive)
REMARK    1  A    between atoms: C_2  and  C_3
REMARK    2  A    between atoms: C_3  and  C_4
REMARK    3  A    between atoms: N_6  and  C_7
REMARK    4  A    between atoms: C_11  and  C_12
REMARK    5  A    between atoms: N_17  and  C_18
REMARK    6  A    between atoms: C_21  and  N_22
REMARK                            x       y       z     vdW  Elec       q    Type
REMARK                         _______ _______ _______ _____ _____    ______ ____
ROOT
ATOM      1  C   UNL     1      -0.896  10.385  18.596  0.00  0.00    +0.000 A 
ATOM      2  C   UNL     1       0.317   9.807  18.270  0.00  0.00    +0.000 A 
ATOM      3  C   UNL     1       1.213   9.638  19.296  0.00  0.00    +0.000 A 
ATOM      4  N   UNL     1       0.967  10.014  20.559  0.00  0.00    +0.000 NA
ATOM      5  C   UNL     1      -0.214  10.603  20.795  0.00  0.00    +0.000 A 
ATOM      6  N   UNL     1      -0.418  11.031  22.105  0.00  0.00    +0.000 N 
ATOM      7  N   UNL     1      -1.162  10.777  19.856  0.00  0.00    +0.000 NA
ATOM      8  H   UNL     1       0.356  10.741  22.684  0.00  0.00    +0.000 HD
ENDROOT
BRANCH   1  13
ATOM      9  C   UNL     1      -4.142  11.556  16.944  0.00  0.00    +0.000 A 
ATOM     10  C   UNL     1      -4.115  10.790  15.779  0.00  0.00    +0.000 A 
ATOM     11  C   UNL     1      -3.038   9.955  15.500  0.00  0.00    +0.000 A 
ATOM     12  C   UNL     1      -1.982   9.853  16.400  0.00  0.00    +0.000 A 
ATOM     13  C   UNL     1      -1.970  10.590  17.596  0.00  0.00    +0.000 A 
ATOM     14  C   UNL     1      -3.046  11.484  17.827  0.00  0.00    +0.000 A 
BRANCH   9  17
ATOM     15  C   UNL     1      -6.405  11.946  17.941  0.00  0.00    +0.000 C 
ATOM     16  O   UNL     1      -6.616  10.804  18.341  0.00  0.00    +0.000 OA
ATOM     17  N   UNL     1      -5.249  12.383  17.288  0.00  0.00    +0.000 N 
ATOM     18  H   UNL     1      -5.106  13.377  17.171  0.00  0.00    +0.000 HD
BRANCH  15  19
ATOM     19  C   UNL     1      -7.443  13.016  18.193  0.00  0.00    +0.000 C 
BRANCH  19  21
ATOM     20  N   UNL     1      -7.865  13.232  20.934  0.00  0.00    +0.000 NA
ATOM     21  C   UNL     1      -7.674  13.134  19.691  0.00  0.00    +0.000 C 
ENDBRANCH  19  21
ENDBRANCH  15  19
ENDBRANCH   9  17
ENDBRANCH   1  13
BRANCH   6  22
ATOM     22  C   UNL     1      -1.220  12.063  22.602  0.00  0.00    +0.000 A 
ATOM     23  C   UNL     1      -0.928  13.412  22.413  0.00  0.00    +0.000 A 
ATOM     24  C   UNL     1      -1.814  14.413  22.820  0.00  0.00    +0.000 A 
ATOM     25  C   UNL     1      -3.047  14.110  23.405  0.00  0.00    +0.000 A 
ATOM     26  C   UNL     1      -3.322  12.753  23.622  0.00  0.00    +0.000 A 
ATOM     27  C   UNL     1      -2.432  11.747  23.226  0.00  0.00    +0.000 A 
BRANCH  25  28
ATOM     28  N   UNL     1      -3.962  15.113  23.653  0.00  0.00    +0.000 N 
ATOM     29  C   UNL     1      -3.546  16.419  24.178  0.00  0.00    +0.000 C 
ATOM     30  C   UNL     1      -4.681  16.979  25.052  0.00  0.00    +0.000 C 
ATOM     31  O   UNL     1      -5.919  17.066  24.326  0.00  0.00    +0.000 OA
ATOM     32  C   UNL     1      -6.313  15.766  23.853  0.00  0.00    +0.000 C 
ATOM     33  C   UNL     1      -5.246  15.150  22.933  0.00  0.00    +0.000 C 
ENDBRANCH  25  28
ENDBRANCH   6  22
TORSDOF 6
ENDMDL
MODEL 8
REMARK VINA RESULT:      -7.4      5.376      9.790
REMARK  Name = 
REMARK  6 active torsions:
REMARK  status: ('A' for Active; 'I' for Inactive)
REMARK    1  A    between atoms: C_2  and  C_3
REMARK    2  A    between atoms: C_3  and  C_4
REMARK    3  A    between atoms: N_6  and  C_7
REMARK    4  A    between atoms: C_11  and  C_12
REMARK    5  A    between atoms: N_17  and  C_18
REMARK    6  A    between atoms: C_21  and  N_22
REMARK                            x       y       z     vdW  Elec       q    Type
REMARK                         _______ _______ _______ _____ _____    ______ ____
ROOT
ATOM      1  C   UNL     1       0.723  10.317  19.915  0.00  0.00    +0.000 A 
ATOM      2  C   UNL     1      -0.389  10.182  20.726  0.00  0.00    +0.000 A 
ATOM      3  C   UNL     1      -0.971  11.344  21.168  0.00  0.00    +0.000 A 
ATOM      4  N   UNL     1      -0.506  12.565  20.864  0.00  0.00    +0.000 NA
ATOM      5  C   UNL     1       0.599  12.618  20.106  0.00  0.00    +0.000 A 
ATOM      6  N   UNL     1       1.089  13.898  19.852  0.00  0.00    +0.000 N 
ATOM      7  N   UNL     1       1.213  11.531  19.603  0.00  0.00    +0.000 NA
ATOM      8  H   UNL     1       0.458  14.587  20.232  0.00  0.00    +0.000 HD
ENDROOT
BRANCH   1  13
ATOM      9  C   UNL     1       2.404   6.898  19.565  0.00  0.00    +0.000 A 
ATOM     10  C   UNL     1       2.961   7.026  18.294  0.00  0.00    +0.000 A 
ATOM     11  C   UNL     1       2.748   8.173  17.535  0.00  0.00    +0.000 A 
ATOM     12  C   UNL     1       1.994   9.222  18.052  0.00  0.00    +0.000 A 
ATOM     13  C   UNL     1       1.426   9.148  19.335  0.00  0.00    +0.000 A 
ATOM     14  C   UNL     1       1.602   7.943  20.062  0.00  0.00    +0.000 A 
BRANCH   9  17
ATOM     15  C   UNL     1       1.991   4.530  20.268  0.00  0.00    +0.000 C 
ATOM     16  O   UNL     1       1.152   4.243  19.417  0.00  0.00    +0.000 OA
ATOM     17  N   UNL     1       2.642   5.761  20.390  0.00  0.00    +0.000 N 
ATOM     18  H   UNL     1       3.442   5.826  21.005  0.00  0.00    +0.000 HD
BRANCH  15  19
ATOM     19  C   UNL     1       2.416   3.478  21.265  0.00  0.00    +0.000 C 
BRANCH  19  21
ATOM     20  N   UNL     1       4.623   2.119  20.254  0.00  0.00    +0.000 NA
ATOM     21  C   UNL     1       3.623   2.735  20.713  0.00  0.00    +0.000 C 
ENDBRANCH  19  21
ENDBRANCH  15  19
ENDBRANCH   9  17
ENDBRANCH   1  13
BRANCH   6  22
ATOM     22  C   UNL     1       2.391  14.325  19.573  0.00  0.00    +0.000 A 
ATOM     23  C   UNL     1       3.353  14.531  20.560  0.00  0.00    +0.000 A 
ATOM     24  C   UNL     1       4.675  14.842  20.234  0.00  0.00    +0.000 A 
ATOM     25  C   UNL     1       5.103  14.932  18.907  0.00  0.00    +0.000 A 
ATOM     26  C   UNL     1       4.126  14.757  17.918  0.00  0.00    +0.000 A 
ATOM     27  C   UNL     1       2.796  14.456  18.240  0.00  0.00    +0.000 A 
BRANCH  25  28
ATOM     28  N   UNL     1       6.444  15.088  18.620  0.00  0.00    +0.000 N 
ATOM     29  C   UNL     1       7.136  14.203  17.676  0.00  0.00    +0.000 C 
ATOM     30  C   UNL     1       8.602  14.063  18.120  0.00  0.00    +0.000 C 
ATOM     31  O   UNL     1       9.251  15.342  18.224  0.00  0.00    +0.000 OA
ATOM     32  C   UNL     1       8.568  16.173  19.179  0.00  0.00    +0.000 C 
ATOM     33  C   UNL     1       7.098  16.398  18.785  0.00  0.00    +0.000 C 
ENDBRANCH  25  28
ENDBRANCH   6  22
TORSDOF 6
ENDMDL
MODEL 9
REMARK VINA RESULT:      -7.4      4.858      9.896
REMARK  Name = 
REMARK  6 active torsions:
REMARK  status: ('A' for Active; 'I' for Inactive)
REMARK    1  A    between atoms: C_2  and  C_3
REMARK    2  A    between atoms: C_3  and  C_4
REMARK    3  A    between atoms: N_6  and  C_7
REMARK    4  A    between atoms: C_11  and  C_12
REMARK    5  A    between atoms: N_17  and  C_18
REMARK    6  A    between atoms: C_21  and  N_22
REMARK                            x       y       z     vdW  Elec       q    Type
REMARK                         _______ _______ _______ _____ _____    ______ ____
ROOT
ATOM      1  C   UNL     1       1.013   9.123  20.659  0.00  0.00    +0.000 A 
ATOM      2  C   UNL     1       0.306   8.625  21.739  0.00  0.00    +0.000 A 
ATOM      3  C   UNL     1      -0.295   9.547  22.558  0.00  0.00    +0.000 A 
ATOM      4  N   UNL     1      -0.212  10.871  22.365  0.00  0.00    +0.000 NA
ATOM      5  C   UNL     1       0.522  11.284  21.322  0.00  0.00    +0.000 A 
ATOM      6  N   UNL     1       0.634  12.666  21.178  0.00  0.00    +0.000 N 
ATOM      7  N   UNL     1       1.116  10.448  20.449  0.00  0.00    +0.000 NA
ATOM      8  H   UNL     1       0.057  13.128  21.865  0.00  0.00    +0.000 HD
ENDROOT
BRANCH   1  13
ATOM      9  C   UNL     1       2.538   6.030  19.004  0.00  0.00    +0.000 A 
ATOM     10  C   UNL     1       3.141   6.618  17.892  0.00  0.00    +0.000 A 
ATOM     11  C   UNL     1       3.006   7.981  17.646  0.00  0.00    +0.000 A 
ATOM     12  C   UNL     1       2.287   8.782  18.528  0.00  0.00    +0.000 A 
ATOM     13  C   UNL     1       1.677   8.241  19.671  0.00  0.00    +0.000 A 
ATOM     14  C   UNL     1       1.771   6.839  19.866  0.00  0.00    +0.000 A 
BRANCH   9  17
ATOM     15  C   UNL     1       1.998   3.604  18.701  0.00  0.00    +0.000 C 
ATOM     16  O   UNL     1       1.183   3.722  17.790  0.00  0.00    +0.000 OA
ATOM     17  N   UNL     1       2.695   4.649  19.315  0.00  0.00    +0.000 N 
ATOM     18  H   UNL     1       3.471   4.422  19.921  0.00  0.00    +0.000 HD
BRANCH  15  19
ATOM     19  C   UNL     1       2.339   2.221  19.207  0.00  0.00    +0.000 C 
BRANCH  19  21
ATOM     20  N   UNL     1       4.917   2.256  20.252  0.00  0.00    +0.000 NA
ATOM     21  C   UNL     1       3.748   2.240  19.779  0.00  0.00    +0.000 C 
ENDBRANCH  19  21
ENDBRANCH  15  19
ENDBRANCH   9  17
ENDBRANCH   1  13
BRANCH   6  22
ATOM     22  C   UNL     1       1.645  13.432  20.589  0.00  0.00    +0.000 A 
ATOM     23  C   UNL     1       2.417  14.348  21.300  0.00  0.00    +0.000 A 
ATOM     24  C   UNL     1       3.497  15.007  20.705  0.00  0.00    +0.000 A 
ATOM     25  C   UNL     1       3.871  14.757  19.381  0.00  0.00    +0.000 A 
ATOM     26  C   UNL     1       3.072  13.859  18.661  0.00  0.00    +0.000 A 
ATOM     27  C   UNL     1       1.982  13.205  19.250  0.00  0.00    +0.000 A 
BRANCH  25  28
ATOM     28  N   UNL     1       5.030  15.307  18.873  0.00  0.00    +0.000 N 
ATOM     29  C   UNL     1       5.779  14.656  17.791  0.00  0.00    +0.000 C 
ATOM     30  C   UNL     1       7.273  14.975  17.970  0.00  0.00    +0.000 C 
ATOM     31  O   UNL     1       7.516  16.391  18.008  0.00  0.00    +0.000 OA
ATOM     32  C   UNL     1       6.793  16.992  19.097  0.00  0.00    +0.000 C 
ATOM     33  C   UNL     1       5.278  16.755  18.972  0.00  0.00    +0.000 C 
ENDBRANCH  25  28
ENDBRANCH   6  22
TORSDOF 6
ENDMDL
