MODEL 1
REMARK VINA RESULT:      -8.3      0.000      0.000
REMARK  Name = 
REMARK  5 active torsions:
REMARK  status: ('A' for Active; 'I' for Inactive)
REMARK    1  A    between atoms: C_1  and  S_2
REMARK    2  A    between atoms: S_2  and  C_5
REMARK    3  A    between atoms: C_10  and  C_11
REMARK    4  A    between atoms: C_16  and  C_18
REMARK    5  A    between atoms: C_18  and  C_19
REMARK                            x       y       z     vdW  Elec       q    Type
REMARK                         _______ _______ _______ _____ _____    ______ ____
ROOT
ATOM      1  C   UNL     1       3.238   6.863  18.369  0.00  0.00    +0.000 A 
ATOM      2  N   UNL     1       2.783   6.735  19.596  0.00  0.00    +0.000 NA
ATOM      3  N   UNL     1       1.925   7.795  19.808  0.00  0.00    +0.000 NA
ATOM      4  C   UNL     1       1.890   8.488  18.691  0.00  0.00    +0.000 A 
ATOM      5  N   UNL     1       1.176   9.598  18.340  0.00  0.00    +0.000 N 
ATOM      6  C   UNL     1       0.265  10.156  19.211  0.00  0.00    +0.000 C 
ATOM      7  O   UNL     1      -0.010   9.736  20.330  0.00  0.00    +0.000 OA
ATOM      8  O   UNL     1       2.698   7.955  17.722  0.00  0.00    +0.000 OA
ATOM      9  H   UNL     1       1.290   9.946  17.403  0.00  0.00    +0.000 HD
ENDROOT
BRANCH   1  15
ATOM     10  C   UNL     1       3.782   4.618  17.310  0.00  0.00    +0.000 A 
ATOM     11  C   UNL     1       4.614   3.853  16.470  0.00  0.00    +0.000 A 
ATOM     12  C   UNL     1       5.740   4.419  15.880  0.00  0.00    +0.000 A 
ATOM     13  C   UNL     1       6.052   5.748  16.137  0.00  0.00    +0.000 A 
ATOM     14  C   UNL     1       5.236   6.508  16.979  0.00  0.00    +0.000 A 
ATOM     15  C   UNL     1       4.081   5.966  17.583  0.00  0.00    +0.000 A 
BRANCH  10  17
ATOM     16  C   UNL     1       2.680   2.054  17.580  0.00  0.00    +0.000 C 
ATOM     17  S   UNL     1       2.408   3.746  18.050  0.00  0.00    +0.000 S 
ATOM     18  O   UNL     1       1.181   4.248  17.468  0.00  0.00    +0.000 OA
ATOM     19  O   UNL     1       2.593   3.820  19.490  0.00  0.00    +0.000 OA
ENDBRANCH  10  17
ENDBRANCH   1  15
BRANCH   6  20
ATOM     20  C   UNL     1      -0.444  11.388  18.662  0.00  0.00    +0.000 C 
BRANCH  20  21
ATOM     21  C   UNL     1      -1.778  11.109  18.006  0.00  0.00    +0.000 A 
ATOM     22  C   UNL     1      -1.928  10.150  16.993  0.00  0.00    +0.000 A 
ATOM     23  C   UNL     1      -3.172   9.930  16.399  0.00  0.00    +0.000 A 
ATOM     24  C   UNL     1      -4.290  10.640  16.831  0.00  0.00    +0.000 A 
ATOM     25  C   UNL     1      -4.170  11.550  17.878  0.00  0.00    +0.000 A 
ATOM     26  C   UNL     1      -2.924  11.778  18.467  0.00  0.00    +0.000 A 
ENDBRANCH  20  21
ENDBRANCH   6  20
TORSDOF 4
ENDMDL
MODEL 2
REMARK VINA RESULT:      -8.3      4.344      8.524
REMARK  Name = 
REMARK  5 active torsions:
REMARK  status: ('A' for Active; 'I' for Inactive)
REMARK    1  A    between atoms: C_1  and  S_2
REMARK    2  A    between atoms: S_2  and  C_5
REMARK    3  A    between atoms: C_10  and  C_11
REMARK    4  A    between atoms: C_16  and  C_18
REMARK    5  A    between atoms: C_18  and  C_19
REMARK                            x       y       z     vdW  Elec       q    Type
REMARK                         _______ _______ _______ _____ _____    ______ ____
ROOT
ATOM      1  C   UNL     1       4.374   5.278  18.254  0.00  0.00    +0.000 A 
ATOM      2  N   UNL     1       5.589   4.904  18.585  0.00  0.00    +0.000 NA
ATOM      3  N   UNL     1       6.284   4.742  17.404  0.00  0.00    +0.000 NA
ATOM      4  C   UNL     1       5.458   5.052  16.428  0.00  0.00    +0.000 A 
ATOM      5  N   UNL     1       5.639   5.105  15.075  0.00  0.00    +0.000 N 
ATOM      6  C   UNL     1       6.874   4.855  14.518  0.00  0.00    +0.000 C 
ATOM      7  O   UNL     1       7.901   4.589  15.134  0.00  0.00    +0.000 OA
ATOM      8  O   UNL     1       4.219   5.409  16.890  0.00  0.00    +0.000 OA
ATOM      9  H   UNL     1       4.858   5.401  14.515  0.00  0.00    +0.000 HD
ENDROOT
BRANCH   1  15
ATOM     10  C   UNL     1       2.516   4.841  19.933  0.00  0.00    +0.000 A 
ATOM     11  C   UNL     1       1.514   5.353  20.778  0.00  0.00    +0.000 A 
ATOM     12  C   UNL     1       1.249   6.718  20.821  0.00  0.00    +0.000 A 
ATOM     13  C   UNL     1       1.971   7.580  20.006  0.00  0.00    +0.000 A 
ATOM     14  C   UNL     1       2.959   7.077  19.157  0.00  0.00    +0.000 A 
ATOM     15  C   UNL     1       3.260   5.699  19.100  0.00  0.00    +0.000 A 
BRANCH  10  17
ATOM     16  C   UNL     1       1.487   2.510  21.102  0.00  0.00    +0.000 C 
ATOM     17  S   UNL     1       2.706   3.064  19.933  0.00  0.00    +0.000 S 
ATOM     18  O   UNL     1       4.041   2.746  20.395  0.00  0.00    +0.000 OA
ATOM     19  O   UNL     1       2.279   2.598  18.624  0.00  0.00    +0.000 OA
ENDBRANCH  10  17
ENDBRANCH   1  15
BRANCH   6  20
ATOM     20  C   UNL     1       6.900   4.958  12.997  0.00  0.00    +0.000 C 
BRANCH  20  21
ATOM     21  C   UNL     1       6.523   3.684  12.273  0.00  0.00    +0.000 A 
ATOM     22  C   UNL     1       5.187   3.327  12.034  0.00  0.00    +0.000 A 
ATOM     23  C   UNL     1       4.876   2.136  11.377  0.00  0.00    +0.000 A 
ATOM     24  C   UNL     1       5.893   1.301  10.919  0.00  0.00    +0.000 A 
ATOM     25  C   UNL     1       7.224   1.672  11.094  0.00  0.00    +0.000 A 
ATOM     26  C   UNL     1       7.537   2.860  11.760  0.00  0.00    +0.000 A 
ENDBRANCH  20  21
ENDBRANCH   6  20
TORSDOF 4
ENDMDL
MODEL 3
REMARK VINA RESULT:      -8.3      0.399      1.014
REMARK  Name = 
REMARK  5 active torsions:
REMARK  status: ('A' for Active; 'I' for Inactive)
REMARK    1  A    between atoms: C_1  and  S_2
REMARK    2  A    between atoms: S_2  and  C_5
REMARK    3  A    between atoms: C_10  and  C_11
REMARK    4  A    between atoms: C_16  and  C_18
REMARK    5  A    between atoms: C_18  and  C_19
REMARK                            x       y       z     vdW  Elec       q    Type
REMARK                         _______ _______ _______ _____ _____    ______ ____
ROOT
ATOM      1  C   UNL     1       3.156   7.049  18.260  0.00  0.00    +0.000 A 
ATOM      2  N   UNL     1       2.657   6.958  19.473  0.00  0.00    +0.000 NA
ATOM      3  N   UNL     1       1.801   8.030  19.625  0.00  0.00    +0.000 NA
ATOM      4  C   UNL     1       1.811   8.693  18.489  0.00  0.00    +0.000 A 
ATOM      5  N   UNL     1       1.120   9.798  18.083  0.00  0.00    +0.000 N 
ATOM      6  C   UNL     1       0.183  10.386  18.905  0.00  0.00    +0.000 C 
ATOM      7  O   UNL     1      -0.135   9.999  20.024  0.00  0.00    +0.000 OA
ATOM      8  O   UNL     1       2.649   8.127  17.565  0.00  0.00    +0.000 OA
ATOM      9  H   UNL     1       1.271  10.119  17.142  0.00  0.00    +0.000 HD
ENDROOT
BRANCH   1  15
ATOM     10  C   UNL     1       3.737   4.763  17.315  0.00  0.00    +0.000 A 
ATOM     11  C   UNL     1       4.589   3.968  16.525  0.00  0.00    +0.000 A 
ATOM     12  C   UNL     1       5.718   4.517  15.926  0.00  0.00    +0.000 A 
ATOM     13  C   UNL     1       6.015   5.858  16.127  0.00  0.00    +0.000 A 
ATOM     14  C   UNL     1       5.180   6.649  16.920  0.00  0.00    +0.000 A 
ATOM     15  C   UNL     1       4.020   6.125  17.530  0.00  0.00    +0.000 A 
BRANCH  10  17
ATOM     16  C   UNL     1       2.627   2.209  17.647  0.00  0.00    +0.000 C 
ATOM     17  S   UNL     1       2.358   3.913  18.073  0.00  0.00    +0.000 S 
ATOM     18  O   UNL     1       1.134   4.403  17.476  0.00  0.00    +0.000 OA
ATOM     19  O   UNL     1       2.539   4.024  19.511  0.00  0.00    +0.000 OA
ENDBRANCH  10  17
ENDBRANCH   1  15
BRANCH   6  20
ATOM     20  C   UNL     1      -0.495  11.608  18.297  0.00  0.00    +0.000 C 
BRANCH  20  21
ATOM     21  C   UNL     1      -1.965  11.426  17.988  0.00  0.00    +0.000 A 
ATOM     22  C   UNL     1      -2.972  11.898  18.843  0.00  0.00    +0.000 A 
ATOM     23  C   UNL     1      -4.319  11.697  18.534  0.00  0.00    +0.000 A 
ATOM     24  C   UNL     1      -4.679  11.054  17.352  0.00  0.00    +0.000 A 
ATOM     25  C   UNL     1      -3.691  10.635  16.464  0.00  0.00    +0.000 A 
ATOM     26  C   UNL     1      -2.343  10.827  16.776  0.00  0.00    +0.000 A 
ENDBRANCH  20  21
ENDBRANCH   6  20
TORSDOF 4
ENDMDL
MODEL 4
REMARK VINA RESULT:      -8.2      6.646      8.729
REMARK  Name = 
REMARK  5 active torsions:
REMARK  status: ('A' for Active; 'I' for Inactive)
REMARK    1  A    between atoms: C_1  and  S_2
REMARK    2  A    between atoms: S_2  and  C_5
REMARK    3  A    between atoms: C_10  and  C_11
REMARK    4  A    between atoms: C_16  and  C_18
REMARK    5  A    between atoms: C_18  and  C_19
REMARK                            x       y       z     vdW  Elec       q    Type
REMARK                         _______ _______ _______ _____ _____    ______ ____
ROOT
ATOM      1  C   UNL     1       6.860   6.102  18.153  0.00  0.00    +0.000 A 
ATOM      2  N   UNL     1       7.899   6.049  18.956  0.00  0.00    +0.000 NA
ATOM      3  N   UNL     1       8.482   7.299  18.926  0.00  0.00    +0.000 NA
ATOM      4  C   UNL     1       7.750   8.045  18.128  0.00  0.00    +0.000 A 
ATOM      5  N   UNL     1       7.849   9.361  17.778  0.00  0.00    +0.000 N 
ATOM      6  C   UNL     1       8.822  10.166  18.331  0.00  0.00    +0.000 C 
ATOM      7  O   UNL     1       9.653   9.821  19.164  0.00  0.00    +0.000 OA
ATOM      8  O   UNL     1       6.693   7.354  17.598  0.00  0.00    +0.000 OA
ATOM      9  H   UNL     1       7.146   9.731  17.162  0.00  0.00    +0.000 HD
ENDROOT
BRANCH   1  15
ATOM     10  C   UNL     1       5.543   4.548  16.635  0.00  0.00    +0.000 A 
ATOM     11  C   UNL     1       4.578   3.531  16.499  0.00  0.00    +0.000 A 
ATOM     12  C   UNL     1       3.894   3.048  17.609  0.00  0.00    +0.000 A 
ATOM     13  C   UNL     1       4.154   3.589  18.862  0.00  0.00    +0.000 A 
ATOM     14  C   UNL     1       5.102   4.606  19.002  0.00  0.00    +0.000 A 
ATOM     15  C   UNL     1       5.822   5.109  17.896  0.00  0.00    +0.000 A 
BRANCH  10  17
ATOM     16  C   UNL     1       5.777   3.917  13.913  0.00  0.00    +0.000 C 
ATOM     17  S   UNL     1       6.299   5.115  15.118  0.00  0.00    +0.000 S 
ATOM     18  O   UNL     1       7.737   5.083  15.283  0.00  0.00    +0.000 OA
ATOM     19  O   UNL     1       5.652   6.371  14.773  0.00  0.00    +0.000 OA
ENDBRANCH  10  17
ENDBRANCH   1  15
BRANCH   6  20
ATOM     20  C   UNL     1       8.792  11.606  17.832  0.00  0.00    +0.000 C 
BRANCH  20  21
ATOM     21  C   UNL     1       9.993  12.436  18.228  0.00  0.00    +0.000 A 
ATOM     22  C   UNL     1      10.064  13.109  19.457  0.00  0.00    +0.000 A 
ATOM     23  C   UNL     1      11.181  13.880  19.783  0.00  0.00    +0.000 A 
ATOM     24  C   UNL     1      12.257  13.963  18.902  0.00  0.00    +0.000 A 
ATOM     25  C   UNL     1      12.227  13.251  17.705  0.00  0.00    +0.000 A 
ATOM     26  C   UNL     1      11.106  12.486  17.374  0.00  0.00    +0.000 A 
ENDBRANCH  20  21
ENDBRANCH   6  20
TORSDOF 4
ENDMDL
MODEL 5
REMARK VINA RESULT:      -8.1      2.693      8.000
REMARK  Name = 
REMARK  5 active torsions:
REMARK  status: ('A' for Active; 'I' for Inactive)
REMARK    1  A    between atoms: C_1  and  S_2
REMARK    2  A    between atoms: S_2  and  C_5
REMARK    3  A    between atoms: C_10  and  C_11
REMARK    4  A    between atoms: C_16  and  C_18
REMARK    5  A    between atoms: C_18  and  C_19
REMARK                            x       y       z     vdW  Elec       q    Type
REMARK                         _______ _______ _______ _____ _____    ______ ____
ROOT
ATOM      1  C   UNL     1       0.902   9.851  18.370  0.00  0.00    +0.000 A 
ATOM      2  N   UNL     1       1.865  10.152  17.528  0.00  0.00    +0.000 NA
ATOM      3  N   UNL     1       2.743   9.087  17.541  0.00  0.00    +0.000 NA
ATOM      4  C   UNL     1       2.249   8.193  18.369  0.00  0.00    +0.000 A 
ATOM      5  N   UNL     1       2.687   6.948  18.720  0.00  0.00    +0.000 N 
ATOM      6  C   UNL     1       3.810   6.404  18.135  0.00  0.00    +0.000 C 
ATOM      7  O   UNL     1       4.498   6.935  17.269  0.00  0.00    +0.000 OA
ATOM      8  O   UNL     1       1.073   8.605  18.936  0.00  0.00    +0.000 OA
ATOM      9  H   UNL     1       2.122   6.422  19.364  0.00  0.00    +0.000 HD
ENDROOT
BRANCH   1  15
ATOM     10  C   UNL     1      -0.469  11.606  19.594  0.00  0.00    +0.000 A 
ATOM     11  C   UNL     1      -1.692  12.286  19.747  0.00  0.00    +0.000 A 
ATOM     12  C   UNL     1      -2.795  11.948  18.969  0.00  0.00    +0.000 A 
ATOM     13  C   UNL     1      -2.690  10.917  18.045  0.00  0.00    +0.000 A 
ATOM     14  C   UNL     1      -1.482  10.231  17.897  0.00  0.00    +0.000 A 
ATOM     15  C   UNL     1      -0.342  10.558  18.662  0.00  0.00    +0.000 A 
BRANCH  10  17
ATOM     16  C   UNL     1       0.087  13.343  21.723  0.00  0.00    +0.000 C 
ATOM     17  S   UNL     1       0.843  12.102  20.702  0.00  0.00    +0.000 S 
ATOM     18  O   UNL     1       1.917  12.670  19.914  0.00  0.00    +0.000 OA
ATOM     19  O   UNL     1       1.120  10.960  21.559  0.00  0.00    +0.000 OA
ENDBRANCH  10  17
ENDBRANCH   1  15
BRANCH   6  20
ATOM     20  C   UNL     1       4.158   5.009  18.640  0.00  0.00    +0.000 C 
BRANCH  20  21
ATOM     21  C   UNL     1       2.971   4.188  19.094  0.00  0.00    +0.000 A 
ATOM     22  C   UNL     1       2.181   3.455  18.196  0.00  0.00    +0.000 A 
ATOM     23  C   UNL     1       1.083   2.722  18.649  0.00  0.00    +0.000 A 
ATOM     24  C   UNL     1       0.779   2.683  20.007  0.00  0.00    +0.000 A 
ATOM     25  C   UNL     1       1.590   3.355  20.918  0.00  0.00    +0.000 A 
ATOM     26  C   UNL     1       2.684   4.097  20.465  0.00  0.00    +0.000 A 
ENDBRANCH  20  21
ENDBRANCH   6  20
TORSDOF 4
ENDMDL
MODEL 6
REMARK VINA RESULT:      -8.1      4.601      8.509
REMARK  Name = 
REMARK  5 active torsions:
REMARK  status: ('A' for Active; 'I' for Inactive)
REMARK    1  A    between atoms: C_1  and  S_2
REMARK    2  A    between atoms: S_2  and  C_5
REMARK    3  A    between atoms: C_10  and  C_11
REMARK    4  A    between atoms: C_16  and  C_18
REMARK    5  A    between atoms: C_18  and  C_19
REMARK                            x       y       z     vdW  Elec       q    Type
REMARK                         _______ _______ _______ _____ _____    ______ ____
ROOT
ATOM      1  C   UNL     1       4.509   5.035  18.107  0.00  0.00    +0.000 A 
ATOM      2  N   UNL     1       5.774   4.868  18.424  0.00  0.00    +0.000 NA
ATOM      3  N   UNL     1       6.467   4.778  17.234  0.00  0.00    +0.000 NA
ATOM      4  C   UNL     1       5.588   4.922  16.266  0.00  0.00    +0.000 A 
ATOM      5  N   UNL     1       5.737   4.959  14.910  0.00  0.00    +0.000 N 
ATOM      6  C   UNL     1       6.988   4.889  14.335  0.00  0.00    +0.000 C 
ATOM      7  O   UNL     1       8.052   4.807  14.938  0.00  0.00    +0.000 OA
ATOM      8  O   UNL     1       4.316   5.095  16.743  0.00  0.00    +0.000 OA
ATOM      9  H   UNL     1       4.911   5.110  14.356  0.00  0.00    +0.000 HD
ENDROOT
BRANCH   1  15
ATOM     10  C   UNL     1       2.544   4.313  19.547  0.00  0.00    +0.000 A 
ATOM     11  C   UNL     1       1.504   4.666  20.428  0.00  0.00    +0.000 A 
ATOM     12  C   UNL     1       1.268   5.998  20.752  0.00  0.00    +0.000 A 
ATOM     13  C   UNL     1       2.058   6.989  20.184  0.00  0.00    +0.000 A 
ATOM     14  C   UNL     1       3.084   6.647  19.301  0.00  0.00    +0.000 A 
ATOM     15  C   UNL     1       3.356   5.303  18.962  0.00  0.00    +0.000 A 
BRANCH  10  17
ATOM     16  C   UNL     1       4.220   2.101  19.950  0.00  0.00    +0.000 C 
ATOM     17  S   UNL     1       2.693   2.571  19.172  0.00  0.00    +0.000 S 
ATOM     18  O   UNL     1       2.781   2.418  17.735  0.00  0.00    +0.000 OA
ATOM     19  O   UNL     1       1.625   1.897  19.893  0.00  0.00    +0.000 OA
ENDBRANCH  10  17
ENDBRANCH   1  15
BRANCH   6  20
ATOM     20  C   UNL     1       6.974   4.944  12.812  0.00  0.00    +0.000 C 
BRANCH  20  21
ATOM     21  C   UNL     1       6.616   3.638  12.137  0.00  0.00    +0.000 A 
ATOM     22  C   UNL     1       7.591   2.725  11.710  0.00  0.00    +0.000 A 
ATOM     23  C   UNL     1       7.225   1.536  11.076  0.00  0.00    +0.000 A 
ATOM     24  C   UNL     1       5.880   1.228  10.888  0.00  0.00    +0.000 A 
ATOM     25  C   UNL     1       4.898   2.096  11.361  0.00  0.00    +0.000 A 
ATOM     26  C   UNL     1       5.264   3.290  11.988  0.00  0.00    +0.000 A 
ENDBRANCH  20  21
ENDBRANCH   6  20
TORSDOF 4
ENDMDL
MODEL 7
REMARK VINA RESULT:      -8.1      4.400      8.729
REMARK  Name = 
REMARK  5 active torsions:
REMARK  status: ('A' for Active; 'I' for Inactive)
REMARK    1  A    between atoms: C_1  and  S_2
REMARK    2  A    between atoms: S_2  and  C_5
REMARK    3  A    between atoms: C_10  and  C_11
REMARK    4  A    between atoms: C_16  and  C_18
REMARK    5  A    between atoms: C_18  and  C_19
REMARK                            x       y       z     vdW  Elec       q    Type
REMARK                         _______ _______ _______ _____ _____    ______ ____
ROOT
ATOM      1  C   UNL     1       4.665   3.992  18.517  0.00  0.00    +0.000 A 
ATOM      2  N   UNL     1       5.954   4.147  18.719  0.00  0.00    +0.000 NA
ATOM      3  N   UNL     1       6.525   4.335  17.477  0.00  0.00    +0.000 NA
ATOM      4  C   UNL     1       5.547   4.309  16.597  0.00  0.00    +0.000 A 
ATOM      5  N   UNL     1       5.546   4.484  15.243  0.00  0.00    +0.000 N 
ATOM      6  C   UNL     1       6.708   4.794  14.570  0.00  0.00    +0.000 C 
ATOM      7  O   UNL     1       7.812   4.957  15.080  0.00  0.00    +0.000 OA
ATOM      8  O   UNL     1       4.328   4.098  17.184  0.00  0.00    +0.000 OA
ATOM      9  H   UNL     1       4.658   4.448  14.772  0.00  0.00    +0.000 HD
ENDROOT
BRANCH   1  15
ATOM     10  C   UNL     1       2.602   4.870  19.714  0.00  0.00    +0.000 A 
ATOM     11  C   UNL     1       1.534   4.636  20.601  0.00  0.00    +0.000 A 
ATOM     12  C   UNL     1       1.406   3.412  21.251  0.00  0.00    +0.000 A 
ATOM     13  C   UNL     1       2.353   2.420  21.032  0.00  0.00    +0.000 A 
ATOM     14  C   UNL     1       3.422   2.651  20.162  0.00  0.00    +0.000 A 
ATOM     15  C   UNL     1       3.572   3.877  19.479  0.00  0.00    +0.000 A 
BRANCH  10  17
ATOM     16  C   UNL     1       1.883   7.534  20.212  0.00  0.00    +0.000 C 
ATOM     17  S   UNL     1       2.678   6.507  18.999  0.00  0.00    +0.000 S 
ATOM     18  O   UNL     1       1.926   6.501  17.761  0.00  0.00    +0.000 OA
ATOM     19  O   UNL     1       4.081   6.888  18.975  0.00  0.00    +0.000 OA
ENDBRANCH  10  17
ENDBRANCH   1  15
BRANCH   6  20
ATOM     20  C   UNL     1       6.529   4.955  13.065  0.00  0.00    +0.000 C 
BRANCH  20  21
ATOM     21  C   UNL     1       6.373   3.656  12.306  0.00  0.00    +0.000 A 
ATOM     22  C   UNL     1       5.116   3.120  11.991  0.00  0.00    +0.000 A 
ATOM     23  C   UNL     1       5.010   1.910  11.303  0.00  0.00    +0.000 A 
ATOM     24  C   UNL     1       6.157   1.236  10.891  0.00  0.00    +0.000 A 
ATOM     25  C   UNL     1       7.411   1.786  11.142  0.00  0.00    +0.000 A 
ATOM     26  C   UNL     1       7.519   2.992  11.839  0.00  0.00    +0.000 A 
ENDBRANCH  20  21
ENDBRANCH   6  20
TORSDOF 4
ENDMDL
MODEL 8
REMARK VINA RESULT:      -7.9      4.621      8.569
REMARK  Name = 
REMARK  5 active torsions:
REMARK  status: ('A' for Active; 'I' for Inactive)
REMARK    1  A    between atoms: C_1  and  S_2
REMARK    2  A    between atoms: S_2  and  C_5
REMARK    3  A    between atoms: C_10  and  C_11
REMARK    4  A    between atoms: C_16  and  C_18
REMARK    5  A    between atoms: C_18  and  C_19
REMARK                            x       y       z     vdW  Elec       q    Type
REMARK                         _______ _______ _______ _____ _____    ______ ____
ROOT
ATOM      1  C   UNL     1       4.917   5.340  17.795  0.00  0.00    +0.000 A 
ATOM      2  N   UNL     1       6.201   5.444  18.055  0.00  0.00    +0.000 NA
ATOM      3  N   UNL     1       6.856   5.332  16.846  0.00  0.00    +0.000 NA
ATOM      4  C   UNL     1       5.932   5.191  15.921  0.00  0.00    +0.000 A 
ATOM      5  N   UNL     1       6.023   5.083  14.563  0.00  0.00    +0.000 N 
ATOM      6  C   UNL     1       7.244   5.166  13.928  0.00  0.00    +0.000 C 
ATOM      7  O   UNL     1       8.326   5.355  14.474  0.00  0.00    +0.000 OA
ATOM      8  O   UNL     1       4.667   5.191  16.447  0.00  0.00    +0.000 OA
ATOM      9  H   UNL     1       5.164   5.011  14.045  0.00  0.00    +0.000 HD
ENDROOT
BRANCH   1  15
ATOM     10  C   UNL     1       3.155   4.458  19.399  0.00  0.00    +0.000 A 
ATOM     11  C   UNL     1       2.101   4.724  20.294  0.00  0.00    +0.000 A 
ATOM     12  C   UNL     1       1.653   6.026  20.497  0.00  0.00    +0.000 A 
ATOM     13  C   UNL     1       2.242   7.069  19.794  0.00  0.00    +0.000 A 
ATOM     14  C   UNL     1       3.281   6.810  18.896  0.00  0.00    +0.000 A 
ATOM     15  C   UNL     1       3.766   5.502  18.678  0.00  0.00    +0.000 A 
BRANCH  10  17
ATOM     16  C   UNL     1       2.188   1.867  19.863  0.00  0.00    +0.000 C 
ATOM     17  S   UNL     1       3.585   2.736  19.190  0.00  0.00    +0.000 S 
ATOM     18  O   UNL     1       4.778   2.464  19.965  0.00  0.00    +0.000 OA
ATOM     19  O   UNL     1       3.595   2.478  17.759  0.00  0.00    +0.000 OA
ENDBRANCH  10  17
ENDBRANCH   1  15
BRANCH   6  20
ATOM     20  C   UNL     1       7.166   5.025  12.413  0.00  0.00    +0.000 C 
BRANCH  20  21
ATOM     21  C   UNL     1       6.699   3.670  11.929  0.00  0.00    +0.000 A 
ATOM     22  C   UNL     1       7.598   2.655  11.569  0.00  0.00    +0.000 A 
ATOM     23  C   UNL     1       7.132   1.421  11.111  0.00  0.00    +0.000 A 
ATOM     24  C   UNL     1       5.763   1.172  11.038  0.00  0.00    +0.000 A 
ATOM     25  C   UNL     1       4.860   2.148  11.451  0.00  0.00    +0.000 A 
ATOM     26  C   UNL     1       5.324   3.386  11.901  0.00  0.00    +0.000 A 
ENDBRANCH  20  21
ENDBRANCH   6  20
TORSDOF 4
ENDMDL
MODEL 9
REMARK VINA RESULT:      -7.9      0.879      1.034
REMARK  Name = 
REMARK  5 active torsions:
REMARK  status: ('A' for Active; 'I' for Inactive)
REMARK    1  A    between atoms: C_1  and  S_2
REMARK    2  A    between atoms: S_2  and  C_5
REMARK    3  A    between atoms: C_10  and  C_11
REMARK    4  A    between atoms: C_16  and  C_18
REMARK    5  A    between atoms: C_18  and  C_19
REMARK                            x       y       z     vdW  Elec       q    Type
REMARK                         _______ _______ _______ _____ _____    ______ ____
ROOT
ATOM      1  C   UNL     1       3.504   6.610  18.140  0.00  0.00    +0.000 A 
ATOM      2  N   UNL     1       3.074   6.444  19.371  0.00  0.00    +0.000 NA
ATOM      3  N   UNL     1       2.243   7.512  19.643  0.00  0.00    +0.000 NA
ATOM      4  C   UNL     1       2.197   8.248  18.554  0.00  0.00    +0.000 A 
ATOM      5  N   UNL     1       1.498   9.385  18.262  0.00  0.00    +0.000 N 
ATOM      6  C   UNL     1       0.618   9.926  19.174  0.00  0.00    +0.000 C 
ATOM      7  O   UNL     1       0.361   9.470  20.283  0.00  0.00    +0.000 OA
ATOM      8  O   UNL     1       2.972   7.736  17.548  0.00  0.00    +0.000 OA
ATOM      9  H   UNL     1       1.598   9.766  17.337  0.00  0.00    +0.000 HD
ENDROOT
BRANCH   1  15
ATOM     10  C   UNL     1       4.111   4.339  17.174  0.00  0.00    +0.000 A 
ATOM     11  C   UNL     1       4.886   3.582  16.275  0.00  0.00    +0.000 A 
ATOM     12  C   UNL     1       5.852   4.193  15.482  0.00  0.00    +0.000 A 
ATOM     13  C   UNL     1       6.064   5.561  15.593  0.00  0.00    +0.000 A 
ATOM     14  C   UNL     1       5.306   6.315  16.492  0.00  0.00    +0.000 A 
ATOM     15  C   UNL     1       4.310   5.727  17.302  0.00  0.00    +0.000 A 
BRANCH  10  17
ATOM     16  C   UNL     1       1.380   4.146  17.780  0.00  0.00    +0.000 C 
ATOM     17  S   UNL     1       2.952   3.416  18.174  0.00  0.00    +0.000 S 
ATOM     18  O   UNL     1       3.280   3.627  19.568  0.00  0.00    +0.000 OA
ATOM     19  O   UNL     1       2.933   2.061  17.647  0.00  0.00    +0.000 OA
ENDBRANCH  10  17
ENDBRANCH   1  15
BRANCH   6  20
ATOM     20  C   UNL     1      -0.077  11.193  18.688  0.00  0.00    +0.000 C 
BRANCH  20  21
ATOM     21  C   UNL     1      -1.498  10.989  18.211  0.00  0.00    +0.000 A 
ATOM     22  C   UNL     1      -1.833  10.018  17.255  0.00  0.00    +0.000 A 
ATOM     23  C   UNL     1      -3.154   9.869  16.826  0.00  0.00    +0.000 A 
ATOM     24  C   UNL     1      -4.161  10.662  17.369  0.00  0.00    +0.000 A 
ATOM     25  C   UNL     1      -3.853  11.587  18.364  0.00  0.00    +0.000 A 
ATOM     26  C   UNL     1      -2.531  11.744  18.788  0.00  0.00    +0.000 A 
ENDBRANCH  20  21
ENDBRANCH   6  20
TORSDOF 4
ENDMDL
