MODEL 1
REMARK VINA RESULT:      -8.3      0.000      0.000
REMARK  Name = 
REMARK  5 active torsions:
REMARK  status: ('A' for Active; 'I' for Inactive)
REMARK    1  A    between atoms: C_2  and  C_4
REMARK    2  A    between atoms: C_7  and  C_8
REMARK    3  A    between atoms: C_10  and  C_11
REMARK    4  A    between atoms: C_15  and  C_16
REMARK    5  A    between atoms: C_19  and  N_20
REMARK                            x       y       z     vdW  Elec       q    Type
REMARK                         _______ _______ _______ _____ _____    ______ ____
ROOT
ATOM      1  C   UNL     1       8.194   8.595  18.203  0.00  0.00    +0.000 A 
ATOM      2  C   UNL     1       7.321   8.052  17.291  0.00  0.00    +0.000 A 
ATOM      3  C   UNL     1       7.298   6.660  17.578  0.00  0.00    +0.000 A 
ATOM      4  N   UNL     1       8.057   6.402  18.648  0.00  0.00    +0.000 NA
ATOM      5  O   UNL     1       8.628   7.597  19.021  0.00  0.00    +0.000 OA
ENDROOT
BRANCH   1   9
ATOM      6  C   UNL     1       9.769  12.493  18.961  0.00  0.00    +0.000 A 
ATOM      7  C   UNL     1      10.074  11.434  19.821  0.00  0.00    +0.000 A 
ATOM      8  C   UNL     1       9.540  10.164  19.579  0.00  0.00    +0.000 A 
ATOM      9  C   UNL     1       8.714   9.929  18.470  0.00  0.00    +0.000 A 
ATOM     10  C   UNL     1       8.408  11.008  17.625  0.00  0.00    +0.000 A 
ATOM     11  C   UNL     1       8.929  12.281  17.865  0.00  0.00    +0.000 A 
BRANCH   6  13
ATOM     12  N   UNL     1      11.302  13.965  20.074  0.00  0.00    +0.000 NA
ATOM     13  C   UNL     1      10.368  13.836  19.193  0.00  0.00    +0.000 C 
ATOM     14  N   UNL     1       9.923  14.915  18.487  0.00  0.00    +0.000 N 
ATOM     15  H   UNL     1      11.642  14.928  20.079  0.00  0.00    +0.000 HD
ATOM     16  H   UNL     1      10.126  15.822  18.889  0.00  0.00    +0.000 HD
ATOM     17  H   UNL     1       8.963  14.860  18.159  0.00  0.00    +0.000 HD
ENDBRANCH   6  13
ENDBRANCH   1   9
BRANCH   3  18
ATOM     18  C   UNL     1       6.566   5.607  16.873  0.00  0.00    +0.000 A 
ATOM     19  C   UNL     1       6.915   5.328  15.537  0.00  0.00    +0.000 A 
ATOM     20  C   UNL     1       6.273   4.315  14.826  0.00  0.00    +0.000 A 
ATOM     21  C   UNL     1       5.259   3.571  15.426  0.00  0.00    +0.000 A 
ATOM     22  C   UNL     1       4.862   3.835  16.746  0.00  0.00    +0.000 A 
ATOM     23  C   UNL     1       5.533   4.843  17.460  0.00  0.00    +0.000 A 
BRANCH  22  24
ATOM     24  C   UNL     1       3.742   3.024  17.305  0.00  0.00    +0.000 C 
ATOM     25  N   UNL     1       2.500   3.280  17.031  0.00  0.00    +0.000 NA
ATOM     26  N   UNL     1       3.952   1.971  18.132  0.00  0.00    +0.000 N 
ATOM     27  H   UNL     1       2.389   4.111  16.447  0.00  0.00    +0.000 HD
ATOM     28  H   UNL     1       4.736   1.350  17.964  0.00  0.00    +0.000 HD
ATOM     29  H   UNL     1       3.088   1.474  18.340  0.00  0.00    +0.000 HD
ENDBRANCH  22  24
BRANCH  23  30
ATOM     30  N   UNL     1       5.196   5.048  18.850  0.00  0.00    +0.000 N 
ATOM     31  O   UNL     1       5.738   4.280  19.662  0.00  0.00    +0.000 OA
ATOM     32  O   UNL     1       4.382   5.942  19.116  0.00  0.00    +0.000 OA
ENDBRANCH  23  30
ENDBRANCH   3  18
TORSDOF 5
ENDMDL
MODEL 2
REMARK VINA RESULT:      -8.3      0.159      1.144
REMARK  Name = 
REMARK  5 active torsions:
REMARK  status: ('A' for Active; 'I' for Inactive)
REMARK    1  A    between atoms: C_2  and  C_4
REMARK    2  A    between atoms: C_7  and  C_8
REMARK    3  A    between atoms: C_10  and  C_11
REMARK    4  A    between atoms: C_15  and  C_16
REMARK    5  A    between atoms: C_19  and  N_20
REMARK                            x       y       z     vdW  Elec       q    Type
REMARK                         _______ _______ _______ _____ _____    ______ ____
ROOT
ATOM      1  C   UNL     1       8.199   8.585  18.204  0.00  0.00    +0.000 A 
ATOM      2  C   UNL     1       7.310   8.055  17.300  0.00  0.00    +0.000 A 
ATOM      3  C   UNL     1       7.290   6.659  17.568  0.00  0.00    +0.000 A 
ATOM      4  N   UNL     1       8.065   6.386  18.623  0.00  0.00    +0.000 NA
ATOM      5  O   UNL     1       8.644   7.575  19.003  0.00  0.00    +0.000 OA
ENDROOT
BRANCH   1   9
ATOM      6  C   UNL     1       9.689  12.500  19.041  0.00  0.00    +0.000 A 
ATOM      7  C   UNL     1       8.935  12.268  17.886  0.00  0.00    +0.000 A 
ATOM      8  C   UNL     1       8.467  10.980  17.607  0.00  0.00    +0.000 A 
ATOM      9  C   UNL     1       8.724   9.914  18.481  0.00  0.00    +0.000 A 
ATOM     10  C   UNL     1       9.494  10.163  19.629  0.00  0.00    +0.000 A 
ATOM     11  C   UNL     1       9.974  11.444  19.910  0.00  0.00    +0.000 A 
BRANCH   6  13
ATOM     12  N   UNL     1       9.962  14.822  18.503  0.00  0.00    +0.000 NA
ATOM     13  C   UNL     1      10.156  13.877  19.360  0.00  0.00    +0.000 C 
ATOM     14  N   UNL     1      10.787  14.128  20.543  0.00  0.00    +0.000 N 
ATOM     15  H   UNL     1      10.289  15.710  18.888  0.00  0.00    +0.000 HD
ATOM     16  H   UNL     1      11.347  14.971  20.575  0.00  0.00    +0.000 HD
ATOM     17  H   UNL     1      11.279  13.340  20.954  0.00  0.00    +0.000 HD
ENDBRANCH   6  13
ENDBRANCH   1   9
BRANCH   3  18
ATOM     18  C   UNL     1       6.545   5.617  16.862  0.00  0.00    +0.000 A 
ATOM     19  C   UNL     1       6.878   5.349  15.519  0.00  0.00    +0.000 A 
ATOM     20  C   UNL     1       6.223   4.347  14.805  0.00  0.00    +0.000 A 
ATOM     21  C   UNL     1       5.213   3.601  15.409  0.00  0.00    +0.000 A 
ATOM     22  C   UNL     1       4.832   3.853  16.736  0.00  0.00    +0.000 A 
ATOM     23  C   UNL     1       5.515   4.851  17.453  0.00  0.00    +0.000 A 
BRANCH  22  24
ATOM     24  C   UNL     1       3.714   3.042  17.300  0.00  0.00    +0.000 C 
ATOM     25  N   UNL     1       2.471   3.305  17.041  0.00  0.00    +0.000 NA
ATOM     26  N   UNL     1       3.929   1.980  18.116  0.00  0.00    +0.000 N 
ATOM     27  H   UNL     1       2.357   4.141  16.466  0.00  0.00    +0.000 HD
ATOM     28  H   UNL     1       4.709   1.358  17.934  0.00  0.00    +0.000 HD
ATOM     29  H   UNL     1       3.066   1.485  18.328  0.00  0.00    +0.000 HD
ENDBRANCH  22  24
BRANCH  23  30
ATOM     30  N   UNL     1       5.195   5.043  18.848  0.00  0.00    +0.000 N 
ATOM     31  O   UNL     1       5.741   4.264  19.646  0.00  0.00    +0.000 OA
ATOM     32  O   UNL     1       4.390   5.940  19.132  0.00  0.00    +0.000 OA
ENDBRANCH  23  30
ENDBRANCH   3  18
TORSDOF 5
ENDMDL
MODEL 3
REMARK VINA RESULT:      -8.2      0.244      1.300
REMARK  Name = 
REMARK  5 active torsions:
REMARK  status: ('A' for Active; 'I' for Inactive)
REMARK    1  A    between atoms: C_2  and  C_4
REMARK    2  A    between atoms: C_7  and  C_8
REMARK    3  A    between atoms: C_10  and  C_11
REMARK    4  A    between atoms: C_15  and  C_16
REMARK    5  A    between atoms: C_19  and  N_20
REMARK                            x       y       z     vdW  Elec       q    Type
REMARK                         _______ _______ _______ _____ _____    ______ ____
ROOT
ATOM      1  C   UNL     1       8.267   8.690  18.258  0.00  0.00    +0.000 A 
ATOM      2  C   UNL     1       7.395   8.128  17.356  0.00  0.00    +0.000 A 
ATOM      3  C   UNL     1       7.388   6.739  17.658  0.00  0.00    +0.000 A 
ATOM      4  N   UNL     1       8.155   6.500  18.728  0.00  0.00    +0.000 NA
ATOM      5  O   UNL     1       8.716   7.705  19.085  0.00  0.00    +0.000 OA
ENDROOT
BRANCH   1   9
ATOM      6  C   UNL     1       9.703  12.641  19.016  0.00  0.00    +0.000 A 
ATOM      7  C   UNL     1       8.933  12.381  17.878  0.00  0.00    +0.000 A 
ATOM      8  C   UNL     1       8.482  11.081  17.625  0.00  0.00    +0.000 A 
ATOM      9  C   UNL     1       8.774  10.032  18.508  0.00  0.00    +0.000 A 
ATOM     10  C   UNL     1       9.560  10.309  19.639  0.00  0.00    +0.000 A 
ATOM     11  C   UNL     1      10.022  11.602  19.894  0.00  0.00    +0.000 A 
BRANCH   6  13
ATOM     12  N   UNL     1      10.865  14.254  20.360  0.00  0.00    +0.000 NA
ATOM     13  C   UNL     1      10.150  14.030  19.309  0.00  0.00    +0.000 C 
ATOM     14  N   UNL     1       9.797  15.052  18.477  0.00  0.00    +0.000 N 
ATOM     15  H   UNL     1      11.134  15.239  20.392  0.00  0.00    +0.000 HD
ATOM     16  H   UNL     1       9.850  15.983  18.872  0.00  0.00    +0.000 HD
ATOM     17  H   UNL     1       8.934  14.918  17.958  0.00  0.00    +0.000 HD
ENDBRANCH   6  13
ENDBRANCH   1   9
BRANCH   3  18
ATOM     18  C   UNL     1       6.664   5.670  16.970  0.00  0.00    +0.000 A 
ATOM     19  C   UNL     1       7.060   5.329  15.661  0.00  0.00    +0.000 A 
ATOM     20  C   UNL     1       6.427   4.299  14.967  0.00  0.00    +0.000 A 
ATOM     21  C   UNL     1       5.375   3.599  15.556  0.00  0.00    +0.000 A 
ATOM     22  C   UNL     1       4.932   3.925  16.847  0.00  0.00    +0.000 A 
ATOM     23  C   UNL     1       5.594   4.950  17.546  0.00  0.00    +0.000 A 
BRANCH  22  24
ATOM     24  C   UNL     1       3.775   3.159  17.394  0.00  0.00    +0.000 C 
ATOM     25  N   UNL     1       3.905   1.961  17.875  0.00  0.00    +0.000 NA
ATOM     26  N   UNL     1       2.518   3.666  17.424  0.00  0.00    +0.000 N 
ATOM     27  H   UNL     1       4.858   1.602  17.785  0.00  0.00    +0.000 HD
ATOM     28  H   UNL     1       2.378   4.646  17.644  0.00  0.00    +0.000 HD
ATOM     29  H   UNL     1       1.873   3.052  17.916  0.00  0.00    +0.000 HD
ENDBRANCH  22  24
BRANCH  23  30
ATOM     30  N   UNL     1       5.207   5.219  18.911  0.00  0.00    +0.000 N 
ATOM     31  O   UNL     1       4.260   6.007  19.065  0.00  0.00    +0.000 OA
ATOM     32  O   UNL     1       5.860   4.673  19.810  0.00  0.00    +0.000 OA
ENDBRANCH  23  30
ENDBRANCH   3  18
TORSDOF 5
ENDMDL
MODEL 4
REMARK VINA RESULT:      -8.2      6.402      7.446
REMARK  Name = 
REMARK  5 active torsions:
REMARK  status: ('A' for Active; 'I' for Inactive)
REMARK    1  A    between atoms: C_2  and  C_4
REMARK    2  A    between atoms: C_7  and  C_8
REMARK    3  A    between atoms: C_10  and  C_11
REMARK    4  A    between atoms: C_15  and  C_16
REMARK    5  A    between atoms: C_19  and  N_20
REMARK                            x       y       z     vdW  Elec       q    Type
REMARK                         _______ _______ _______ _____ _____    ______ ____
ROOT
ATOM      1  C   UNL     1       1.275   8.759  19.686  0.00  0.00    +0.000 A 
ATOM      2  C   UNL     1       2.076   7.657  19.867  0.00  0.00    +0.000 A 
ATOM      3  C   UNL     1       2.537   7.313  18.568  0.00  0.00    +0.000 A 
ATOM      4  N   UNL     1       2.096   8.205  17.674  0.00  0.00    +0.000 NA
ATOM      5  O   UNL     1       1.296   9.088  18.365  0.00  0.00    +0.000 OA
ENDROOT
BRANCH   1   9
ATOM      6  C   UNL     1      -1.049  11.264  22.251  0.00  0.00    +0.000 A 
ATOM      7  C   UNL     1      -0.450  10.105  22.756  0.00  0.00    +0.000 A 
ATOM      8  C   UNL     1       0.293   9.278  21.907  0.00  0.00    +0.000 A 
ATOM      9  C   UNL     1       0.466   9.604  20.554  0.00  0.00    +0.000 A 
ATOM     10  C   UNL     1      -0.153  10.764  20.062  0.00  0.00    +0.000 A 
ATOM     11  C   UNL     1      -0.905  11.590  20.901  0.00  0.00    +0.000 A 
BRANCH   6  13
ATOM     12  N   UNL     1      -1.252  13.256  23.573  0.00  0.00    +0.000 NA
ATOM     13  C   UNL     1      -1.806  12.166  23.161  0.00  0.00    +0.000 C 
ATOM     14  N   UNL     1      -3.069  11.834  23.557  0.00  0.00    +0.000 N 
ATOM     15  H   UNL     1      -1.914  13.786  24.142  0.00  0.00    +0.000 HD
ATOM     16  H   UNL     1      -3.407  12.296  24.393  0.00  0.00    +0.000 HD
ATOM     17  H   UNL     1      -3.277  10.839  23.573  0.00  0.00    +0.000 HD
ENDBRANCH   6  13
ENDBRANCH   1   9
BRANCH   3  18
ATOM     18  C   UNL     1       3.386   6.185  18.182  0.00  0.00    +0.000 A 
ATOM     19  C   UNL     1       4.425   6.415  17.258  0.00  0.00    +0.000 A 
ATOM     20  C   UNL     1       5.285   5.386  16.877  0.00  0.00    +0.000 A 
ATOM     21  C   UNL     1       5.118   4.103  17.396  0.00  0.00    +0.000 A 
ATOM     22  C   UNL     1       4.079   3.826  18.299  0.00  0.00    +0.000 A 
ATOM     23  C   UNL     1       3.233   4.877  18.693  0.00  0.00    +0.000 A 
BRANCH  22  24
ATOM     24  C   UNL     1       3.939   2.421  18.779  0.00  0.00    +0.000 C 
ATOM     25  N   UNL     1       4.761   1.899  19.636  0.00  0.00    +0.000 NA
ATOM     26  N   UNL     1       2.945   1.604  18.352  0.00  0.00    +0.000 N 
ATOM     27  H   UNL     1       5.520   2.533  19.890  0.00  0.00    +0.000 HD
ATOM     28  H   UNL     1       2.015   1.980  18.205  0.00  0.00    +0.000 HD
ATOM     29  H   UNL     1       2.942   0.717  18.851  0.00  0.00    +0.000 HD
ENDBRANCH  22  24
BRANCH  23  30
ATOM     30  N   UNL     1       2.229   4.618  19.698  0.00  0.00    +0.000 N 
ATOM     31  O   UNL     1       2.586   4.767  20.878  0.00  0.00    +0.000 OA
ATOM     32  O   UNL     1       1.114   4.244  19.310  0.00  0.00    +0.000 OA
ENDBRANCH  23  30
ENDBRANCH   3  18
TORSDOF 5
ENDMDL
MODEL 5
REMARK VINA RESULT:      -8.1      6.460      7.628
REMARK  Name = 
REMARK  5 active torsions:
REMARK  status: ('A' for Active; 'I' for Inactive)
REMARK    1  A    between atoms: C_2  and  C_4
REMARK    2  A    between atoms: C_7  and  C_8
REMARK    3  A    between atoms: C_10  and  C_11
REMARK    4  A    between atoms: C_15  and  C_16
REMARK    5  A    between atoms: C_19  and  N_20
REMARK                            x       y       z     vdW  Elec       q    Type
REMARK                         _______ _______ _______ _____ _____    ______ ____
ROOT
ATOM      1  C   UNL     1       1.340   8.422  20.244  0.00  0.00    +0.000 A 
ATOM      2  C   UNL     1       2.049   7.294  20.580  0.00  0.00    +0.000 A 
ATOM      3  C   UNL     1       2.642   6.850  19.367  0.00  0.00    +0.000 A 
ATOM      4  N   UNL     1       2.363   7.709  18.381  0.00  0.00    +0.000 NA
ATOM      5  O   UNL     1       1.539   8.670  18.920  0.00  0.00    +0.000 OA
ENDROOT
BRANCH   1   9
ATOM      6  C   UNL     1      -1.127  11.191  22.366  0.00  0.00    +0.000 A 
ATOM      7  C   UNL     1      -0.629  10.055  23.013  0.00  0.00    +0.000 A 
ATOM      8  C   UNL     1       0.161   9.142  22.308  0.00  0.00    +0.000 A 
ATOM      9  C   UNL     1       0.483   9.356  20.960  0.00  0.00    +0.000 A 
ATOM     10  C   UNL     1      -0.036  10.496  20.323  0.00  0.00    +0.000 A 
ATOM     11  C   UNL     1      -0.835  11.407  21.018  0.00  0.00    +0.000 A 
BRANCH   6  13
ATOM     12  N   UNL     1      -1.465  13.372  23.307  0.00  0.00    +0.000 NA
ATOM     13  C   UNL     1      -1.935  12.184  23.124  0.00  0.00    +0.000 C 
ATOM     14  N   UNL     1      -3.154  11.833  23.626  0.00  0.00    +0.000 N 
ATOM     15  H   UNL     1      -2.155  13.945  23.795  0.00  0.00    +0.000 HD
ATOM     16  H   UNL     1      -3.509  12.414  24.375  0.00  0.00    +0.000 HD
ATOM     17  H   UNL     1      -3.277  10.846  23.833  0.00  0.00    +0.000 HD
ENDBRANCH   6  13
ENDBRANCH   1   9
BRANCH   3  18
ATOM     18  C   UNL     1       3.465   5.659  19.149  0.00  0.00    +0.000 A 
ATOM     19  C   UNL     1       4.862   5.778  19.289  0.00  0.00    +0.000 A 
ATOM     20  C   UNL     1       5.694   4.671  19.124  0.00  0.00    +0.000 A 
ATOM     21  C   UNL     1       5.153   3.428  18.800  0.00  0.00    +0.000 A 
ATOM     22  C   UNL     1       3.769   3.274  18.625  0.00  0.00    +0.000 A 
ATOM     23  C   UNL     1       2.938   4.391  18.818  0.00  0.00    +0.000 A 
BRANCH  22  24
ATOM     24  C   UNL     1       3.268   1.922  18.239  0.00  0.00    +0.000 C 
ATOM     25  N   UNL     1       4.016   0.865  18.304  0.00  0.00    +0.000 NA
ATOM     26  N   UNL     1       2.003   1.717  17.797  0.00  0.00    +0.000 N 
ATOM     27  H   UNL     1       4.973   1.076  18.593  0.00  0.00    +0.000 HD
ATOM     28  H   UNL     1       1.236   2.228  18.219  0.00  0.00    +0.000 HD
ATOM     29  H   UNL     1       1.802   0.727  17.672  0.00  0.00    +0.000 HD
ENDBRANCH  22  24
BRANCH  23  30
ATOM     30  N   UNL     1       1.507   4.213  18.738  0.00  0.00    +0.000 N 
ATOM     31  O   UNL     1       0.931   3.940  19.804  0.00  0.00    +0.000 OA
ATOM     32  O   UNL     1       0.978   4.315  17.624  0.00  0.00    +0.000 OA
ENDBRANCH  23  30
ENDBRANCH   3  18
TORSDOF 5
ENDMDL
MODEL 6
REMARK VINA RESULT:      -8.1      6.443      7.529
REMARK  Name = 
REMARK  5 active torsions:
REMARK  status: ('A' for Active; 'I' for Inactive)
REMARK    1  A    between atoms: C_2  and  C_4
REMARK    2  A    between atoms: C_7  and  C_8
REMARK    3  A    between atoms: C_10  and  C_11
REMARK    4  A    between atoms: C_15  and  C_16
REMARK    5  A    between atoms: C_19  and  N_20
REMARK                            x       y       z     vdW  Elec       q    Type
REMARK                         _______ _______ _______ _____ _____    ______ ____
ROOT
ATOM      1  C   UNL     1       1.271   8.806  19.755  0.00  0.00    +0.000 A 
ATOM      2  C   UNL     1       2.106   7.731  19.938  0.00  0.00    +0.000 A 
ATOM      3  C   UNL     1       2.487   7.326  18.629  0.00  0.00    +0.000 A 
ATOM      4  N   UNL     1       1.967   8.162  17.723  0.00  0.00    +0.000 NA
ATOM      5  O   UNL     1       1.196   9.065  18.420  0.00  0.00    +0.000 OA
ENDROOT
BRANCH   1   9
ATOM      6  C   UNL     1      -1.030  11.351  22.302  0.00  0.00    +0.000 A 
ATOM      7  C   UNL     1      -0.724  11.755  20.998  0.00  0.00    +0.000 A 
ATOM      8  C   UNL     1       0.047  10.926  20.175  0.00  0.00    +0.000 A 
ATOM      9  C   UNL     1       0.503   9.681  20.631  0.00  0.00    +0.000 A 
ATOM     10  C   UNL     1       0.197   9.298  21.947  0.00  0.00    +0.000 A 
ATOM     11  C   UNL     1      -0.563  10.124  22.778  0.00  0.00    +0.000 A 
BRANCH   6  13
ATOM     12  N   UNL     1      -3.030  11.773  23.558  0.00  0.00    +0.000 NA
ATOM     13  C   UNL     1      -1.882  12.213  23.165  0.00  0.00    +0.000 C 
ATOM     14  N   UNL     1      -1.453  13.457  23.526  0.00  0.00    +0.000 N 
ATOM     15  H   UNL     1      -3.466  12.454  24.181  0.00  0.00    +0.000 HD
ATOM     16  H   UNL     1      -2.171  14.101  23.833  0.00  0.00    +0.000 HD
ATOM     17  H   UNL     1      -0.804  13.902  22.883  0.00  0.00    +0.000 HD
ENDBRANCH   6  13
ENDBRANCH   1   9
BRANCH   3  18
ATOM     18  C   UNL     1       3.333   6.196  18.246  0.00  0.00    +0.000 A 
ATOM     19  C   UNL     1       4.363   6.418  17.309  0.00  0.00    +0.000 A 
ATOM     20  C   UNL     1       5.219   5.386  16.929  0.00  0.00    +0.000 A 
ATOM     21  C   UNL     1       5.058   4.108  17.462  0.00  0.00    +0.000 A 
ATOM     22  C   UNL     1       4.029   3.839  18.377  0.00  0.00    +0.000 A 
ATOM     23  C   UNL     1       3.186   4.892  18.770  0.00  0.00    +0.000 A 
BRANCH  22  24
ATOM     24  C   UNL     1       3.894   2.437  18.871  0.00  0.00    +0.000 C 
ATOM     25  N   UNL     1       4.747   1.911  19.694  0.00  0.00    +0.000 NA
ATOM     26  N   UNL     1       2.873   1.630  18.493  0.00  0.00    +0.000 N 
ATOM     27  H   UNL     1       5.524   2.538  19.910  0.00  0.00    +0.000 HD
ATOM     28  H   UNL     1       1.942   2.016  18.385  0.00  0.00    +0.000 HD
ATOM     29  H   UNL     1       2.882   0.746  18.997  0.00  0.00    +0.000 HD
ENDBRANCH  22  24
BRANCH  23  30
ATOM     30  N   UNL     1       2.191   4.641  19.787  0.00  0.00    +0.000 N 
ATOM     31  O   UNL     1       2.561   4.795  20.962  0.00  0.00    +0.000 OA
ATOM     32  O   UNL     1       1.071   4.270  19.413  0.00  0.00    +0.000 OA
ENDBRANCH  23  30
ENDBRANCH   3  18
TORSDOF 5
ENDMDL
MODEL 7
REMARK VINA RESULT:      -7.9      6.471      7.646
REMARK  Name = 
REMARK  5 active torsions:
REMARK  status: ('A' for Active; 'I' for Inactive)
REMARK    1  A    between atoms: C_2  and  C_4
REMARK    2  A    between atoms: C_7  and  C_8
REMARK    3  A    between atoms: C_10  and  C_11
REMARK    4  A    between atoms: C_15  and  C_16
REMARK    5  A    between atoms: C_19  and  N_20
REMARK                            x       y       z     vdW  Elec       q    Type
REMARK                         _______ _______ _______ _____ _____    ______ ____
ROOT
ATOM      1  C   UNL     1       1.334   8.492  20.134  0.00  0.00    +0.000 A 
ATOM      2  C   UNL     1       2.056   7.387  20.518  0.00  0.00    +0.000 A 
ATOM      3  C   UNL     1       2.593   6.854  19.314  0.00  0.00    +0.000 A 
ATOM      4  N   UNL     1       2.271   7.643  18.282  0.00  0.00    +0.000 NA
ATOM      5  O   UNL     1       1.474   8.644  18.787  0.00  0.00    +0.000 OA
ENDROOT
BRANCH   1   9
ATOM      6  C   UNL     1      -1.125  11.361  22.127  0.00  0.00    +0.000 A 
ATOM      7  C   UNL     1      -0.894  11.470  20.752  0.00  0.00    +0.000 A 
ATOM      8  C   UNL     1      -0.071  10.539  20.108  0.00  0.00    +0.000 A 
ATOM      9  C   UNL     1       0.513   9.480  20.818  0.00  0.00    +0.000 A 
ATOM     10  C   UNL     1       0.280   9.394  22.201  0.00  0.00    +0.000 A 
ATOM     11  C   UNL     1      -0.532  10.326  22.853  0.00  0.00    +0.000 A 
BRANCH   6  13
ATOM     12  N   UNL     1      -1.522  13.329  23.440  0.00  0.00    +0.000 NA
ATOM     13  C   UNL     1      -2.031  12.326  22.807  0.00  0.00    +0.000 C 
ATOM     14  N   UNL     1      -3.382  12.143  22.765  0.00  0.00    +0.000 N 
ATOM     15  H   UNL     1      -2.269  13.923  23.804  0.00  0.00    +0.000 HD
ATOM     16  H   UNL     1      -3.917  12.622  23.478  0.00  0.00    +0.000 HD
ATOM     17  H   UNL     1      -3.692  11.182  22.652  0.00  0.00    +0.000 HD
ENDBRANCH   6  13
ENDBRANCH   1   9
BRANCH   3  18
ATOM     18  C   UNL     1       3.402   5.647  19.145  0.00  0.00    +0.000 A 
ATOM     19  C   UNL     1       4.801   5.755  19.283  0.00  0.00    +0.000 A 
ATOM     20  C   UNL     1       5.621   4.634  19.163  0.00  0.00    +0.000 A 
ATOM     21  C   UNL     1       5.066   3.385  18.888  0.00  0.00    +0.000 A 
ATOM     22  C   UNL     1       3.680   3.240  18.717  0.00  0.00    +0.000 A 
ATOM     23  C   UNL     1       2.862   4.373  18.863  0.00  0.00    +0.000 A 
BRANCH  22  24
ATOM     24  C   UNL     1       3.165   1.880  18.384  0.00  0.00    +0.000 C 
ATOM     25  N   UNL     1       1.901   1.640  18.224  0.00  0.00    +0.000 NA
ATOM     26  N   UNL     1       3.986   0.812  18.227  0.00  0.00    +0.000 N 
ATOM     27  H   UNL     1       1.319   2.462  18.401  0.00  0.00    +0.000 HD
ATOM     28  H   UNL     1       4.881   0.931  17.766  0.00  0.00    +0.000 HD
ATOM     29  H   UNL     1       3.480  -0.012  17.909  0.00  0.00    +0.000 HD
ENDBRANCH  22  24
BRANCH  23  30
ATOM     30  N   UNL     1       1.429   4.207  18.788  0.00  0.00    +0.000 N 
ATOM     31  O   UNL     1       0.846   4.005  19.866  0.00  0.00    +0.000 OA
ATOM     32  O   UNL     1       0.906   4.250  17.667  0.00  0.00    +0.000 OA
ENDBRANCH  23  30
ENDBRANCH   3  18
TORSDOF 5
ENDMDL
MODEL 8
REMARK VINA RESULT:      -7.9      6.032      7.247
REMARK  Name = 
REMARK  5 active torsions:
REMARK  status: ('A' for Active; 'I' for Inactive)
REMARK    1  A    between atoms: C_2  and  C_4
REMARK    2  A    between atoms: C_7  and  C_8
REMARK    3  A    between atoms: C_10  and  C_11
REMARK    4  A    between atoms: C_15  and  C_16
REMARK    5  A    between atoms: C_19  and  N_20
REMARK                            x       y       z     vdW  Elec       q    Type
REMARK                         _______ _______ _______ _____ _____    ______ ____
ROOT
ATOM      1  C   UNL     1       1.680   8.443  19.427  0.00  0.00    +0.000 A 
ATOM      2  C   UNL     1       2.197   7.176  19.550  0.00  0.00    +0.000 A 
ATOM      3  C   UNL     1       2.688   6.846  18.257  0.00  0.00    +0.000 A 
ATOM      4  N   UNL     1       2.539   7.888  17.432  0.00  0.00    +0.000 NA
ATOM      5  O   UNL     1       1.895   8.869  18.151  0.00  0.00    +0.000 OA
ENDROOT
BRANCH   1   9
ATOM      6  C   UNL     1      -0.359  11.161  22.018  0.00  0.00    +0.000 A 
ATOM      7  C   UNL     1       0.006  11.561  20.728  0.00  0.00    +0.000 A 
ATOM      8  C   UNL     1       0.691  10.673  19.891  0.00  0.00    +0.000 A 
ATOM      9  C   UNL     1       1.003   9.374  20.319  0.00  0.00    +0.000 A 
ATOM     10  C   UNL     1       0.640   8.995  21.622  0.00  0.00    +0.000 A 
ATOM     11  C   UNL     1      -0.035   9.878  22.467  0.00  0.00    +0.000 A 
BRANCH   6  13
ATOM     12  N   UNL     1      -0.574  13.196  23.270  0.00  0.00    +0.000 NA
ATOM     13  C   UNL     1      -1.122  12.089  22.895  0.00  0.00    +0.000 C 
ATOM     14  N   UNL     1      -2.383  11.764  23.303  0.00  0.00    +0.000 N 
ATOM     15  H   UNL     1      -1.239  13.742  23.820  0.00  0.00    +0.000 HD
ATOM     16  H   UNL     1      -2.723  12.253  24.122  0.00  0.00    +0.000 HD
ATOM     17  H   UNL     1      -2.585  10.770  23.353  0.00  0.00    +0.000 HD
ENDBRANCH   6  13
ENDBRANCH   1   9
BRANCH   3  18
ATOM     18  C   UNL     1       3.297   5.590  17.818  0.00  0.00    +0.000 A 
ATOM     19  C   UNL     1       2.647   4.382  18.141  0.00  0.00    +0.000 A 
ATOM     20  C   UNL     1       3.165   3.157  17.723  0.00  0.00    +0.000 A 
ATOM     21  C   UNL     1       4.349   3.109  16.990  0.00  0.00    +0.000 A 
ATOM     22  C   UNL     1       5.042   4.287  16.671  0.00  0.00    +0.000 A 
ATOM     23  C   UNL     1       4.498   5.517  17.077  0.00  0.00    +0.000 A 
BRANCH  22  24
ATOM     24  C   UNL     1       6.323   4.152  15.919  0.00  0.00    +0.000 C 
ATOM     25  N   UNL     1       7.462   4.513  16.424  0.00  0.00    +0.000 NA
ATOM     26  N   UNL     1       6.377   3.643  14.663  0.00  0.00    +0.000 N 
ATOM     27  H   UNL     1       7.365   4.936  17.349  0.00  0.00    +0.000 HD
ATOM     28  H   UNL     1       5.782   2.861  14.413  0.00  0.00    +0.000 HD
ATOM     29  H   UNL     1       7.335   3.533  14.339  0.00  0.00    +0.000 HD
ENDBRANCH  22  24
BRANCH  23  30
ATOM     30  N   UNL     1       5.154   6.735  16.663  0.00  0.00    +0.000 N 
ATOM     31  O   UNL     1       5.903   7.264  17.501  0.00  0.00    +0.000 OA
ATOM     32  O   UNL     1       4.900   7.167  15.531  0.00  0.00    +0.000 OA
ENDBRANCH  23  30
ENDBRANCH   3  18
TORSDOF 5
ENDMDL
MODEL 9
REMARK VINA RESULT:      -7.9      5.993      7.193
REMARK  Name = 
REMARK  5 active torsions:
REMARK  status: ('A' for Active; 'I' for Inactive)
REMARK    1  A    between atoms: C_2  and  C_4
REMARK    2  A    between atoms: C_7  and  C_8
REMARK    3  A    between atoms: C_10  and  C_11
REMARK    4  A    between atoms: C_15  and  C_16
REMARK    5  A    between atoms: C_19  and  N_20
REMARK                            x       y       z     vdW  Elec       q    Type
REMARK                         _______ _______ _______ _____ _____    ______ ____
ROOT
ATOM      1  C   UNL     1       1.719   8.382  19.368  0.00  0.00    +0.000 A 
ATOM      2  C   UNL     1       2.201   7.100  19.480  0.00  0.00    +0.000 A 
ATOM      3  C   UNL     1       2.805   6.817  18.224  0.00  0.00    +0.000 A 
ATOM      4  N   UNL     1       2.751   7.898  17.437  0.00  0.00    +0.000 NA
ATOM      5  O   UNL     1       2.059   8.859  18.138  0.00  0.00    +0.000 OA
ENDROOT
BRANCH   1   9
ATOM      6  C   UNL     1      -0.409  11.059  21.930  0.00  0.00    +0.000 A 
ATOM      7  C   UNL     1       0.042   9.829  22.419  0.00  0.00    +0.000 A 
ATOM      8  C   UNL     1       0.721   8.948  21.570  0.00  0.00    +0.000 A 
ATOM      9  C   UNL     1       0.976   9.287  20.234  0.00  0.00    +0.000 A 
ATOM     10  C   UNL     1       0.504  10.521  19.756  0.00  0.00    +0.000 A 
ATOM     11  C   UNL     1      -0.183  11.402  20.595  0.00  0.00    +0.000 A 
BRANCH   6  13
ATOM     12  N   UNL     1      -0.501  13.111  23.169  0.00  0.00    +0.000 NA
ATOM     13  C   UNL     1      -1.096  12.014  22.841  0.00  0.00    +0.000 C 
ATOM     14  N   UNL     1      -2.337  11.723  23.327  0.00  0.00    +0.000 N 
ATOM     15  H   UNL     1      -1.119  13.678  23.752  0.00  0.00    +0.000 HD
ATOM     16  H   UNL     1      -2.617  12.228  24.159  0.00  0.00    +0.000 HD
ATOM     17  H   UNL     1      -2.560  10.734  23.400  0.00  0.00    +0.000 HD
ENDBRANCH   6  13
ENDBRANCH   1   9
BRANCH   3  18
ATOM     18  C   UNL     1       3.432   5.570  17.787  0.00  0.00    +0.000 A 
ATOM     19  C   UNL     1       2.802   4.353  18.116  0.00  0.00    +0.000 A 
ATOM     20  C   UNL     1       3.337   3.134  17.701  0.00  0.00    +0.000 A 
ATOM     21  C   UNL     1       4.519   3.102  16.963  0.00  0.00    +0.000 A 
ATOM     22  C   UNL     1       5.192   4.290  16.637  0.00  0.00    +0.000 A 
ATOM     23  C   UNL     1       4.631   5.513  17.042  0.00  0.00    +0.000 A 
BRANCH  22  24
ATOM     24  C   UNL     1       6.473   4.172  15.881  0.00  0.00    +0.000 C 
ATOM     25  N   UNL     1       7.617   4.479  16.409  0.00  0.00    +0.000 NA
ATOM     26  N   UNL     1       6.520   3.737  14.598  0.00  0.00    +0.000 N 
ATOM     27  H   UNL     1       7.527   4.848  17.357  0.00  0.00    +0.000 HD
ATOM     28  H   UNL     1       5.909   2.984  14.301  0.00  0.00    +0.000 HD
ATOM     29  H   UNL     1       7.477   3.627  14.270  0.00  0.00    +0.000 HD
ENDBRANCH  22  24
BRANCH  23  30
ATOM     30  N   UNL     1       5.267   6.740  16.621  0.00  0.00    +0.000 N 
ATOM     31  O   UNL     1       4.989   7.135  15.477  0.00  0.00    +0.000 OA
ATOM     32  O   UNL     1       6.052   7.279  17.413  0.00  0.00    +0.000 OA
ENDBRANCH  23  30
ENDBRANCH   3  18
TORSDOF 5
ENDMDL
