MODEL 1
REMARK VINA RESULT:      -9.7      0.000      0.000
REMARK  Name = 
REMARK  4 active torsions:
REMARK  status: ('A' for Active; 'I' for Inactive)
REMARK    1  A    between atoms: N_1  and  S_2
REMARK    2  A    between atoms: S_2  and  C_5
REMARK    3  A    between atoms: C_8  and  N_9
REMARK    4  A    between atoms: N_19  and  C_20
REMARK                            x       y       z     vdW  Elec       q    Type
REMARK                         _______ _______ _______ _____ _____    ______ ____
ROOT
ATOM      1  N   UNL     1       8.406   8.755  18.905  0.00  0.00    +0.000 N 
ATOM      2  C   UNL     1       8.089   7.882  17.882  0.00  0.00    +0.000 C 
ATOM      3  O   UNL     1       8.322   8.128  16.699  0.00  0.00    +0.000 OA
ATOM      4  N   UNL     1       7.468   6.733  18.305  0.00  0.00    +0.000 N 
ATOM      5  C   UNL     1       7.020   5.771  17.396  0.00  0.00    +0.000 A 
ATOM      6  N   UNL     1       7.421   5.813  16.143  0.00  0.00    +0.000 NA
ATOM      7  C   UNL     1       6.836   4.941  15.348  0.00  0.00    +0.000 A 
ATOM      8 CL   UNL     1       7.228   5.056  13.690  0.00  0.00    +0.000 Cl
ATOM      9  N   UNL     1       5.940   4.031  15.681  0.00  0.00    +0.000 NA
ATOM     10  C   UNL     1       5.634   4.042  16.968  0.00  0.00    +0.000 A 
ATOM     11  N   UNL     1       4.702   3.085  17.370  0.00  0.00    +0.000 N 
ATOM     12  N   UNL     1       6.153   4.887  17.864  0.00  0.00    +0.000 NA
ATOM     13  H   UNL     1       8.589   8.349  19.816  0.00  0.00    +0.000 HD
ATOM     14  H   UNL     1       7.071   6.668  19.227  0.00  0.00    +0.000 HD
ATOM     15  H   UNL     1       4.348   2.618  16.542  0.00  0.00    +0.000 HD
ENDROOT
BRANCH  11  16
ATOM     16  C   UNL     1       3.752   3.195  18.397  0.00  0.00    +0.000 A 
ATOM     17  C   UNL     1       2.532   3.867  18.229  0.00  0.00    +0.000 A 
ATOM     18  C   UNL     1       1.610   3.939  19.274  0.00  0.00    +0.000 A 
ATOM     19  C   UNL     1       1.907   3.338  20.488  0.00  0.00    +0.000 A 
ATOM     20  F   UNL     1       1.025   3.413  21.494  0.00  0.00    +0.000 F 
ATOM     21  C   UNL     1       3.103   2.657  20.676  0.00  0.00    +0.000 A 
ATOM     22  C   UNL     1       4.019   2.578  19.625  0.00  0.00    +0.000 A 
ENDBRANCH  11  16
BRANCH   1  26
ATOM     23  C   UNL     1       9.901  12.623  18.160  0.00  0.00    +0.000 A 
ATOM     24  C   UNL     1       8.691  12.246  17.594  0.00  0.00    +0.000 A 
ATOM     25  C   UNL     1       8.184  10.979  17.868  0.00  0.00    +0.000 A 
ATOM     26  C   UNL     1       8.891  10.065  18.668  0.00  0.00    +0.000 A 
ATOM     27  C   UNL     1      10.100  10.464  19.241  0.00  0.00    +0.000 A 
ATOM     28  C   UNL     1      10.613  11.742  18.981  0.00  0.00    +0.000 A 
BRANCH  23  29
ATOM     29  S   UNL     1      10.490  14.264  17.884  0.00  0.00    +0.000 S 
ATOM     30  O   UNL     1      11.638  14.501  18.724  0.00  0.00    +0.000 OA
ATOM     31  O   UNL     1       9.367  15.167  17.819  0.00  0.00    +0.000 OA
BRANCH  29  32
ATOM     32  N   UNL     1      11.063  14.150  16.308  0.00  0.00    +0.000 NA
ATOM     33  H   UNL     1      10.908  13.207  15.950  0.00  0.00    +0.000 HD
ATOM     34  H   UNL     1      12.031  14.465  16.259  0.00  0.00    +0.000 HD
ENDBRANCH  29  32
ENDBRANCH  23  29
ENDBRANCH   1  26
TORSDOF 4
ENDMDL
MODEL 2
REMARK VINA RESULT:      -9.7      0.161      1.277
REMARK  Name = 
REMARK  4 active torsions:
REMARK  status: ('A' for Active; 'I' for Inactive)
REMARK    1  A    between atoms: N_1  and  S_2
REMARK    2  A    between atoms: S_2  and  C_5
REMARK    3  A    between atoms: C_8  and  N_9
REMARK    4  A    between atoms: N_19  and  C_20
REMARK                            x       y       z     vdW  Elec       q    Type
REMARK                         _______ _______ _______ _____ _____    ______ ____
ROOT
ATOM      1  N   UNL     1       8.413   8.683  18.889  0.00  0.00    +0.000 N 
ATOM      2  C   UNL     1       8.109   7.816  17.857  0.00  0.00    +0.000 C 
ATOM      3  O   UNL     1       8.366   8.063  16.679  0.00  0.00    +0.000 OA
ATOM      4  N   UNL     1       7.473   6.670  18.266  0.00  0.00    +0.000 N 
ATOM      5  C   UNL     1       7.036   5.713  17.347  0.00  0.00    +0.000 A 
ATOM      6  N   UNL     1       7.460   5.755  16.101  0.00  0.00    +0.000 NA
ATOM      7  C   UNL     1       6.884   4.889  15.293  0.00  0.00    +0.000 A 
ATOM      8 CL   UNL     1       7.307   5.006  13.643  0.00  0.00    +0.000 Cl
ATOM      9  N   UNL     1       5.976   3.984  15.607  0.00  0.00    +0.000 NA
ATOM     10  C   UNL     1       5.647   3.994  16.888  0.00  0.00    +0.000 A 
ATOM     11  N   UNL     1       4.701   3.041  17.270  0.00  0.00    +0.000 N 
ATOM     12  N   UNL     1       6.154   4.833  17.796  0.00  0.00    +0.000 NA
ATOM     13  H   UNL     1       8.576   8.274  19.802  0.00  0.00    +0.000 HD
ATOM     14  H   UNL     1       7.059   6.605  19.181  0.00  0.00    +0.000 HD
ATOM     15  H   UNL     1       4.359   2.579  16.435  0.00  0.00    +0.000 HD
ENDROOT
BRANCH  11  16
ATOM     16  C   UNL     1       3.733   3.156  18.280  0.00  0.00    +0.000 A 
ATOM     17  C   UNL     1       3.941   2.683  19.584  0.00  0.00    +0.000 A 
ATOM     18  C   UNL     1       2.956   2.832  20.560  0.00  0.00    +0.000 A 
ATOM     19  C   UNL     1       1.760   3.455  20.233  0.00  0.00    +0.000 A 
ATOM     20  F   UNL     1       0.811   3.591  21.169  0.00  0.00    +0.000 F 
ATOM     21  C   UNL     1       1.534   3.942  18.952  0.00  0.00    +0.000 A 
ATOM     22  C   UNL     1       2.526   3.801  17.980  0.00  0.00    +0.000 A 
ENDBRANCH  11  16
BRANCH   1  26
ATOM     23  C   UNL     1       9.836  12.598  18.254  0.00  0.00    +0.000 A 
ATOM     24  C   UNL     1      10.550  11.747  19.087  0.00  0.00    +0.000 A 
ATOM     25  C   UNL     1      10.095  10.444  19.269  0.00  0.00    +0.000 A 
ATOM     26  C   UNL     1       8.910   9.991  18.664  0.00  0.00    +0.000 A 
ATOM     27  C   UNL     1       8.212  10.855  17.817  0.00  0.00    +0.000 A 
ATOM     28  C   UNL     1       8.669  12.165  17.619  0.00  0.00    +0.000 A 
BRANCH  23  29
ATOM     29  S   UNL     1      10.472  14.217  17.955  0.00  0.00    +0.000 S 
ATOM     30  O   UNL     1      11.639  14.426  18.776  0.00  0.00    +0.000 OA
ATOM     31  O   UNL     1       9.377  15.154  17.896  0.00  0.00    +0.000 OA
BRANCH  29  32
ATOM     32  N   UNL     1      11.018  14.072  16.371  0.00  0.00    +0.000 NA
ATOM     33  H   UNL     1      10.724  13.174  15.984  0.00  0.00    +0.000 HD
ATOM     34  H   UNL     1      12.022  14.241  16.326  0.00  0.00    +0.000 HD
ENDBRANCH  29  32
ENDBRANCH  23  29
ENDBRANCH   1  26
TORSDOF 4
ENDMDL
MODEL 3
REMARK VINA RESULT:      -9.4      0.737      1.224
REMARK  Name = 
REMARK  4 active torsions:
REMARK  status: ('A' for Active; 'I' for Inactive)
REMARK    1  A    between atoms: N_1  and  S_2
REMARK    2  A    between atoms: S_2  and  C_5
REMARK    3  A    between atoms: C_8  and  N_9
REMARK    4  A    between atoms: N_19  and  C_20
REMARK                            x       y       z     vdW  Elec       q    Type
REMARK                         _______ _______ _______ _____ _____    ______ ____
ROOT
ATOM      1  N   UNL     1       8.415   8.629  19.027  0.00  0.00    +0.000 N 
ATOM      2  C   UNL     1       8.107   7.802  17.965  0.00  0.00    +0.000 C 
ATOM      3  O   UNL     1       8.354   8.096  16.796  0.00  0.00    +0.000 OA
ATOM      4  N   UNL     1       7.478   6.638  18.333  0.00  0.00    +0.000 N 
ATOM      5  C   UNL     1       7.037   5.716  17.379  0.00  0.00    +0.000 A 
ATOM      6  N   UNL     1       7.451   5.810  16.133  0.00  0.00    +0.000 NA
ATOM      7  C   UNL     1       6.872   4.974  15.296  0.00  0.00    +0.000 A 
ATOM      8 CL   UNL     1       7.284   5.157  13.648  0.00  0.00    +0.000 Cl
ATOM      9  N   UNL     1       5.970   4.053  15.580  0.00  0.00    +0.000 NA
ATOM     10  C   UNL     1       5.651   4.012  16.863  0.00  0.00    +0.000 A 
ATOM     11  N   UNL     1       4.711   3.041  17.214  0.00  0.00    +0.000 N 
ATOM     12  N   UNL     1       6.162   4.817  17.800  0.00  0.00    +0.000 NA
ATOM     13  H   UNL     1       8.587   8.184  19.923  0.00  0.00    +0.000 HD
ATOM     14  H   UNL     1       7.070   6.535  19.247  0.00  0.00    +0.000 HD
ATOM     15  H   UNL     1       4.365   2.611  16.364  0.00  0.00    +0.000 HD
ENDROOT
BRANCH  11  16
ATOM     16  C   UNL     1       3.750   3.112  18.235  0.00  0.00    +0.000 A 
ATOM     17  C   UNL     1       3.985   2.627  19.529  0.00  0.00    +0.000 A 
ATOM     18  C   UNL     1       3.005   2.732  20.517  0.00  0.00    +0.000 A 
ATOM     19  C   UNL     1       1.789   3.324  20.211  0.00  0.00    +0.000 A 
ATOM     20  F   UNL     1       0.845   3.419  21.157  0.00  0.00    +0.000 F 
ATOM     21  C   UNL     1       1.536   3.823  18.940  0.00  0.00    +0.000 A 
ATOM     22  C   UNL     1       2.522   3.726  17.956  0.00  0.00    +0.000 A 
ENDBRANCH  11  16
BRANCH   1  26
ATOM     23  C   UNL     1       9.937  12.519  18.475  0.00  0.00    +0.000 A 
ATOM     24  C   UNL     1       8.874  12.092  17.691  0.00  0.00    +0.000 A 
ATOM     25  C   UNL     1       8.353  10.818  17.898  0.00  0.00    +0.000 A 
ATOM     26  C   UNL     1       8.907   9.946  18.850  0.00  0.00    +0.000 A 
ATOM     27  C   UNL     1       9.966  10.396  19.641  0.00  0.00    +0.000 A 
ATOM     28  C   UNL     1      10.490  11.681  19.449  0.00  0.00    +0.000 A 
BRANCH  23  29
ATOM     29  S   UNL     1      10.530  14.169  18.271  0.00  0.00    +0.000 S 
ATOM     30  O   UNL     1       9.566  15.089  18.824  0.00  0.00    +0.000 OA
ATOM     31  O   UNL     1      11.083  14.315  16.947  0.00  0.00    +0.000 OA
BRANCH  29  32
ATOM     32  N   UNL     1      11.852  14.177  19.310  0.00  0.00    +0.000 NA
ATOM     33  H   UNL     1      12.394  13.321  19.187  0.00  0.00    +0.000 HD
ATOM     34  H   UNL     1      11.549  14.350  20.268  0.00  0.00    +0.000 HD
ENDBRANCH  29  32
ENDBRANCH  23  29
ENDBRANCH   1  26
TORSDOF 4
ENDMDL
MODEL 4
REMARK VINA RESULT:      -9.0      0.792      1.306
REMARK  Name = 
REMARK  4 active torsions:
REMARK  status: ('A' for Active; 'I' for Inactive)
REMARK    1  A    between atoms: N_1  and  S_2
REMARK    2  A    between atoms: S_2  and  C_5
REMARK    3  A    between atoms: C_8  and  N_9
REMARK    4  A    between atoms: N_19  and  C_20
REMARK                            x       y       z     vdW  Elec       q    Type
REMARK                         _______ _______ _______ _____ _____    ______ ____
ROOT
ATOM      1  N   UNL     1       8.510   8.576  19.232  0.00  0.00    +0.000 N 
ATOM      2  C   UNL     1       8.174   7.752  18.175  0.00  0.00    +0.000 C 
ATOM      3  O   UNL     1       8.401   8.045  17.002  0.00  0.00    +0.000 OA
ATOM      4  N   UNL     1       7.541   6.594  18.555  0.00  0.00    +0.000 N 
ATOM      5  C   UNL     1       7.073   5.677  17.609  0.00  0.00    +0.000 A 
ATOM      6  N   UNL     1       7.464   5.768  16.355  0.00  0.00    +0.000 NA
ATOM      7  C   UNL     1       6.862   4.938  15.529  0.00  0.00    +0.000 A 
ATOM      8 CL   UNL     1       7.243   5.119  13.874  0.00  0.00    +0.000 Cl
ATOM      9  N   UNL     1       5.957   4.026  15.830  0.00  0.00    +0.000 NA
ATOM     10  C   UNL     1       5.661   3.986  17.118  0.00  0.00    +0.000 A 
ATOM     11  N   UNL     1       4.720   3.024  17.487  0.00  0.00    +0.000 N 
ATOM     12  N   UNL     1       6.198   4.785  18.046  0.00  0.00    +0.000 NA
ATOM     13  H   UNL     1       8.694   8.129  20.124  0.00  0.00    +0.000 HD
ATOM     14  H   UNL     1       7.150   6.494  19.476  0.00  0.00    +0.000 HD
ATOM     15  H   UNL     1       4.353   2.598  16.644  0.00  0.00    +0.000 HD
ENDROOT
BRANCH  11  16
ATOM     16  C   UNL     1       3.779   3.103  18.526  0.00  0.00    +0.000 A 
ATOM     17  C   UNL     1       2.535   3.731  18.373  0.00  0.00    +0.000 A 
ATOM     18  C   UNL     1       1.624   3.772  19.429  0.00  0.00    +0.000 A 
ATOM     19  C   UNL     1       1.957   3.183  20.640  0.00  0.00    +0.000 A 
ATOM     20  F   UNL     1       1.086   3.229  21.657  0.00  0.00    +0.000 F 
ATOM     21  C   UNL     1       3.178   2.545  20.813  0.00  0.00    +0.000 A 
ATOM     22  C   UNL     1       4.084   2.496  19.752  0.00  0.00    +0.000 A 
ENDBRANCH  11  16
BRANCH   1  26
ATOM     23  C   UNL     1       9.933  12.506  18.697  0.00  0.00    +0.000 A 
ATOM     24  C   UNL     1      10.413  11.752  19.760  0.00  0.00    +0.000 A 
ATOM     25  C   UNL     1       9.965  10.443  19.915  0.00  0.00    +0.000 A 
ATOM     26  C   UNL     1       9.010   9.888  19.047  0.00  0.00    +0.000 A 
ATOM     27  C   UNL     1       8.548  10.654  17.974  0.00  0.00    +0.000 A 
ATOM     28  C   UNL     1       9.001  11.969  17.803  0.00  0.00    +0.000 A 
BRANCH  23  29
ATOM     29  S   UNL     1      10.576  14.131  18.452  0.00  0.00    +0.000 S 
ATOM     30  O   UNL     1      10.619  14.414  17.039  0.00  0.00    +0.000 OA
ATOM     31  O   UNL     1      11.706  14.331  19.327  0.00  0.00    +0.000 OA
BRANCH  29  32
ATOM     32  N   UNL     1       9.343  15.076  19.095  0.00  0.00    +0.000 NA
ATOM     33  H   UNL     1       9.726  15.958  19.439  0.00  0.00    +0.000 HD
ATOM     34  H   UNL     1       8.816  14.547  19.789  0.00  0.00    +0.000 HD
ENDBRANCH  29  32
ENDBRANCH  23  29
ENDBRANCH   1  26
TORSDOF 4
ENDMDL
MODEL 5
REMARK VINA RESULT:      -8.0      6.416      7.779
REMARK  Name = 
REMARK  4 active torsions:
REMARK  status: ('A' for Active; 'I' for Inactive)
REMARK    1  A    between atoms: N_1  and  S_2
REMARK    2  A    between atoms: S_2  and  C_5
REMARK    3  A    between atoms: C_8  and  N_9
REMARK    4  A    between atoms: N_19  and  C_20
REMARK                            x       y       z     vdW  Elec       q    Type
REMARK                         _______ _______ _______ _____ _____    ______ ____
ROOT
ATOM      1  N   UNL     1       1.444   9.651  18.507  0.00  0.00    +0.000 N 
ATOM      2  C   UNL     1       1.710   8.406  19.044  0.00  0.00    +0.000 C 
ATOM      3  O   UNL     1       1.564   8.149  20.239  0.00  0.00    +0.000 OA
ATOM      4  N   UNL     1       2.176   7.495  18.128  0.00  0.00    +0.000 N 
ATOM      5  C   UNL     1       2.555   6.206  18.513  0.00  0.00    +0.000 A 
ATOM      6  N   UNL     1       2.223   5.750  19.703  0.00  0.00    +0.000 NA
ATOM      7  C   UNL     1       2.744   4.579  20.008  0.00  0.00    +0.000 A 
ATOM      8 CL   UNL     1       2.448   4.017  21.593  0.00  0.00    +0.000 Cl
ATOM      9  N   UNL     1       3.513   3.823  19.248  0.00  0.00    +0.000 NA
ATOM     10  C   UNL     1       3.755   4.350  18.059  0.00  0.00    +0.000 A 
ATOM     11  N   UNL     1       4.553   3.577  17.213  0.00  0.00    +0.000 N 
ATOM     12  N   UNL     1       3.293   5.533  17.644  0.00  0.00    +0.000 NA
ATOM     13  H   UNL     1       1.173   9.683  17.531  0.00  0.00    +0.000 HD
ATOM     14  H   UNL     1       2.517   7.791  17.230  0.00  0.00    +0.000 HD
ATOM     15  H   UNL     1       4.891   2.778  17.737  0.00  0.00    +0.000 HD
ENDROOT
BRANCH  11  16
ATOM     16  C   UNL     1       5.458   4.031  16.242  0.00  0.00    +0.000 A 
ATOM     17  C   UNL     1       6.638   4.715  16.568  0.00  0.00    +0.000 A 
ATOM     18  C   UNL     1       7.517   5.134  15.570  0.00  0.00    +0.000 A 
ATOM     19  C   UNL     1       7.217   4.869  14.241  0.00  0.00    +0.000 A 
ATOM     20  F   UNL     1       8.058   5.278  13.282  0.00  0.00    +0.000 F 
ATOM     21  C   UNL     1       6.061   4.183  13.893  0.00  0.00    +0.000 A 
ATOM     22  C   UNL     1       5.188   3.755  14.895  0.00  0.00    +0.000 A 
ENDBRANCH  11  16
BRANCH   1  26
ATOM     23  C   UNL     1       0.516  12.958  20.948  0.00  0.00    +0.000 A 
ATOM     24  C   UNL     1       1.512  13.084  19.990  0.00  0.00    +0.000 A 
ATOM     25  C   UNL     1       1.794  12.000  19.163  0.00  0.00    +0.000 A 
ATOM     26  C   UNL     1       1.123  10.774  19.309  0.00  0.00    +0.000 A 
ATOM     27  C   UNL     1       0.114  10.668  20.268  0.00  0.00    +0.000 A 
ATOM     28  C   UNL     1      -0.186  11.757  21.097  0.00  0.00    +0.000 A 
BRANCH  23  29
ATOM     29  S   UNL     1       0.100  14.366  21.927  0.00  0.00    +0.000 S 
ATOM     30  O   UNL     1      -0.557  13.925  23.134  0.00  0.00    +0.000 OA
ATOM     31  O   UNL     1      -0.439  15.396  21.074  0.00  0.00    +0.000 OA
BRANCH  29  32
ATOM     32  N   UNL     1       1.622  14.916  22.382  0.00  0.00    +0.000 NA
ATOM     33  H   UNL     1       1.545  15.502  23.214  0.00  0.00    +0.000 HD
ATOM     34  H   UNL     1       2.087  15.364  21.593  0.00  0.00    +0.000 HD
ENDBRANCH  29  32
ENDBRANCH  23  29
ENDBRANCH   1  26
TORSDOF 4
ENDMDL
MODEL 6
REMARK VINA RESULT:      -8.0      6.361      7.686
REMARK  Name = 
REMARK  4 active torsions:
REMARK  status: ('A' for Active; 'I' for Inactive)
REMARK    1  A    between atoms: N_1  and  S_2
REMARK    2  A    between atoms: S_2  and  C_5
REMARK    3  A    between atoms: C_8  and  N_9
REMARK    4  A    between atoms: N_19  and  C_20
REMARK                            x       y       z     vdW  Elec       q    Type
REMARK                         _______ _______ _______ _____ _____    ______ ____
ROOT
ATOM      1  N   UNL     1       1.480   9.587  18.518  0.00  0.00    +0.000 N 
ATOM      2  C   UNL     1       1.746   8.343  19.056  0.00  0.00    +0.000 C 
ATOM      3  O   UNL     1       1.618   8.092  20.254  0.00  0.00    +0.000 OA
ATOM      4  N   UNL     1       2.191   7.425  18.137  0.00  0.00    +0.000 N 
ATOM      5  C   UNL     1       2.569   6.135  18.521  0.00  0.00    +0.000 A 
ATOM      6  N   UNL     1       2.253   5.686  19.718  0.00  0.00    +0.000 NA
ATOM      7  C   UNL     1       2.771   4.514  20.021  0.00  0.00    +0.000 A 
ATOM      8 CL   UNL     1       2.498   3.962  21.613  0.00  0.00    +0.000 Cl
ATOM      9  N   UNL     1       3.523   3.749  19.252  0.00  0.00    +0.000 NA
ATOM     10  C   UNL     1       3.749   4.269  18.057  0.00  0.00    +0.000 A 
ATOM     11  N   UNL     1       4.527   3.487  17.201  0.00  0.00    +0.000 N 
ATOM     12  N   UNL     1       3.287   5.453  17.644  0.00  0.00    +0.000 NA
ATOM     13  H   UNL     1       1.193   9.616  17.545  0.00  0.00    +0.000 HD
ATOM     14  H   UNL     1       2.520   7.715  17.232  0.00  0.00    +0.000 HD
ATOM     15  H   UNL     1       4.869   2.688  17.723  0.00  0.00    +0.000 HD
ENDROOT
BRANCH  11  16
ATOM     16  C   UNL     1       5.419   3.930  16.213  0.00  0.00    +0.000 A 
ATOM     17  C   UNL     1       5.201   3.712  14.845  0.00  0.00    +0.000 A 
ATOM     18  C   UNL     1       6.108   4.184  13.895  0.00  0.00    +0.000 A 
ATOM     19  C   UNL     1       7.235   4.877  14.314  0.00  0.00    +0.000 A 
ATOM     20  F   UNL     1       8.109   5.324  13.403  0.00  0.00    +0.000 F 
ATOM     21  C   UNL     1       7.467   5.116  15.662  0.00  0.00    +0.000 A 
ATOM     22  C   UNL     1       6.553   4.652  16.609  0.00  0.00    +0.000 A 
ENDBRANCH  11  16
BRANCH   1  26
ATOM     23  C   UNL     1       0.557  12.976  20.845  0.00  0.00    +0.000 A 
ATOM     24  C   UNL     1      -0.092  11.778  21.109  0.00  0.00    +0.000 A 
ATOM     25  C   UNL     1       0.238  10.652  20.360  0.00  0.00    +0.000 A 
ATOM     26  C   UNL     1       1.180  10.716  19.319  0.00  0.00    +0.000 A 
ATOM     27  C   UNL     1       1.834  11.925  19.075  0.00  0.00    +0.000 A 
ATOM     28  C   UNL     1       1.517  13.062  19.831  0.00  0.00    +0.000 A 
BRANCH  23  29
ATOM     29  S   UNL     1       0.201  14.375  21.861  0.00  0.00    +0.000 S 
ATOM     30  O   UNL     1      -0.459  13.928  23.063  0.00  0.00    +0.000 OA
ATOM     31  O   UNL     1      -0.310  15.443  21.037  0.00  0.00    +0.000 OA
BRANCH  29  32
ATOM     32  N   UNL     1       1.746  14.860  22.312  0.00  0.00    +0.000 NA
ATOM     33  H   UNL     1       2.267  15.166  21.489  0.00  0.00    +0.000 HD
ATOM     34  H   UNL     1       2.204  14.126  22.851  0.00  0.00    +0.000 HD
ENDBRANCH  29  32
ENDBRANCH  23  29
ENDBRANCH   1  26
TORSDOF 4
ENDMDL
MODEL 7
REMARK VINA RESULT:      -8.0      6.419      7.854
REMARK  Name = 
REMARK  4 active torsions:
REMARK  status: ('A' for Active; 'I' for Inactive)
REMARK    1  A    between atoms: N_1  and  S_2
REMARK    2  A    between atoms: S_2  and  C_5
REMARK    3  A    between atoms: C_8  and  N_9
REMARK    4  A    between atoms: N_19  and  C_20
REMARK                            x       y       z     vdW  Elec       q    Type
REMARK                         _______ _______ _______ _____ _____    ______ ____
ROOT
ATOM      1  N   UNL     1       1.428   9.623  18.536  0.00  0.00    +0.000 N 
ATOM      2  C   UNL     1       1.706   8.383  19.076  0.00  0.00    +0.000 C 
ATOM      3  O   UNL     1       1.570   8.129  20.273  0.00  0.00    +0.000 OA
ATOM      4  N   UNL     1       2.171   7.471  18.161  0.00  0.00    +0.000 N 
ATOM      5  C   UNL     1       2.562   6.187  18.548  0.00  0.00    +0.000 A 
ATOM      6  N   UNL     1       2.243   5.733  19.742  0.00  0.00    +0.000 NA
ATOM      7  C   UNL     1       2.773   4.567  20.048  0.00  0.00    +0.000 A 
ATOM      8 CL   UNL     1       2.493   4.010  21.638  0.00  0.00    +0.000 Cl
ATOM      9  N   UNL     1       3.542   3.813  19.285  0.00  0.00    +0.000 NA
ATOM     10  C   UNL     1       3.772   4.336  18.093  0.00  0.00    +0.000 A 
ATOM     11  N   UNL     1       4.568   3.566  17.244  0.00  0.00    +0.000 N 
ATOM     12  N   UNL     1       3.298   5.515  17.676  0.00  0.00    +0.000 NA
ATOM     13  H   UNL     1       1.149   9.649  17.561  0.00  0.00    +0.000 HD
ATOM     14  H   UNL     1       2.504   7.766  17.259  0.00  0.00    +0.000 HD
ATOM     15  H   UNL     1       4.916   2.771  17.769  0.00  0.00    +0.000 HD
ENDROOT
BRANCH  11  16
ATOM     16  C   UNL     1       5.463   4.021  16.264  0.00  0.00    +0.000 A 
ATOM     17  C   UNL     1       6.667   4.668  16.581  0.00  0.00    +0.000 A 
ATOM     18  C   UNL     1       7.534   5.091  15.574  0.00  0.00    +0.000 A 
ATOM     19  C   UNL     1       7.199   4.867  14.246  0.00  0.00    +0.000 A 
ATOM     20  F   UNL     1       8.029   5.279  13.279  0.00  0.00    +0.000 F 
ATOM     21  C   UNL     1       6.019   4.218  13.907  0.00  0.00    +0.000 A 
ATOM     22  C   UNL     1       5.158   3.786  14.917  0.00  0.00    +0.000 A 
ENDBRANCH  11  16
BRANCH   1  26
ATOM     23  C   UNL     1       0.447  13.002  20.855  0.00  0.00    +0.000 A 
ATOM     24  C   UNL     1      -0.305  11.844  20.997  0.00  0.00    +0.000 A 
ATOM     25  C   UNL     1       0.042  10.719  20.254  0.00  0.00    +0.000 A 
ATOM     26  C   UNL     1       1.105  10.748  19.335  0.00  0.00    +0.000 A 
ATOM     27  C   UNL     1       1.861  11.916  19.215  0.00  0.00    +0.000 A 
ATOM     28  C   UNL     1       1.527  13.050  19.967  0.00  0.00    +0.000 A 
BRANCH  23  29
ATOM     29  S   UNL     1       0.060  14.393  21.871  0.00  0.00    +0.000 S 
ATOM     30  O   UNL     1      -0.787  15.296  21.131  0.00  0.00    +0.000 OA
ATOM     31  O   UNL     1       1.251  14.823  22.561  0.00  0.00    +0.000 OA
BRANCH  29  32
ATOM     32  N   UNL     1      -0.906  13.684  23.050  0.00  0.00    +0.000 NA
ATOM     33  H   UNL     1      -1.891  13.787  22.799  0.00  0.00    +0.000 HD
ATOM     34  H   UNL     1      -0.667  14.049  23.971  0.00  0.00    +0.000 HD
ENDBRANCH  29  32
ENDBRANCH  23  29
ENDBRANCH   1  26
TORSDOF 4
ENDMDL
MODEL 8
REMARK VINA RESULT:      -7.8      8.407     10.419
REMARK  Name = 
REMARK  4 active torsions:
REMARK  status: ('A' for Active; 'I' for Inactive)
REMARK    1  A    between atoms: N_1  and  S_2
REMARK    2  A    between atoms: S_2  and  C_5
REMARK    3  A    between atoms: C_8  and  N_9
REMARK    4  A    between atoms: N_19  and  C_20
REMARK                            x       y       z     vdW  Elec       q    Type
REMARK                         _______ _______ _______ _____ _____    ______ ____
ROOT
ATOM      1  N   UNL     1       1.366   8.465  17.800  0.00  0.00    +0.000 N 
ATOM      2  C   UNL     1       1.227   9.669  18.464  0.00  0.00    +0.000 C 
ATOM      3  O   UNL     1       2.104  10.136  19.191  0.00  0.00    +0.000 OA
ATOM      4  N   UNL     1       0.014  10.279  18.258  0.00  0.00    +0.000 N 
ATOM      5  C   UNL     1      -0.319  11.472  18.905  0.00  0.00    +0.000 A 
ATOM      6  N   UNL     1       0.616  12.176  19.510  0.00  0.00    +0.000 NA
ATOM      7  C   UNL     1       0.170  13.208  20.196  0.00  0.00    +0.000 A 
ATOM      8 CL   UNL     1       1.335  14.064  21.105  0.00  0.00    +0.000 Cl
ATOM      9  N   UNL     1      -1.080  13.617  20.304  0.00  0.00    +0.000 NA
ATOM     10  C   UNL     1      -1.937  12.869  19.629  0.00  0.00    +0.000 A 
ATOM     11  N   UNL     1      -3.271  13.274  19.701  0.00  0.00    +0.000 N 
ATOM     12  N   UNL     1      -1.603  11.793  18.909  0.00  0.00    +0.000 NA
ATOM     13  H   UNL     1       0.847   8.353  16.936  0.00  0.00    +0.000 HD
ATOM     14  H   UNL     1      -0.763   9.771  17.872  0.00  0.00    +0.000 HD
ATOM     15  H   UNL     1      -3.338  14.031  20.371  0.00  0.00    +0.000 HD
ENDROOT
BRANCH  11  16
ATOM     16  C   UNL     1      -4.414  12.461  19.662  0.00  0.00    +0.000 A 
ATOM     17  C   UNL     1      -4.703  11.613  18.583  0.00  0.00    +0.000 A 
ATOM     18  C   UNL     1      -5.844  10.810  18.594  0.00  0.00    +0.000 A 
ATOM     19  C   UNL     1      -6.697  10.853  19.687  0.00  0.00    +0.000 A 
ATOM     20  F   UNL     1      -7.796  10.088  19.695  0.00  0.00    +0.000 F 
ATOM     21  C   UNL     1      -6.427  11.675  20.773  0.00  0.00    +0.000 A 
ATOM     22  C   UNL     1      -5.279  12.470  20.764  0.00  0.00    +0.000 A 
ENDBRANCH  11  16
BRANCH   1  26
ATOM     23  C   UNL     1       4.595   5.831  18.422  0.00  0.00    +0.000 A 
ATOM     24  C   UNL     1       4.660   6.744  17.378  0.00  0.00    +0.000 A 
ATOM     25  C   UNL     1       3.606   7.635  17.195  0.00  0.00    +0.000 A 
ATOM     26  C   UNL     1       2.465   7.598  18.016  0.00  0.00    +0.000 A 
ATOM     27  C   UNL     1       2.422   6.683  19.070  0.00  0.00    +0.000 A 
ATOM     28  C   UNL     1       3.483   5.790  19.269  0.00  0.00    +0.000 A 
BRANCH  23  29
ATOM     29  S   UNL     1       5.977   4.770  18.705  0.00  0.00    +0.000 S 
ATOM     30  O   UNL     1       6.745   5.281  19.813  0.00  0.00    +0.000 OA
ATOM     31  O   UNL     1       6.569   4.413  17.439  0.00  0.00    +0.000 OA
BRANCH  29  32
ATOM     32  N   UNL     1       5.216   3.373  19.250  0.00  0.00    +0.000 NA
ATOM     33  H   UNL     1       5.610   3.092  20.149  0.00  0.00    +0.000 HD
ATOM     34  H   UNL     1       5.248   2.649  18.533  0.00  0.00    +0.000 HD
ENDBRANCH  29  32
ENDBRANCH  23  29
ENDBRANCH   1  26
TORSDOF 4
ENDMDL
MODEL 9
REMARK VINA RESULT:      -7.8      6.469      7.763
REMARK  Name = 
REMARK  4 active torsions:
REMARK  status: ('A' for Active; 'I' for Inactive)
REMARK    1  A    between atoms: N_1  and  S_2
REMARK    2  A    between atoms: S_2  and  C_5
REMARK    3  A    between atoms: C_8  and  N_9
REMARK    4  A    between atoms: N_19  and  C_20
REMARK                            x       y       z     vdW  Elec       q    Type
REMARK                         _______ _______ _______ _____ _____    ______ ____
ROOT
ATOM      1  N   UNL     1       1.346   9.745  17.962  0.00  0.00    +0.000 N 
ATOM      2  C   UNL     1       1.651   8.567  18.615  0.00  0.00    +0.000 C 
ATOM      3  O   UNL     1       1.521   8.423  19.831  0.00  0.00    +0.000 OA
ATOM      4  N   UNL     1       2.138   7.585  17.788  0.00  0.00    +0.000 N 
ATOM      5  C   UNL     1       2.558   6.351  18.292  0.00  0.00    +0.000 A 
ATOM      6  N   UNL     1       2.247   6.003  19.524  0.00  0.00    +0.000 NA
ATOM      7  C   UNL     1       2.804   4.883  19.936  0.00  0.00    +0.000 A 
ATOM      8 CL   UNL     1       2.535   4.470  21.572  0.00  0.00    +0.000 Cl
ATOM      9  N   UNL     1       3.590   4.079  19.247  0.00  0.00    +0.000 NA
ATOM     10  C   UNL     1       3.809   4.494  18.010  0.00  0.00    +0.000 A 
ATOM     11  N   UNL     1       4.623   3.666  17.235  0.00  0.00    +0.000 N 
ATOM     12  N   UNL     1       3.309   5.618  17.486  0.00  0.00    +0.000 NA
ATOM     13  H   UNL     1       1.068   9.674  16.990  0.00  0.00    +0.000 HD
ATOM     14  H   UNL     1       2.465   7.802  16.862  0.00  0.00    +0.000 HD
ATOM     15  H   UNL     1       4.989   2.931  17.831  0.00  0.00    +0.000 HD
ENDROOT
BRANCH  11  16
ATOM     16  C   UNL     1       5.509   4.049  16.216  0.00  0.00    +0.000 A 
ATOM     17  C   UNL     1       5.264   3.779  14.862  0.00  0.00    +0.000 A 
ATOM     18  C   UNL     1       6.166   4.192  13.880  0.00  0.00    +0.000 A 
ATOM     19  C   UNL     1       7.313   4.877  14.253  0.00  0.00    +0.000 A 
ATOM     20  F   UNL     1       8.182   5.267  13.311  0.00  0.00    +0.000 F 
ATOM     21  C   UNL     1       7.572   5.166  15.586  0.00  0.00    +0.000 A 
ATOM     22  C   UNL     1       6.664   4.761  16.565  0.00  0.00    +0.000 A 
ENDBRANCH  11  16
BRANCH   1  26
ATOM     23  C   UNL     1       0.313  13.310  19.958  0.00  0.00    +0.000 A 
ATOM     24  C   UNL     1      -0.631  12.297  19.852  0.00  0.00    +0.000 A 
ATOM     25  C   UNL     1      -0.276  11.108  19.221  0.00  0.00    +0.000 A 
ATOM     26  C   UNL     1       0.997  10.932  18.654  0.00  0.00    +0.000 A 
ATOM     27  C   UNL     1       1.940  11.954  18.782  0.00  0.00    +0.000 A 
ATOM     28  C   UNL     1       1.596  13.151  19.426  0.00  0.00    +0.000 A 
BRANCH  23  29
ATOM     29  S   UNL     1      -0.115  14.776  20.843  0.00  0.00    +0.000 S 
ATOM     30  O   UNL     1       0.796  15.831  20.475  0.00  0.00    +0.000 OA
ATOM     31  O   UNL     1      -0.409  14.435  22.214  0.00  0.00    +0.000 OA
BRANCH  29  32
ATOM     32  N   UNL     1      -1.600  15.159  20.152  0.00  0.00    +0.000 NA
ATOM     33  H   UNL     1      -1.945  16.039  20.538  0.00  0.00    +0.000 HD
ATOM     34  H   UNL     1      -2.246  14.376  20.245  0.00  0.00    +0.000 HD
ENDBRANCH  29  32
ENDBRANCH  23  29
ENDBRANCH   1  26
TORSDOF 4
ENDMDL
