MODEL 1
REMARK VINA RESULT:      -8.4      0.000      0.000
REMARK  Name = 
REMARK  1 active torsions:
REMARK  status: ('A' for Active; 'I' for Inactive)
REMARK    1  A    between atoms: N_13  and  C_14
REMARK                            x       y       z     vdW  Elec       q    Type
REMARK                         _______ _______ _______ _____ _____    ______ ____
ROOT
ATOM      1  O   UNL     1       1.856   4.709  17.864  0.00  0.00    +0.000 OA
ATOM      2  C   UNL     1       2.915   5.317  17.902  0.00  0.00    +0.000 C 
ATOM      3  O   UNL     1       4.059   4.845  17.294  0.00  0.00    +0.000 OA
ATOM      4  C   UNL     1       5.169   5.637  17.738  0.00  0.00    +0.000 C 
ATOM      5  C   UNL     1       5.927   4.876  18.855  0.00  0.00    +0.000 C 
ATOM      6  N   UNL     1       7.400   5.069  18.744  0.00  0.00    +0.000 NA
ATOM      7  C   UNL     1       7.864   4.341  17.535  0.00  0.00    +0.000 C 
ATOM      8  C   UNL     1       7.022   4.710  16.298  0.00  0.00    +0.000 C 
ATOM      9  C   UNL     1       6.191   5.965  16.616  0.00  0.00    +0.000 C 
ATOM     10  C   UNL     1       7.198   7.001  17.178  0.00  0.00    +0.000 C 
ATOM     11  C   UNL     1       7.689   6.510  18.554  0.00  0.00    +0.000 C 
ATOM     12  C   UNL     1       4.514   6.916  18.209  0.00  0.00    +0.000 C 
ATOM     13  N   UNL     1       3.166   6.547  18.498  0.00  0.00    +0.000 N 
ENDROOT
BRANCH  13  14
ATOM     14  C   UNL     1       2.236   7.607  18.675  0.00  0.00    +0.000 A 
ATOM     15  C   UNL     1       2.142   8.652  17.762  0.00  0.00    +0.000 A 
ATOM     16  C   UNL     1       1.515   9.855  18.117  0.00  0.00    +0.000 A 
ATOM     17  C   UNL     1       0.964   9.995  19.405  0.00  0.00    +0.000 A 
ATOM     18  S   UNL     1       0.271  11.413  20.105  0.00  0.00    +0.000 S 
ATOM     19  C   UNL     1      -0.041  10.611  21.556  0.00  0.00    +0.000 A 
ATOM     20 CL   UNL     1      -0.746  11.466  22.869  0.00  0.00    +0.000 Cl
ATOM     21  C   UNL     1       0.326   9.296  21.549  0.00  0.00    +0.000 A 
ATOM     22  C   UNL     1       0.951   8.928  20.304  0.00  0.00    +0.000 A 
ATOM     23  C   UNL     1       1.560   7.718  19.906  0.00  0.00    +0.000 A 
ENDBRANCH  13  14
TORSDOF 1
ENDMDL
MODEL 2
REMARK VINA RESULT:      -7.9      0.915      1.006
REMARK  Name = 
REMARK  1 active torsions:
REMARK  status: ('A' for Active; 'I' for Inactive)
REMARK    1  A    between atoms: N_13  and  C_14
REMARK                            x       y       z     vdW  Elec       q    Type
REMARK                         _______ _______ _______ _____ _____    ______ ____
ROOT
ATOM      1  O   UNL     1       2.209   4.707  20.185  0.00  0.00    +0.000 OA
ATOM      2  C   UNL     1       2.996   5.284  19.451  0.00  0.00    +0.000 C 
ATOM      3  O   UNL     1       3.911   4.607  18.671  0.00  0.00    +0.000 OA
ATOM      4  C   UNL     1       4.846   5.556  18.141  0.00  0.00    +0.000 C 
ATOM      5  C   UNL     1       6.143   5.525  18.989  0.00  0.00    +0.000 C 
ATOM      6  N   UNL     1       7.355   5.687  18.136  0.00  0.00    +0.000 NA
ATOM      7  C   UNL     1       7.511   4.451  17.327  0.00  0.00    +0.000 C 
ATOM      8  C   UNL     1       6.200   4.082  16.605  0.00  0.00    +0.000 C 
ATOM      9  C   UNL     1       5.242   5.284  16.665  0.00  0.00    +0.000 C 
ATOM     10  C   UNL     1       6.064   6.499  16.162  0.00  0.00    +0.000 C 
ATOM     11  C   UNL     1       7.149   6.823  17.208  0.00  0.00    +0.000 C 
ATOM     12  C   UNL     1       4.095   6.865  18.226  0.00  0.00    +0.000 C 
ATOM     13  N   UNL     1       3.109   6.652  19.235  0.00  0.00    +0.000 N 
ENDROOT
BRANCH  13  14
ATOM     14  C   UNL     1       2.062   7.611  19.321  0.00  0.00    +0.000 A 
ATOM     15  C   UNL     1       1.792   8.487  18.276  0.00  0.00    +0.000 A 
ATOM     16  C   UNL     1       1.037   9.648  18.496  0.00  0.00    +0.000 A 
ATOM     17  C   UNL     1       0.539   9.917  19.785  0.00  0.00    +0.000 A 
ATOM     18  S   UNL     1      -0.290  11.333  20.319  0.00  0.00    +0.000 S 
ATOM     19  C   UNL     1      -0.424  10.730  21.889  0.00  0.00    +0.000 A 
ATOM     20 CL   UNL     1      -1.164  11.686  23.111  0.00  0.00    +0.000 Cl
ATOM     21  C   UNL     1       0.105   9.481  22.047  0.00  0.00    +0.000 A 
ATOM     22  C   UNL     1       0.706   9.004  20.828  0.00  0.00    +0.000 A 
ATOM     23  C   UNL     1       1.441   7.827  20.567  0.00  0.00    +0.000 A 
ENDBRANCH  13  14
TORSDOF 1
ENDMDL
MODEL 3
REMARK VINA RESULT:      -7.6      2.626      3.900
REMARK  Name = 
REMARK  1 active torsions:
REMARK  status: ('A' for Active; 'I' for Inactive)
REMARK    1  A    between atoms: N_13  and  C_14
REMARK                            x       y       z     vdW  Elec       q    Type
REMARK                         _______ _______ _______ _____ _____    ______ ____
ROOT
ATOM      1  O   UNL     1       4.134   7.384  17.622  0.00  0.00    +0.000 OA
ATOM      2  C   UNL     1       3.550   6.522  18.262  0.00  0.00    +0.000 C 
ATOM      3  O   UNL     1       4.013   5.226  18.348  0.00  0.00    +0.000 OA
ATOM      4  C   UNL     1       2.986   4.415  18.935  0.00  0.00    +0.000 C 
ATOM      5  C   UNL     1       2.234   3.651  17.816  0.00  0.00    +0.000 C 
ATOM      6  N   UNL     1       1.877   2.270  18.245  0.00  0.00    +0.000 NA
ATOM      7  C   UNL     1       3.133   1.482  18.336  0.00  0.00    +0.000 C 
ATOM      8  C   UNL     1       4.198   2.215  19.176  0.00  0.00    +0.000 C 
ATOM      9  C   UNL     1       3.522   3.364  19.944  0.00  0.00    +0.000 C 
ATOM     10  C   UNL     1       2.303   2.728  20.660  0.00  0.00    +0.000 C 
ATOM     11  C   UNL     1       1.266   2.321  19.594  0.00  0.00    +0.000 C 
ATOM     12  C   UNL     1       2.129   5.422  19.668  0.00  0.00    +0.000 C 
ATOM     13  N   UNL     1       2.392   6.664  19.016  0.00  0.00    +0.000 N 
ENDROOT
BRANCH  13  14
ATOM     14  C   UNL     1       1.954   7.842  19.681  0.00  0.00    +0.000 A 
ATOM     15  C   UNL     1       1.680   7.848  21.044  0.00  0.00    +0.000 A 
ATOM     16  C   UNL     1       0.909   8.872  21.612  0.00  0.00    +0.000 A 
ATOM     17  C   UNL     1       0.422   9.908  20.793  0.00  0.00    +0.000 A 
ATOM     18  S   UNL     1      -0.647  11.188  21.238  0.00  0.00    +0.000 S 
ATOM     19  C   UNL     1      -0.633  11.819  19.674  0.00  0.00    +0.000 A 
ATOM     20 CL   UNL     1      -1.587  13.199  19.301  0.00  0.00    +0.000 Cl
ATOM     21  C   UNL     1       0.169  11.130  18.809  0.00  0.00    +0.000 A 
ATOM     22  C   UNL     1       0.769   9.983  19.443  0.00  0.00    +0.000 A 
ATOM     23  C   UNL     1       1.575   8.956  18.906  0.00  0.00    +0.000 A 
ENDBRANCH  13  14
TORSDOF 1
ENDMDL
MODEL 4
REMARK VINA RESULT:      -7.4      2.219      3.442
REMARK  Name = 
REMARK  1 active torsions:
REMARK  status: ('A' for Active; 'I' for Inactive)
REMARK    1  A    between atoms: N_13  and  C_14
REMARK                            x       y       z     vdW  Elec       q    Type
REMARK                         _______ _______ _______ _____ _____    ______ ____
ROOT
ATOM      1  O   UNL     1       4.828   7.250  17.613  0.00  0.00    +0.000 OA
ATOM      2  C   UNL     1       4.020   6.438  18.038  0.00  0.00    +0.000 C 
ATOM      3  O   UNL     1       4.396   5.192  18.493  0.00  0.00    +0.000 OA
ATOM      4  C   UNL     1       3.215   4.397  18.668  0.00  0.00    +0.000 C 
ATOM      5  C   UNL     1       3.042   3.460  17.445  0.00  0.00    +0.000 C 
ATOM      6  N   UNL     1       2.531   2.121  17.854  0.00  0.00    +0.000 NA
ATOM      7  C   UNL     1       3.615   1.427  18.595  0.00  0.00    +0.000 C 
ATOM      8  C   UNL     1       4.192   2.318  19.713  0.00  0.00    +0.000 C 
ATOM      9  C   UNL     1       3.244   3.509  19.941  0.00  0.00    +0.000 C 
ATOM     10  C   UNL     1       1.834   2.891  20.121  0.00  0.00    +0.000 C 
ATOM     11  C   UNL     1       1.382   2.297  18.773  0.00  0.00    +0.000 C 
ATOM     12  C   UNL     1       2.121   5.431  18.803  0.00  0.00    +0.000 C 
ATOM     13  N   UNL     1       2.646   6.599  18.175  0.00  0.00    +0.000 N 
ENDROOT
BRANCH  13  14
ATOM     14  C   UNL     1       1.957   7.820  18.412  0.00  0.00    +0.000 A 
ATOM     15  C   UNL     1       2.239   8.967  17.679  0.00  0.00    +0.000 A 
ATOM     16  C   UNL     1       1.846  10.228  18.150  0.00  0.00    +0.000 A 
ATOM     17  C   UNL     1       1.150  10.326  19.370  0.00  0.00    +0.000 A 
ATOM     18  S   UNL     1       0.689  11.764  20.206  0.00  0.00    +0.000 S 
ATOM     19  C   UNL     1      -0.011  10.878  21.458  0.00  0.00    +0.000 A 
ATOM     20 CL   UNL     1      -0.702  11.697  22.802  0.00  0.00    +0.000 Cl
ATOM     21  C   UNL     1       0.052   9.525  21.279  0.00  0.00    +0.000 A 
ATOM     22  C   UNL     1       0.763   9.185  20.073  0.00  0.00    +0.000 A 
ATOM     23  C   UNL     1       1.142   7.927  19.557  0.00  0.00    +0.000 A 
ENDBRANCH  13  14
TORSDOF 1
ENDMDL
MODEL 5
REMARK VINA RESULT:      -7.4      2.488      3.637
REMARK  Name = 
REMARK  1 active torsions:
REMARK  status: ('A' for Active; 'I' for Inactive)
REMARK    1  A    between atoms: N_13  and  C_14
REMARK                            x       y       z     vdW  Elec       q    Type
REMARK                         _______ _______ _______ _____ _____    ______ ____
ROOT
ATOM      1  O   UNL     1       2.457   9.049  17.442  0.00  0.00    +0.000 OA
ATOM      2  C   UNL     1       2.473   8.040  18.132  0.00  0.00    +0.000 C 
ATOM      3  O   UNL     1       3.281   6.961  17.841  0.00  0.00    +0.000 OA
ATOM      4  C   UNL     1       2.880   5.858  18.666  0.00  0.00    +0.000 C 
ATOM      5  C   UNL     1       1.982   4.902  17.842  0.00  0.00    +0.000 C 
ATOM      6  N   UNL     1       2.254   3.476  18.176  0.00  0.00    +0.000 NA
ATOM      7  C   UNL     1       3.599   3.133  17.647  0.00  0.00    +0.000 C 
ATOM      8  C   UNL     1       4.657   4.162  18.091  0.00  0.00    +0.000 C 
ATOM      9  C   UNL     1       4.069   5.027  19.219  0.00  0.00    +0.000 C 
ATOM     10  C   UNL     1       3.506   4.028  20.262  0.00  0.00    +0.000 C 
ATOM     11  C   UNL     1       2.283   3.317  19.649  0.00  0.00    +0.000 C 
ATOM     12  C   UNL     1       2.161   6.530  19.814  0.00  0.00    +0.000 C 
ATOM     13  N   UNL     1       1.754   7.796  19.296  0.00  0.00    +0.000 N 
ENDROOT
BRANCH  13  14
ATOM     14  C   UNL     1       1.319   8.765  20.240  0.00  0.00    +0.000 A 
ATOM     15  C   UNL     1       1.421   8.544  21.608  0.00  0.00    +0.000 A 
ATOM     16  C   UNL     1       0.669   9.307  22.513  0.00  0.00    +0.000 A 
ATOM     17  C   UNL     1      -0.185  10.315  22.025  0.00  0.00    +0.000 A 
ATOM     18  S   UNL     1      -1.296  11.281  22.927  0.00  0.00    +0.000 S 
ATOM     19  C   UNL     1      -1.804  12.092  21.539  0.00  0.00    +0.000 A 
ATOM     20 CL   UNL     1      -3.040  13.282  21.648  0.00  0.00    +0.000 Cl
ATOM     21  C   UNL     1      -1.158  11.698  20.401  0.00  0.00    +0.000 A 
ATOM     22  C   UNL     1      -0.228  10.629  20.666  0.00  0.00    +0.000 A 
ATOM     23  C   UNL     1       0.566   9.866  19.783  0.00  0.00    +0.000 A 
ENDBRANCH  13  14
TORSDOF 1
ENDMDL
MODEL 6
REMARK VINA RESULT:      -7.4      1.419      1.976
REMARK  Name = 
REMARK  1 active torsions:
REMARK  status: ('A' for Active; 'I' for Inactive)
REMARK    1  A    between atoms: N_13  and  C_14
REMARK                            x       y       z     vdW  Elec       q    Type
REMARK                         _______ _______ _______ _____ _____    ______ ____
ROOT
ATOM      1  O   UNL     1       1.338   4.674  18.473  0.00  0.00    +0.000 OA
ATOM      2  C   UNL     1       2.416   5.177  18.191  0.00  0.00    +0.000 C 
ATOM      3  O   UNL     1       3.189   4.724  17.142  0.00  0.00    +0.000 OA
ATOM      4  C   UNL     1       4.484   5.333  17.238  0.00  0.00    +0.000 C 
ATOM      5  C   UNL     1       5.475   4.330  17.880  0.00  0.00    +0.000 C 
ATOM      6  N   UNL     1       6.823   4.417  17.251  0.00  0.00    +0.000 NA
ATOM      7  C   UNL     1       6.718   3.873  15.872  0.00  0.00    +0.000 C 
ATOM      8  C   UNL     1       5.550   4.518  15.100  0.00  0.00    +0.000 C 
ATOM      9  C   UNL     1       5.073   5.764  15.867  0.00  0.00    +0.000 C 
ATOM     10  C   UNL     1       6.349   6.600  16.141  0.00  0.00    +0.000 C 
ATOM     11  C   UNL     1       7.225   5.840  17.156  0.00  0.00    +0.000 C 
ATOM     12  C   UNL     1       4.227   6.560  18.081  0.00  0.00    +0.000 C 
ATOM     13  N   UNL     1       3.034   6.260  18.804  0.00  0.00    +0.000 N 
ENDROOT
BRANCH  13  14
ATOM     14  C   UNL     1       2.386   7.347  19.453  0.00  0.00    +0.000 A 
ATOM     15  C   UNL     1       1.848   7.215  20.728  0.00  0.00    +0.000 A 
ATOM     16  C   UNL     1       0.906   8.139  21.203  0.00  0.00    +0.000 A 
ATOM     17  C   UNL     1       0.515   9.214  20.383  0.00  0.00    +0.000 A 
ATOM     18  S   UNL     1      -0.713  10.385  20.696  0.00  0.00    +0.000 S 
ATOM     19  C   UNL     1      -0.436  11.153  19.221  0.00  0.00    +0.000 A 
ATOM     20 CL   UNL     1      -1.397  12.504  18.767  0.00  0.00    +0.000 Cl
ATOM     21  C   UNL     1       0.570  10.592  18.487  0.00  0.00    +0.000 A 
ATOM     22  C   UNL     1       1.116   9.430  19.141  0.00  0.00    +0.000 A 
ATOM     23  C   UNL     1       2.086   8.503  18.704  0.00  0.00    +0.000 A 
ENDBRANCH  13  14
TORSDOF 1
ENDMDL
MODEL 7
REMARK VINA RESULT:      -7.1      4.761      8.002
REMARK  Name = 
REMARK  1 active torsions:
REMARK  status: ('A' for Active; 'I' for Inactive)
REMARK    1  A    between atoms: N_13  and  C_14
REMARK                            x       y       z     vdW  Elec       q    Type
REMARK                         _______ _______ _______ _____ _____    ______ ____
ROOT
ATOM      1  O   UNL     1       1.645   9.442  22.794  0.00  0.00    +0.000 OA
ATOM      2  C   UNL     1       1.187   9.944  21.779  0.00  0.00    +0.000 C 
ATOM      3  O   UNL     1       0.864  11.282  21.698  0.00  0.00    +0.000 OA
ATOM      4  C   UNL     1       0.118  11.497  20.493  0.00  0.00    +0.000 C 
ATOM      5  C   UNL     1      -1.393  11.562  20.831  0.00  0.00    +0.000 C 
ATOM      6  N   UNL     1      -2.092  12.586  20.004  0.00  0.00    +0.000 NA
ATOM      7  C   UNL     1      -1.639  13.925  20.459  0.00  0.00    +0.000 C 
ATOM      8  C   UNL     1      -0.102  14.011  20.512  0.00  0.00    +0.000 C 
ATOM      9  C   UNL     1       0.491  12.811  19.754  0.00  0.00    +0.000 C 
ATOM     10  C   UNL     1      -0.216  12.797  18.375  0.00  0.00    +0.000 C 
ATOM     11  C   UNL     1      -1.696  12.422  18.586  0.00  0.00    +0.000 C 
ATOM     12  C   UNL     1       0.500  10.313  19.635  0.00  0.00    +0.000 C 
ATOM     13  N   UNL     1       0.941   9.322  20.561  0.00  0.00    +0.000 N 
ENDROOT
BRANCH  13  14
ATOM     14  C   UNL     1       1.643   8.209  20.023  0.00  0.00    +0.000 A 
ATOM     15  C   UNL     1       2.244   8.265  18.770  0.00  0.00    +0.000 A 
ATOM     16  C   UNL     1       2.598   7.088  18.095  0.00  0.00    +0.000 A 
ATOM     17  C   UNL     1       2.353   5.841  18.702  0.00  0.00    +0.000 A 
ATOM     18  S   UNL     1       2.577   4.274  18.015  0.00  0.00    +0.000 S 
ATOM     19  C   UNL     1       2.023   3.519  19.417  0.00  0.00    +0.000 A 
ATOM     20 CL   UNL     1       1.908   1.805  19.476  0.00  0.00    +0.000 Cl
ATOM     21  C   UNL     1       1.693   4.388  20.418  0.00  0.00    +0.000 A 
ATOM     22  C   UNL     1       1.848   5.758  20.001  0.00  0.00    +0.000 A 
ATOM     23  C   UNL     1       1.533   6.961  20.669  0.00  0.00    +0.000 A 
ENDBRANCH  13  14
TORSDOF 1
ENDMDL
MODEL 8
REMARK VINA RESULT:      -6.9      4.585      8.273
REMARK  Name = 
REMARK  1 active torsions:
REMARK  status: ('A' for Active; 'I' for Inactive)
REMARK    1  A    between atoms: N_13  and  C_14
REMARK                            x       y       z     vdW  Elec       q    Type
REMARK                         _______ _______ _______ _____ _____    ______ ____
ROOT
ATOM      1  O   UNL     1      -1.145   9.818  17.376  0.00  0.00    +0.000 OA
ATOM      2  C   UNL     1      -0.834  10.401  18.404  0.00  0.00    +0.000 C 
ATOM      3  O   UNL     1      -1.734  11.160  19.123  0.00  0.00    +0.000 OA
ATOM      4  C   UNL     1      -1.010  11.913  20.105  0.00  0.00    +0.000 C 
ATOM      5  C   UNL     1      -0.806  13.361  19.593  0.00  0.00    +0.000 C 
ATOM      6  N   UNL     1      -0.935  14.352  20.698  0.00  0.00    +0.000 NA
ATOM      7  C   UNL     1      -2.361  14.392  21.110  0.00  0.00    +0.000 C 
ATOM      8  C   UNL     1      -2.908  12.977  21.383  0.00  0.00    +0.000 C 
ATOM      9  C   UNL     1      -1.726  11.997  21.480  0.00  0.00    +0.000 C 
ATOM     10  C   UNL     1      -0.739  12.631  22.493  0.00  0.00    +0.000 C 
ATOM     11  C   UNL     1      -0.132  13.898  21.857  0.00  0.00    +0.000 C 
ATOM     12  C   UNL     1       0.277  11.134  20.258  0.00  0.00    +0.000 C 
ATOM     13  N   UNL     1       0.401  10.398  19.042  0.00  0.00    +0.000 N 
ENDROOT
BRANCH  13  14
ATOM     14  C   UNL     1       1.359   9.348  19.022  0.00  0.00    +0.000 A 
ATOM     15  C   UNL     1       2.174   9.129  17.917  0.00  0.00    +0.000 A 
ATOM     16  C   UNL     1       2.832   7.902  17.748  0.00  0.00    +0.000 A 
ATOM     17  C   UNL     1       2.674   6.892  18.716  0.00  0.00    +0.000 A 
ATOM     18  S   UNL     1       3.270   5.274  18.656  0.00  0.00    +0.000 S 
ATOM     19  C   UNL     1       2.582   4.906  20.151  0.00  0.00    +0.000 A 
ATOM     20 CL   UNL     1       2.729   3.317  20.792  0.00  0.00    +0.000 Cl
ATOM     21  C   UNL     1       1.933   5.957  20.734  0.00  0.00    +0.000 A 
ATOM     22  C   UNL     1       1.948   7.122  19.886  0.00  0.00    +0.000 A 
ATOM     23  C   UNL     1       1.325   8.379  20.044  0.00  0.00    +0.000 A 
ENDBRANCH  13  14
TORSDOF 1
ENDMDL
MODEL 9
REMARK VINA RESULT:      -6.8      4.396      8.098
REMARK  Name = 
REMARK  1 active torsions:
REMARK  status: ('A' for Active; 'I' for Inactive)
REMARK    1  A    between atoms: N_13  and  C_14
REMARK                            x       y       z     vdW  Elec       q    Type
REMARK                         _______ _______ _______ _____ _____    ______ ____
ROOT
ATOM      1  O   UNL     1       1.806   9.302  22.705  0.00  0.00    +0.000 OA
ATOM      2  C   UNL     1       1.269   9.806  21.730  0.00  0.00    +0.000 C 
ATOM      3  O   UNL     1       1.014  11.159  21.646  0.00  0.00    +0.000 OA
ATOM      4  C   UNL     1       0.154  11.389  20.521  0.00  0.00    +0.000 C 
ATOM      5  C   UNL     1      -1.306  11.549  21.017  0.00  0.00    +0.000 C 
ATOM      6  N   UNL     1      -2.033  12.592  20.240  0.00  0.00    +0.000 NA
ATOM      7  C   UNL     1      -1.460  13.913  20.605  0.00  0.00    +0.000 C 
ATOM      8  C   UNL     1       0.077  13.911  20.490  0.00  0.00    +0.000 C 
ATOM      9  C   UNL     1       0.517  12.661  19.708  0.00  0.00    +0.000 C 
ATOM     10  C   UNL     1      -0.336  12.657  18.414  0.00  0.00    +0.000 C 
ATOM     11  C   UNL     1      -1.802  12.373  18.793  0.00  0.00    +0.000 C 
ATOM     12  C   UNL     1       0.375  10.165  19.662  0.00  0.00    +0.000 C 
ATOM     13  N   UNL     1       0.858   9.171  20.564  0.00  0.00    +0.000 N 
ENDROOT
BRANCH  13  14
ATOM     14  C   UNL     1       1.435   8.007  19.987  0.00  0.00    +0.000 A 
ATOM     15  C   UNL     1       1.491   6.804  20.680  0.00  0.00    +0.000 A 
ATOM     16  C   UNL     1       2.371   5.788  20.277  0.00  0.00    +0.000 A 
ATOM     17  C   UNL     1       3.192   5.990  19.151  0.00  0.00    +0.000 A 
ATOM     18  S   UNL     1       4.433   4.950  18.554  0.00  0.00    +0.000 S 
ATOM     19  C   UNL     1       4.796   6.014  17.297  0.00  0.00    +0.000 A 
ATOM     20 CL   UNL     1       6.074   5.645  16.207  0.00  0.00    +0.000 Cl
ATOM     21  C   UNL     1       4.005   7.127  17.270  0.00  0.00    +0.000 A 
ATOM     22  C   UNL     1       3.081   7.145  18.375  0.00  0.00    +0.000 A 
ATOM     23  C   UNL     1       2.162   8.135  18.786  0.00  0.00    +0.000 A 
ENDBRANCH  13  14
TORSDOF 1
ENDMDL
