MODEL 1
REMARK VINA RESULT:      -4.5      0.000      0.000
REMARK  Name = 
REMARK  0 active torsions:
REMARK  status: ('A' for Active; 'I' for Inactive)
REMARK                            x       y       z     vdW  Elec       q    Type
REMARK                         _______ _______ _______ _____ _____    ______ ____
ROOT
ATOM      1  N   UNL     1       8.252   5.385  20.276  0.00  0.00    +0.000 N 
ATOM      2  C   UNL     1       7.925   5.595  18.936  0.00  0.00    +0.000 A 
ATOM      3  C   UNL     1       7.818   6.874  18.438  0.00  0.00    +0.000 A 
ATOM      4  C   UNL     1       7.457   6.979  17.114  0.00  0.00    +0.000 A 
ATOM      5  N   UNL     1       7.211   5.919  16.327  0.00  0.00    +0.000 NA
ATOM      6  C   UNL     1       7.330   4.723  16.922  0.00  0.00    +0.000 A 
ATOM      7  N   UNL     1       7.680   4.505  18.201  0.00  0.00    +0.000 NA
ATOM      8  H   UNL     1       9.102   5.866  20.541  0.00  0.00    +0.000 HD
ATOM      9  H   UNL     1       8.324   4.380  20.415  0.00  0.00    +0.000 HD
ENDROOT
TORSDOF 0
ENDMDL
MODEL 2
REMARK VINA RESULT:      -4.2      1.031      1.768
REMARK  Name = 
REMARK  0 active torsions:
REMARK  status: ('A' for Active; 'I' for Inactive)
REMARK                            x       y       z     vdW  Elec       q    Type
REMARK                         _______ _______ _______ _____ _____    ______ ____
ROOT
ATOM      1  N   UNL     1       8.223   5.426  20.189  0.00  0.00    +0.000 N 
ATOM      2  C   UNL     1       7.860   5.681  18.867  0.00  0.00    +0.000 A 
ATOM      3  C   UNL     1       7.566   4.642  18.012  0.00  0.00    +0.000 A 
ATOM      4  C   UNL     1       7.253   4.992  16.719  0.00  0.00    +0.000 A 
ATOM      5  N   UNL     1       7.229   6.261  16.280  0.00  0.00    +0.000 NA
ATOM      6  C   UNL     1       7.547   7.190  17.195  0.00  0.00    +0.000 A 
ATOM      7  N   UNL     1       7.863   6.961  18.480  0.00  0.00    +0.000 NA
ATOM      8  H   UNL     1       7.544   4.848  20.666  0.00  0.00    +0.000 HD
ATOM      9  H   UNL     1       8.346   6.326  20.647  0.00  0.00    +0.000 HD
ENDROOT
TORSDOF 0
ENDMDL
MODEL 3
REMARK VINA RESULT:      -4.0      1.893      3.611
REMARK  Name = 
REMARK  0 active torsions:
REMARK  status: ('A' for Active; 'I' for Inactive)
REMARK                            x       y       z     vdW  Elec       q    Type
REMARK                         _______ _______ _______ _____ _____    ______ ____
ROOT
ATOM      1  N   UNL     1       6.629   4.330  14.405  0.00  0.00    +0.000 N 
ATOM      2  C   UNL     1       6.561   4.369  15.798  0.00  0.00    +0.000 A 
ATOM      3  C   UNL     1       5.347   4.259  16.440  0.00  0.00    +0.000 A 
ATOM      4  C   UNL     1       5.379   4.344  17.813  0.00  0.00    +0.000 A 
ATOM      5  N   UNL     1       6.507   4.527  18.517  0.00  0.00    +0.000 NA
ATOM      6  C   UNL     1       7.628   4.635  17.788  0.00  0.00    +0.000 A 
ATOM      7  N   UNL     1       7.712   4.564  16.450  0.00  0.00    +0.000 NA
ATOM      8  H   UNL     1       6.178   3.508  14.024  0.00  0.00    +0.000 HD
ATOM      9  H   UNL     1       7.612   4.377  14.150  0.00  0.00    +0.000 HD
ENDROOT
TORSDOF 0
ENDMDL
MODEL 4
REMARK VINA RESULT:      -4.0      1.327      1.327
REMARK  Name = 
REMARK  0 active torsions:
REMARK  status: ('A' for Active; 'I' for Inactive)
REMARK                            x       y       z     vdW  Elec       q    Type
REMARK                         _______ _______ _______ _____ _____    ______ ____
ROOT
ATOM      1  N   UNL     1       8.428   5.343  20.306  0.00  0.00    +0.000 N 
ATOM      2  C   UNL     1       7.548   5.678  19.277  0.00  0.00    +0.000 A 
ATOM      3  C   UNL     1       7.852   6.701  18.407  0.00  0.00    +0.000 A 
ATOM      4  C   UNL     1       6.906   6.980  17.446  0.00  0.00    +0.000 A 
ATOM      5  N   UNL     1       5.744   6.317  17.339  0.00  0.00    +0.000 NA
ATOM      6  C   UNL     1       5.547   5.351  18.248  0.00  0.00    +0.000 A 
ATOM      7  N   UNL     1       6.401   4.993  19.222  0.00  0.00    +0.000 NA
ATOM      8  H   UNL     1       9.363   5.159  19.965  0.00  0.00    +0.000 HD
ATOM      9  H   UNL     1       8.034   4.540  20.790  0.00  0.00    +0.000 HD
ENDROOT
TORSDOF 0
ENDMDL
MODEL 5
REMARK VINA RESULT:      -3.9      1.668      1.858
REMARK  Name = 
REMARK  0 active torsions:
REMARK  status: ('A' for Active; 'I' for Inactive)
REMARK                            x       y       z     vdW  Elec       q    Type
REMARK                         _______ _______ _______ _____ _____    ______ ____
ROOT
ATOM      1  N   UNL     1       5.674   3.684  18.931  0.00  0.00    +0.000 N 
ATOM      2  C   UNL     1       6.306   4.623  18.117  0.00  0.00    +0.000 A 
ATOM      3  C   UNL     1       6.906   5.733  18.669  0.00  0.00    +0.000 A 
ATOM      4  C   UNL     1       7.473   6.620  17.782  0.00  0.00    +0.000 A 
ATOM      5  N   UNL     1       7.455   6.447  16.451  0.00  0.00    +0.000 NA
ATOM      6  C   UNL     1       6.831   5.340  16.023  0.00  0.00    +0.000 A 
ATOM      7  N   UNL     1       6.250   4.409  16.798  0.00  0.00    +0.000 NA
ATOM      8  H   UNL     1       6.283   3.343  19.664  0.00  0.00    +0.000 HD
ATOM      9  H   UNL     1       5.348   2.933  18.328  0.00  0.00    +0.000 HD
ENDROOT
TORSDOF 0
ENDMDL
MODEL 6
REMARK VINA RESULT:      -3.9      5.127      5.608
REMARK  Name = 
REMARK  0 active torsions:
REMARK  status: ('A' for Active; 'I' for Inactive)
REMARK                            x       y       z     vdW  Elec       q    Type
REMARK                         _______ _______ _______ _____ _____    ______ ____
ROOT
ATOM      1  N   UNL     1       4.883   2.052  19.824  0.00  0.00    +0.000 N 
ATOM      2  C   UNL     1       3.821   2.483  19.028  0.00  0.00    +0.000 A 
ATOM      3  C   UNL     1       4.052   3.294  17.938  0.00  0.00    +0.000 A 
ATOM      4  C   UNL     1       2.939   3.695  17.236  0.00  0.00    +0.000 A 
ATOM      5  N   UNL     1       1.687   3.341  17.569  0.00  0.00    +0.000 NA
ATOM      6  C   UNL     1       1.580   2.563  18.656  0.00  0.00    +0.000 A 
ATOM      7  N   UNL     1       2.595   2.111  19.410  0.00  0.00    +0.000 NA
ATOM      8  H   UNL     1       5.607   1.600  19.281  0.00  0.00    +0.000 HD
ATOM      9  H   UNL     1       4.496   1.433  20.532  0.00  0.00    +0.000 HD
ENDROOT
TORSDOF 0
ENDMDL
MODEL 7
REMARK VINA RESULT:      -3.9      5.066      5.631
REMARK  Name = 
REMARK  0 active torsions:
REMARK  status: ('A' for Active; 'I' for Inactive)
REMARK                            x       y       z     vdW  Elec       q    Type
REMARK                         _______ _______ _______ _____ _____    ______ ____
ROOT
ATOM      1  N   UNL     1       4.896   2.067  19.864  0.00  0.00    +0.000 N 
ATOM      2  C   UNL     1       3.859   2.516  19.047  0.00  0.00    +0.000 A 
ATOM      3  C   UNL     1       2.560   2.131  19.295  0.00  0.00    +0.000 A 
ATOM      4  C   UNL     1       1.612   2.597  18.413  0.00  0.00    +0.000 A 
ATOM      5  N   UNL     1       1.901   3.379  17.360  0.00  0.00    +0.000 NA
ATOM      6  C   UNL     1       3.200   3.679  17.207  0.00  0.00    +0.000 A 
ATOM      7  N   UNL     1       4.204   3.283  18.007  0.00  0.00    +0.000 NA
ATOM      8  H   UNL     1       4.723   2.261  20.842  0.00  0.00    +0.000 HD
ATOM      9  H   UNL     1       5.752   2.507  19.535  0.00  0.00    +0.000 HD
ENDROOT
TORSDOF 0
ENDMDL
MODEL 8
REMARK VINA RESULT:      -3.9      6.082      6.545
REMARK  Name = 
REMARK  0 active torsions:
REMARK  status: ('A' for Active; 'I' for Inactive)
REMARK                            x       y       z     vdW  Elec       q    Type
REMARK                         _______ _______ _______ _____ _____    ______ ____
ROOT
ATOM      1  N   UNL     1       4.842   2.172  19.904  0.00  0.00    +0.000 N 
ATOM      2  C   UNL     1       3.472   2.426  19.857  0.00  0.00    +0.000 A 
ATOM      3  C   UNL     1       2.790   2.784  20.999  0.00  0.00    +0.000 A 
ATOM      4  C   UNL     1       1.435   2.979  20.858  0.00  0.00    +0.000 A 
ATOM      5  N   UNL     1       0.783   2.834  19.693  0.00  0.00    +0.000 NA
ATOM      6  C   UNL     1       1.544   2.468  18.651  0.00  0.00    +0.000 A 
ATOM      7  N   UNL     1       2.870   2.256  18.674  0.00  0.00    +0.000 NA
ATOM      8  H   UNL     1       5.358   2.939  20.315  0.00  0.00    +0.000 HD
ATOM      9  H   UNL     1       5.145   1.977  18.953  0.00  0.00    +0.000 HD
ENDROOT
TORSDOF 0
ENDMDL
MODEL 9
REMARK VINA RESULT:      -3.9      1.743      2.236
REMARK  Name = 
REMARK  0 active torsions:
REMARK  status: ('A' for Active; 'I' for Inactive)
REMARK                            x       y       z     vdW  Elec       q    Type
REMARK                         _______ _______ _______ _____ _____    ______ ____
ROOT
ATOM      1  N   UNL     1       7.811   4.358  18.191  0.00  0.00    +0.000 N 
ATOM      2  C   UNL     1       7.081   4.918  17.142  0.00  0.00    +0.000 A 
ATOM      3  C   UNL     1       6.041   5.782  17.401  0.00  0.00    +0.000 A 
ATOM      4  C   UNL     1       5.359   6.255  16.302  0.00  0.00    +0.000 A 
ATOM      5  N   UNL     1       5.661   5.911  15.040  0.00  0.00    +0.000 NA
ATOM      6  C   UNL     1       6.683   5.053  14.907  0.00  0.00    +0.000 A 
ATOM      7  N   UNL     1       7.417   4.534  15.905  0.00  0.00    +0.000 NA
ATOM      8  H   UNL     1       8.174   5.061  18.821  0.00  0.00    +0.000 HD
ATOM      9  H   UNL     1       8.552   3.798  17.777  0.00  0.00    +0.000 HD
ENDROOT
TORSDOF 0
ENDMDL
