MODEL 1
REMARK VINA RESULT:      -8.9      0.000      0.000
REMARK  Name = 
REMARK  2 active torsions:
REMARK  status: ('A' for Active; 'I' for Inactive)
REMARK    1  A    between atoms: C_11  and  C_12
REMARK    2  A    between atoms: C_13  and  C_14
REMARK                            x       y       z     vdW  Elec       q    Type
REMARK                         _______ _______ _______ _____ _____    ______ ____
ROOT
ATOM      1  O   UNL     1      -4.958  12.455  21.478  0.00  0.00    +0.000 OA
ATOM      2  C   UNL     1      -3.801  12.877  21.519  0.00  0.00    +0.000 A 
ATOM      3  C   UNL     1      -3.276  13.542  22.730  0.00  0.00    +0.000 A 
ATOM      4  C   UNL     1      -4.025  13.644  23.905  0.00  0.00    +0.000 A 
ATOM      5  C   UNL     1      -3.450  14.232  25.031  0.00  0.00    +0.000 A 
ATOM      6  C   UNL     1      -2.142  14.713  24.976  0.00  0.00    +0.000 A 
ATOM      7  C   UNL     1      -1.410  14.631  23.789  0.00  0.00    +0.000 A 
ATOM      8  C   UNL     1      -1.967  14.037  22.653  0.00  0.00    +0.000 A 
ATOM      9  N   UNL     1      -1.238  13.939  21.450  0.00  0.00    +0.000 N 
ATOM     10  C   UNL     1      -1.655  13.171  20.408  0.00  0.00    +0.000 A 
ATOM     11  C   UNL     1      -1.011  12.700  19.275  0.00  0.00    +0.000 A 
ATOM     12  C   UNL     1      -1.981  11.963  18.518  0.00  0.00    +0.000 A 
ATOM     13  C   UNL     1      -1.961  11.238  17.303  0.00  0.00    +0.000 A 
ATOM     14  C   UNL     1      -3.150  10.776  16.731  0.00  0.00    +0.000 A 
ATOM     15  C   UNL     1      -4.350  10.919  17.409  0.00  0.00    +0.000 A 
ATOM     16  C   UNL     1      -4.389  11.509  18.675  0.00  0.00    +0.000 A 
ATOM     17  C   UNL     1      -3.202  12.044  19.206  0.00  0.00    +0.000 A 
ATOM     18  N   UNL     1      -2.956  12.694  20.410  0.00  0.00    +0.000 N 
ATOM     19  H   UNL     1      -0.272  14.249  21.500  0.00  0.00    +0.000 HD
ENDROOT
BRANCH  11  20
ATOM     20  C   UNL     1       0.405  12.917  18.897  0.00  0.00    +0.000 A 
ATOM     21  C   UNL     1       1.409  11.956  18.742  0.00  0.00    +0.000 A 
ATOM     22  N   UNL     1       2.561  12.643  18.435  0.00  0.00    +0.000 N 
ATOM     23  C   UNL     1       2.334  13.996  18.339  0.00  0.00    +0.000 A 
ATOM     24  C   UNL     1       3.210  15.036  18.005  0.00  0.00    +0.000 A 
ATOM     25  C   UNL     1       2.699  16.336  17.961  0.00  0.00    +0.000 A 
ATOM     26  C   UNL     1       1.381  16.592  18.302  0.00  0.00    +0.000 A 
ATOM     27  C   UNL     1       0.539  15.548  18.701  0.00  0.00    +0.000 A 
ATOM     28  C   UNL     1       0.995  14.209  18.664  0.00  0.00    +0.000 A 
ATOM     29  H   UNL     1       3.464  12.215  18.277  0.00  0.00    +0.000 HD
BRANCH  21  30
ATOM     30  C   UNL     1       1.396  10.492  18.904  0.00  0.00    +0.000 A 
ATOM     31  C   UNL     1       1.028   9.921  20.131  0.00  0.00    +0.000 A 
ATOM     32  C   UNL     1       1.308   8.578  20.404  0.00  0.00    +0.000 A 
ATOM     33  C   UNL     1       1.895   7.792  19.424  0.00  0.00    +0.000 A 
ATOM     34  F   UNL     1       2.259   6.537  19.715  0.00  0.00    +0.000 F 
ATOM     35  C   UNL     1       2.175   8.310  18.165  0.00  0.00    +0.000 A 
ATOM     36  C   UNL     1       1.925   9.661  17.901  0.00  0.00    +0.000 A 
ENDBRANCH  21  30
ENDBRANCH  11  20
TORSDOF 2
ENDMDL
MODEL 2
REMARK VINA RESULT:      -8.9      0.917      1.147
REMARK  Name = 
REMARK  2 active torsions:
REMARK  status: ('A' for Active; 'I' for Inactive)
REMARK    1  A    between atoms: C_11  and  C_12
REMARK    2  A    between atoms: C_13  and  C_14
REMARK                            x       y       z     vdW  Elec       q    Type
REMARK                         _______ _______ _______ _____ _____    ______ ____
ROOT
ATOM      1  O   UNL     1      -5.807  11.811  20.080  0.00  0.00    +0.000 OA
ATOM      2  C   UNL     1      -4.736  12.321  20.412  0.00  0.00    +0.000 A 
ATOM      3  C   UNL     1      -4.587  12.994  21.720  0.00  0.00    +0.000 A 
ATOM      4  C   UNL     1      -5.611  13.006  22.670  0.00  0.00    +0.000 A 
ATOM      5  C   UNL     1      -5.386  13.608  23.908  0.00  0.00    +0.000 A 
ATOM      6  C   UNL     1      -4.149  14.192  24.185  0.00  0.00    +0.000 A 
ATOM      7  C   UNL     1      -3.140  14.198  23.219  0.00  0.00    +0.000 A 
ATOM      8  C   UNL     1      -3.345  13.592  21.976  0.00  0.00    +0.000 A 
ATOM      9  N   UNL     1      -2.334  13.583  20.994  0.00  0.00    +0.000 N 
ATOM     10  C   UNL     1      -2.412  12.811  19.877  0.00  0.00    +0.000 A 
ATOM     11  C   UNL     1      -1.469  12.422  18.939  0.00  0.00    +0.000 A 
ATOM     12  C   UNL     1      -2.156  11.631  17.959  0.00  0.00    +0.000 A 
ATOM     13  C   UNL     1      -1.774  10.941  16.783  0.00  0.00    +0.000 A 
ATOM     14  C   UNL     1      -2.741  10.402  15.929  0.00  0.00    +0.000 A 
ATOM     15  C   UNL     1      -4.079  10.434  16.285  0.00  0.00    +0.000 A 
ATOM     16  C   UNL     1      -4.481  10.985  17.504  0.00  0.00    +0.000 A 
ATOM     17  C   UNL     1      -3.512  11.598  18.318  0.00  0.00    +0.000 A 
ATOM     18  N   UNL     1      -3.628  12.234  19.549  0.00  0.00    +0.000 N 
ATOM     19  H   UNL     1      -1.439  13.966  21.286  0.00  0.00    +0.000 HD
ENDROOT
BRANCH  11  20
ATOM     20  C   UNL     1      -0.027  12.759  18.929  0.00  0.00    +0.000 A 
ATOM     21  C   UNL     1       1.060  11.885  19.039  0.00  0.00    +0.000 A 
ATOM     22  N   UNL     1       2.191  12.669  19.029  0.00  0.00    +0.000 N 
ATOM     23  C   UNL     1       1.885  14.000  18.869  0.00  0.00    +0.000 A 
ATOM     24  C   UNL     1       2.727  15.112  18.760  0.00  0.00    +0.000 A 
ATOM     25  C   UNL     1       2.139  16.366  18.579  0.00  0.00    +0.000 A 
ATOM     26  C   UNL     1       0.761  16.509  18.575  0.00  0.00    +0.000 A 
ATOM     27  C   UNL     1      -0.065  15.395  18.755  0.00  0.00    +0.000 A 
ATOM     28  C   UNL     1       0.494  14.098  18.844  0.00  0.00    +0.000 A 
ATOM     29  H   UNL     1       3.137  12.317  19.107  0.00  0.00    +0.000 HD
BRANCH  21  30
ATOM     30  C   UNL     1       1.127  10.423  19.203  0.00  0.00    +0.000 A 
ATOM     31  C   UNL     1       0.793   9.834  20.431  0.00  0.00    +0.000 A 
ATOM     32  C   UNL     1       1.147   8.509  20.705  0.00  0.00    +0.000 A 
ATOM     33  C   UNL     1       1.774   7.755  19.724  0.00  0.00    +0.000 A 
ATOM     34  F   UNL     1       2.206   6.521  20.015  0.00  0.00    +0.000 F 
ATOM     35  C   UNL     1       2.022   8.286  18.464  0.00  0.00    +0.000 A 
ATOM     36  C   UNL     1       1.698   9.621  18.200  0.00  0.00    +0.000 A 
ENDBRANCH  21  30
ENDBRANCH  11  20
TORSDOF 2
ENDMDL
MODEL 3
REMARK VINA RESULT:      -8.9      2.184      2.820
REMARK  Name = 
REMARK  2 active torsions:
REMARK  status: ('A' for Active; 'I' for Inactive)
REMARK    1  A    between atoms: C_11  and  C_12
REMARK    2  A    between atoms: C_13  and  C_14
REMARK                            x       y       z     vdW  Elec       q    Type
REMARK                         _______ _______ _______ _____ _____    ______ ____
ROOT
ATOM      1  O   UNL     1      -6.862  11.279  19.339  0.00  0.00    +0.000 OA
ATOM      2  C   UNL     1      -6.026  11.833  20.056  0.00  0.00    +0.000 A 
ATOM      3  C   UNL     1      -6.375  12.291  21.417  0.00  0.00    +0.000 A 
ATOM      4  C   UNL     1      -7.625  12.041  21.987  0.00  0.00    +0.000 A 
ATOM      5  C   UNL     1      -7.871  12.449  23.298  0.00  0.00    +0.000 A 
ATOM      6  C   UNL     1      -6.874  13.100  24.024  0.00  0.00    +0.000 A 
ATOM      7  C   UNL     1      -5.635  13.369  23.437  0.00  0.00    +0.000 A 
ATOM      8  C   UNL     1      -5.368  12.961  22.127  0.00  0.00    +0.000 A 
ATOM      9  N   UNL     1      -4.120  13.217  21.524  0.00  0.00    +0.000 N 
ATOM     10  C   UNL     1      -3.748  12.639  20.351  0.00  0.00    +0.000 A 
ATOM     11  C   UNL     1      -2.522  12.509  19.719  0.00  0.00    +0.000 A 
ATOM     12  C   UNL     1      -2.760  11.826  18.479  0.00  0.00    +0.000 A 
ATOM     13  C   UNL     1      -1.947  11.384  17.408  0.00  0.00    +0.000 A 
ATOM     14  C   UNL     1      -2.525  10.899  16.231  0.00  0.00    +0.000 A 
ATOM     15  C   UNL     1      -3.898  10.735  16.145  0.00  0.00    +0.000 A 
ATOM     16  C   UNL     1      -4.722  11.033  17.234  0.00  0.00    +0.000 A 
ATOM     17  C   UNL     1      -4.142  11.597  18.384  0.00  0.00    +0.000 A 
ATOM     18  N   UNL     1      -4.712  12.004  19.584  0.00  0.00    +0.000 N 
ATOM     19  H   UNL     1      -3.421  13.636  22.130  0.00  0.00    +0.000 HD
ENDROOT
BRANCH  11  20
ATOM     20  C   UNL     1      -1.208  12.987  20.209  0.00  0.00    +0.000 A 
ATOM     21  C   UNL     1      -0.091  12.221  20.559  0.00  0.00    +0.000 A 
ATOM     22  N   UNL     1       0.864  13.107  21.001  0.00  0.00    +0.000 N 
ATOM     23  C   UNL     1       0.432  14.409  20.906  0.00  0.00    +0.000 A 
ATOM     24  C   UNL     1       1.098  15.604  21.201  0.00  0.00    +0.000 A 
ATOM     25  C   UNL     1       0.417  16.805  20.987  0.00  0.00    +0.000 A 
ATOM     26  C   UNL     1      -0.900  16.807  20.559  0.00  0.00    +0.000 A 
ATOM     27  C   UNL     1      -1.572  15.600  20.336  0.00  0.00    +0.000 A 
ATOM     28  C   UNL     1      -0.885  14.369  20.449  0.00  0.00    +0.000 A 
ATOM     29  H   UNL     1       1.782  12.845  21.337  0.00  0.00    +0.000 HD
BRANCH  21  30
ATOM     30  C   UNL     1       0.133  10.766  20.566  0.00  0.00    +0.000 A 
ATOM     31  C   UNL     1      -0.312   9.987  21.646  0.00  0.00    +0.000 A 
ATOM     32  C   UNL     1       0.159   8.683  21.824  0.00  0.00    +0.000 A 
ATOM     33  C   UNL     1       1.022   8.136  20.888  0.00  0.00    +0.000 A 
ATOM     34  F   UNL     1       1.556   6.928  21.108  0.00  0.00    +0.000 F 
ATOM     35  C   UNL     1       1.396   8.852  19.757  0.00  0.00    +0.000 A 
ATOM     36  C   UNL     1       0.952  10.168  19.593  0.00  0.00    +0.000 A 
ENDBRANCH  21  30
ENDBRANCH  11  20
TORSDOF 2
ENDMDL
MODEL 4
REMARK VINA RESULT:      -8.4      2.642      6.437
REMARK  Name = 
REMARK  2 active torsions:
REMARK  status: ('A' for Active; 'I' for Inactive)
REMARK    1  A    between atoms: C_11  and  C_12
REMARK    2  A    between atoms: C_13  and  C_14
REMARK                            x       y       z     vdW  Elec       q    Type
REMARK                         _______ _______ _______ _____ _____    ______ ____
ROOT
ATOM      1  O   UNL     1       2.619  13.406  19.622  0.00  0.00    +0.000 OA
ATOM      2  C   UNL     1       1.471  13.837  19.508  0.00  0.00    +0.000 A 
ATOM      3  C   UNL     1       1.211  15.165  18.915  0.00  0.00    +0.000 A 
ATOM      4  C   UNL     1       2.234  15.951  18.377  0.00  0.00    +0.000 A 
ATOM      5  C   UNL     1       1.914  17.170  17.780  0.00  0.00    +0.000 A 
ATOM      6  C   UNL     1       0.586  17.593  17.726  0.00  0.00    +0.000 A 
ATOM      7  C   UNL     1      -0.427  16.813  18.289  0.00  0.00    +0.000 A 
ATOM      8  C   UNL     1      -0.126  15.585  18.885  0.00  0.00    +0.000 A 
ATOM      9  N   UNL     1      -1.138  14.782  19.450  0.00  0.00    +0.000 N 
ATOM     10  C   UNL     1      -0.918  13.494  19.825  0.00  0.00    +0.000 A 
ATOM     11  C   UNL     1      -1.775  12.449  20.130  0.00  0.00    +0.000 A 
ATOM     12  C   UNL     1      -0.956  11.328  20.493  0.00  0.00    +0.000 A 
ATOM     13  C   UNL     1      -1.206   9.991  20.884  0.00  0.00    +0.000 A 
ATOM     14  C   UNL     1      -0.168   9.183  21.358  0.00  0.00    +0.000 A 
ATOM     15  C   UNL     1       1.138   9.645  21.336  0.00  0.00    +0.000 A 
ATOM     16  C   UNL     1       1.440  10.911  20.828  0.00  0.00    +0.000 A 
ATOM     17  C   UNL     1       0.382  11.747  20.431  0.00  0.00    +0.000 A 
ATOM     18  N   UNL     1       0.387  13.039  19.918  0.00  0.00    +0.000 N 
ATOM     19  H   UNL     1      -2.087  15.120  19.318  0.00  0.00    +0.000 HD
ENDROOT
BRANCH  11  20
ATOM     20  C   UNL     1      -3.257  12.470  20.103  0.00  0.00    +0.000 A 
ATOM     21  C   UNL     1      -4.106  11.933  19.130  0.00  0.00    +0.000 A 
ATOM     22  N   UNL     1      -5.388  12.246  19.517  0.00  0.00    +0.000 N 
ATOM     23  C   UNL     1      -5.406  12.916  20.718  0.00  0.00    +0.000 A 
ATOM     24  C   UNL     1      -6.488  13.372  21.480  0.00  0.00    +0.000 A 
ATOM     25  C   UNL     1      -6.213  14.013  22.692  0.00  0.00    +0.000 A 
ATOM     26  C   UNL     1      -4.908  14.248  23.090  0.00  0.00    +0.000 A 
ATOM     27  C   UNL     1      -3.839  13.848  22.280  0.00  0.00    +0.000 A 
ATOM     28  C   UNL     1      -4.077  13.111  21.096  0.00  0.00    +0.000 A 
ATOM     29  H   UNL     1      -6.223  12.001  19.001  0.00  0.00    +0.000 HD
BRANCH  21  30
ATOM     30  C   UNL     1      -3.825  11.218  17.874  0.00  0.00    +0.000 A 
ATOM     31  C   UNL     1      -2.767  10.298  17.805  0.00  0.00    +0.000 A 
ATOM     32  C   UNL     1      -2.288   9.855  16.569  0.00  0.00    +0.000 A 
ATOM     33  C   UNL     1      -2.911  10.279  15.405  0.00  0.00    +0.000 A 
ATOM     34  F   UNL     1      -2.393   9.941  14.217  0.00  0.00    +0.000 F 
ATOM     35  C   UNL     1      -4.024  11.109  15.452  0.00  0.00    +0.000 A 
ATOM     36  C   UNL     1      -4.485  11.580  16.687  0.00  0.00    +0.000 A 
ENDBRANCH  21  30
ENDBRANCH  11  20
TORSDOF 2
ENDMDL
MODEL 5
REMARK VINA RESULT:      -8.2      7.023     10.252
REMARK  Name = 
REMARK  2 active torsions:
REMARK  status: ('A' for Active; 'I' for Inactive)
REMARK    1  A    between atoms: C_11  and  C_12
REMARK    2  A    between atoms: C_13  and  C_14
REMARK                            x       y       z     vdW  Elec       q    Type
REMARK                         _______ _______ _______ _____ _____    ______ ____
ROOT
ATOM      1  O   UNL     1       6.585  17.701  18.554  0.00  0.00    +0.000 OA
ATOM      2  C   UNL     1       6.229  16.706  19.187  0.00  0.00    +0.000 A 
ATOM      3  C   UNL     1       4.887  16.118  18.991  0.00  0.00    +0.000 A 
ATOM      4  C   UNL     1       3.999  16.600  18.025  0.00  0.00    +0.000 A 
ATOM      5  C   UNL     1       2.770  15.964  17.852  0.00  0.00    +0.000 A 
ATOM      6  C   UNL     1       2.438  14.861  18.639  0.00  0.00    +0.000 A 
ATOM      7  C   UNL     1       3.321  14.403  19.619  0.00  0.00    +0.000 A 
ATOM      8  C   UNL     1       4.561  15.023  19.802  0.00  0.00    +0.000 A 
ATOM      9  N   UNL     1       5.466  14.567  20.782  0.00  0.00    +0.000 N 
ATOM     10  C   UNL     1       6.757  14.991  20.832  0.00  0.00    +0.000 A 
ATOM     11  C   UNL     1       7.877  14.507  21.489  0.00  0.00    +0.000 A 
ATOM     12  C   UNL     1       8.958  15.400  21.187  0.00  0.00    +0.000 A 
ATOM     13  C   UNL     1      10.331  15.459  21.525  0.00  0.00    +0.000 A 
ATOM     14  C   UNL     1      11.093  16.588  21.209  0.00  0.00    +0.000 A 
ATOM     15  C   UNL     1      10.541  17.612  20.457  0.00  0.00    +0.000 A 
ATOM     16  C   UNL     1       9.227  17.526  19.988  0.00  0.00    +0.000 A 
ATOM     17  C   UNL     1       8.443  16.426  20.379  0.00  0.00    +0.000 A 
ATOM     18  N   UNL     1       7.125  16.099  20.086  0.00  0.00    +0.000 N 
ATOM     19  H   UNL     1       5.188  13.722  21.273  0.00  0.00    +0.000 HD
ENDROOT
BRANCH  11  20
ATOM     20  C   UNL     1       7.957  13.305  22.352  0.00  0.00    +0.000 A 
ATOM     21  C   UNL     1       8.698  12.139  22.134  0.00  0.00    +0.000 A 
ATOM     22  N   UNL     1       8.411  11.295  23.181  0.00  0.00    +0.000 N 
ATOM     23  C   UNL     1       7.559  11.881  24.087  0.00  0.00    +0.000 A 
ATOM     24  C   UNL     1       7.058  11.394  25.300  0.00  0.00    +0.000 A 
ATOM     25  C   UNL     1       6.214  12.224  26.042  0.00  0.00    +0.000 A 
ATOM     26  C   UNL     1       5.832  13.464  25.557  0.00  0.00    +0.000 A 
ATOM     27  C   UNL     1       6.287  13.905  24.309  0.00  0.00    +0.000 A 
ATOM     28  C   UNL     1       7.219  13.133  23.575  0.00  0.00    +0.000 A 
ATOM     29  H   UNL     1       8.791  10.363  23.292  0.00  0.00    +0.000 HD
BRANCH  21  30
ATOM     30  C   UNL     1       9.587  11.737  21.030  0.00  0.00    +0.000 A 
ATOM     31  C   UNL     1      10.912  12.197  20.986  0.00  0.00    +0.000 A 
ATOM     32  C   UNL     1      11.663  12.093  19.811  0.00  0.00    +0.000 A 
ATOM     33  C   UNL     1      11.111  11.470  18.703  0.00  0.00    +0.000 A 
ATOM     34  F   UNL     1      11.785  11.461  17.546  0.00  0.00    +0.000 F 
ATOM     35  C   UNL     1       9.837  10.916  18.755  0.00  0.00    +0.000 A 
ATOM     36  C   UNL     1       9.072  11.047  19.919  0.00  0.00    +0.000 A 
ENDBRANCH  21  30
ENDBRANCH  11  20
TORSDOF 2
ENDMDL
MODEL 6
REMARK VINA RESULT:      -8.2      1.467      1.945
REMARK  Name = 
REMARK  2 active torsions:
REMARK  status: ('A' for Active; 'I' for Inactive)
REMARK    1  A    between atoms: C_11  and  C_12
REMARK    2  A    between atoms: C_13  and  C_14
REMARK                            x       y       z     vdW  Elec       q    Type
REMARK                         _______ _______ _______ _____ _____    ______ ____
ROOT
ATOM      1  O   UNL     1      -6.031  11.763  20.003  0.00  0.00    +0.000 OA
ATOM      2  C   UNL     1      -5.071  12.441  20.371  0.00  0.00    +0.000 A 
ATOM      3  C   UNL     1      -5.172  13.330  21.548  0.00  0.00    +0.000 A 
ATOM      4  C   UNL     1      -6.318  13.377  22.346  0.00  0.00    +0.000 A 
ATOM      5  C   UNL     1      -6.328  14.194  23.477  0.00  0.00    +0.000 A 
ATOM      6  C   UNL     1      -5.203  14.953  23.799  0.00  0.00    +0.000 A 
ATOM      7  C   UNL     1      -4.071  14.920  22.980  0.00  0.00    +0.000 A 
ATOM      8  C   UNL     1      -4.040  14.101  21.848  0.00  0.00    +0.000 A 
ATOM      9  N   UNL     1      -2.903  14.049  21.017  0.00  0.00    +0.000 N 
ATOM     10  C   UNL     1      -2.750  13.104  20.052  0.00  0.00    +0.000 A 
ATOM     11  C   UNL     1      -1.651  12.679  19.322  0.00  0.00    +0.000 A 
ATOM     12  C   UNL     1      -2.115  11.666  18.419  0.00  0.00    +0.000 A 
ATOM     13  C   UNL     1      -1.506  10.844  17.440  0.00  0.00    +0.000 A 
ATOM     14  C   UNL     1      -2.287  10.065  16.580  0.00  0.00    +0.000 A 
ATOM     15  C   UNL     1      -3.660   9.999  16.756  0.00  0.00    +0.000 A 
ATOM     16  C   UNL     1      -4.281  10.690  17.799  0.00  0.00    +0.000 A 
ATOM     17  C   UNL     1      -3.499  11.535  18.607  0.00  0.00    +0.000 A 
ATOM     18  N   UNL     1      -3.848  12.344  19.682  0.00  0.00    +0.000 N 
ATOM     19  H   UNL     1      -2.099  14.576  21.346  0.00  0.00    +0.000 HD
ENDROOT
BRANCH  11  20
ATOM     20  C   UNL     1      -0.259  13.175  19.432  0.00  0.00    +0.000 A 
ATOM     21  C   UNL     1       0.873  12.468  19.851  0.00  0.00    +0.000 A 
ATOM     22  N   UNL     1       1.918  13.363  19.833  0.00  0.00    +0.000 N 
ATOM     23  C   UNL     1       1.521  14.598  19.378  0.00  0.00    +0.000 A 
ATOM     24  C   UNL     1       2.267  15.763  19.163  0.00  0.00    +0.000 A 
ATOM     25  C   UNL     1       1.601  16.886  18.665  0.00  0.00    +0.000 A 
ATOM     26  C   UNL     1       0.232  16.865  18.455  0.00  0.00    +0.000 A 
ATOM     27  C   UNL     1      -0.508  15.712  18.742  0.00  0.00    +0.000 A 
ATOM     28  C   UNL     1       0.146  14.527  19.155  0.00  0.00    +0.000 A 
ATOM     29  H   UNL     1       2.869  13.145  20.101  0.00  0.00    +0.000 HD
BRANCH  21  30
ATOM     30  C   UNL     1       1.046  11.078  20.305  0.00  0.00    +0.000 A 
ATOM     31  C   UNL     1       1.486  10.091  19.409  0.00  0.00    +0.000 A 
ATOM     32  C   UNL     1       1.355   8.735  19.724  0.00  0.00    +0.000 A 
ATOM     33  C   UNL     1       0.846   8.369  20.960  0.00  0.00    +0.000 A 
ATOM     34  F   UNL     1       0.623   7.075  21.225  0.00  0.00    +0.000 F 
ATOM     35  C   UNL     1       0.500   9.328  21.903  0.00  0.00    +0.000 A 
ATOM     36  C   UNL     1       0.600  10.686  21.579  0.00  0.00    +0.000 A 
ENDBRANCH  21  30
ENDBRANCH  11  20
TORSDOF 2
ENDMDL
MODEL 7
REMARK VINA RESULT:      -8.1      3.082      5.680
REMARK  Name = 
REMARK  2 active torsions:
REMARK  status: ('A' for Active; 'I' for Inactive)
REMARK    1  A    between atoms: C_11  and  C_12
REMARK    2  A    between atoms: C_13  and  C_14
REMARK                            x       y       z     vdW  Elec       q    Type
REMARK                         _______ _______ _______ _____ _____    ______ ____
ROOT
ATOM      1  O   UNL     1      -6.741  11.220  18.726  0.00  0.00    +0.000 OA
ATOM      2  C   UNL     1      -5.569  11.541  18.927  0.00  0.00    +0.000 A 
ATOM      3  C   UNL     1      -4.537  11.347  17.886  0.00  0.00    +0.000 A 
ATOM      4  C   UNL     1      -4.851  10.881  16.608  0.00  0.00    +0.000 A 
ATOM      5  C   UNL     1      -3.840  10.775  15.653  0.00  0.00    +0.000 A 
ATOM      6  C   UNL     1      -2.531  11.132  15.981  0.00  0.00    +0.000 A 
ATOM      7  C   UNL     1      -2.222  11.572  17.270  0.00  0.00    +0.000 A 
ATOM      8  C   UNL     1      -3.225  11.692  18.237  0.00  0.00    +0.000 A 
ATOM      9  N   UNL     1      -2.930  12.144  19.540  0.00  0.00    +0.000 N 
ATOM     10  C   UNL     1      -3.902  12.491  20.426  0.00  0.00    +0.000 A 
ATOM     11  C   UNL     1      -3.874  13.200  21.615  0.00  0.00    +0.000 A 
ATOM     12  C   UNL     1      -5.216  13.215  22.125  0.00  0.00    +0.000 A 
ATOM     13  C   UNL     1      -5.847  13.771  23.263  0.00  0.00    +0.000 A 
ATOM     14  C   UNL     1      -7.170  13.442  23.573  0.00  0.00    +0.000 A 
ATOM     15  C   UNL     1      -7.916  12.663  22.704  0.00  0.00    +0.000 A 
ATOM     16  C   UNL     1      -7.367  12.209  21.502  0.00  0.00    +0.000 A 
ATOM     17  C   UNL     1      -6.011  12.474  21.237  0.00  0.00    +0.000 A 
ATOM     18  N   UNL     1      -5.212  12.133  20.153  0.00  0.00    +0.000 N 
ATOM     19  H   UNL     1      -1.973  12.447  19.689  0.00  0.00    +0.000 HD
ENDROOT
BRANCH  11  20
ATOM     20  C   UNL     1      -2.693  13.822  22.259  0.00  0.00    +0.000 A 
ATOM     21  C   UNL     1      -1.455  13.232  22.532  0.00  0.00    +0.000 A 
ATOM     22  N   UNL     1      -0.704  14.186  23.179  0.00  0.00    +0.000 N 
ATOM     23  C   UNL     1      -1.384  15.376  23.291  0.00  0.00    +0.000 A 
ATOM     24  C   UNL     1      -0.976  16.601  23.832  0.00  0.00    +0.000 A 
ATOM     25  C   UNL     1      -1.877  17.669  23.795  0.00  0.00    +0.000 A 
ATOM     26  C   UNL     1      -3.158  17.498  23.298  0.00  0.00    +0.000 A 
ATOM     27  C   UNL     1      -3.572  16.247  22.826  0.00  0.00    +0.000 A 
ATOM     28  C   UNL     1      -2.657  15.171  22.759  0.00  0.00    +0.000 A 
ATOM     29  H   UNL     1       0.240  14.047  23.516  0.00  0.00    +0.000 HD
BRANCH  21  30
ATOM     30  C   UNL     1      -0.946  11.871  22.294  0.00  0.00    +0.000 A 
ATOM     31  C   UNL     1      -1.215  10.845  23.214  0.00  0.00    +0.000 A 
ATOM     32  C   UNL     1      -0.492   9.648  23.176  0.00  0.00    +0.000 A 
ATOM     33  C   UNL     1       0.451   9.453  22.180  0.00  0.00    +0.000 A 
ATOM     34  F   UNL     1       1.217   8.354  22.201  0.00  0.00    +0.000 F 
ATOM     35  C   UNL     1       0.662  10.413  21.197  0.00  0.00    +0.000 A 
ATOM     36  C   UNL     1      -0.036  11.624  21.251  0.00  0.00    +0.000 A 
ENDBRANCH  21  30
ENDBRANCH  11  20
TORSDOF 2
ENDMDL
MODEL 8
REMARK VINA RESULT:      -8.1      2.946      5.522
REMARK  Name = 
REMARK  2 active torsions:
REMARK  status: ('A' for Active; 'I' for Inactive)
REMARK    1  A    between atoms: C_11  and  C_12
REMARK    2  A    between atoms: C_13  and  C_14
REMARK                            x       y       z     vdW  Elec       q    Type
REMARK                         _______ _______ _______ _____ _____    ______ ____
ROOT
ATOM      1  O   UNL     1      -6.555  11.250  19.001  0.00  0.00    +0.000 OA
ATOM      2  C   UNL     1      -5.377  11.604  19.079  0.00  0.00    +0.000 A 
ATOM      3  C   UNL     1      -4.435  11.363  17.966  0.00  0.00    +0.000 A 
ATOM      4  C   UNL     1      -4.846  10.810  16.751  0.00  0.00    +0.000 A 
ATOM      5  C   UNL     1      -3.919  10.662  15.720  0.00  0.00    +0.000 A 
ATOM      6  C   UNL     1      -2.596  11.062  15.909  0.00  0.00    +0.000 A 
ATOM      7  C   UNL     1      -2.187  11.590  17.136  0.00  0.00    +0.000 A 
ATOM      8  C   UNL     1      -3.105  11.754  18.178  0.00  0.00    +0.000 A 
ATOM      9  N   UNL     1      -2.710  12.293  19.420  0.00  0.00    +0.000 N 
ATOM     10  C   UNL     1      -3.610  12.678  20.364  0.00  0.00    +0.000 A 
ATOM     11  C   UNL     1      -3.497  13.462  21.500  0.00  0.00    +0.000 A 
ATOM     12  C   UNL     1      -4.789  13.485  22.123  0.00  0.00    +0.000 A 
ATOM     13  C   UNL     1      -5.333  14.101  23.275  0.00  0.00    +0.000 A 
ATOM     14  C   UNL     1      -6.617  13.769  23.720  0.00  0.00    +0.000 A 
ATOM     15  C   UNL     1      -7.416  12.922  22.969  0.00  0.00    +0.000 A 
ATOM     16  C   UNL     1      -6.962  12.402  21.754  0.00  0.00    +0.000 A 
ATOM     17  C   UNL     1      -5.641  12.675  21.357  0.00  0.00    +0.000 A 
ATOM     18  N   UNL     1      -4.930  12.279  20.229  0.00  0.00    +0.000 N 
ATOM     19  H   UNL     1      -1.751  12.622  19.466  0.00  0.00    +0.000 HD
ENDROOT
BRANCH  11  20
ATOM     20  C   UNL     1      -2.280  14.145  21.998  0.00  0.00    +0.000 A 
ATOM     21  C   UNL     1      -1.041  13.574  22.310  0.00  0.00    +0.000 A 
ATOM     22  N   UNL     1      -0.249  14.596  22.777  0.00  0.00    +0.000 N 
ATOM     23  C   UNL     1      -0.903  15.805  22.735  0.00  0.00    +0.000 A 
ATOM     24  C   UNL     1      -0.451  17.087  23.070  0.00  0.00    +0.000 A 
ATOM     25  C   UNL     1      -1.334  18.158  22.907  0.00  0.00    +0.000 A 
ATOM     26  C   UNL     1      -2.637  17.945  22.489  0.00  0.00    +0.000 A 
ATOM     27  C   UNL     1      -3.092  16.648  22.227  0.00  0.00    +0.000 A 
ATOM     28  C   UNL     1      -2.199  15.552  22.288  0.00  0.00    +0.000 A 
ATOM     29  H   UNL     1       0.706  14.487  23.095  0.00  0.00    +0.000 HD
BRANCH  21  30
ATOM     30  C   UNL     1      -0.567  12.181  22.260  0.00  0.00    +0.000 A 
ATOM     31  C   UNL     1       0.265  11.754  21.213  0.00  0.00    +0.000 A 
ATOM     32  C   UNL     1       0.465  10.392  20.973  0.00  0.00    +0.000 A 
ATOM     33  C   UNL     1      -0.113   9.459  21.819  0.00  0.00    +0.000 A 
ATOM     34  F   UNL     1      -0.011   8.154  21.534  0.00  0.00    +0.000 F 
ATOM     35  C   UNL     1      -0.857   9.859  22.923  0.00  0.00    +0.000 A 
ATOM     36  C   UNL     1      -1.085  11.221  23.147  0.00  0.00    +0.000 A 
ENDBRANCH  21  30
ENDBRANCH  11  20
TORSDOF 2
ENDMDL
MODEL 9
REMARK VINA RESULT:      -8.0      1.387      4.167
REMARK  Name = 
REMARK  2 active torsions:
REMARK  status: ('A' for Active; 'I' for Inactive)
REMARK    1  A    between atoms: C_11  and  C_12
REMARK    2  A    between atoms: C_13  and  C_14
REMARK                            x       y       z     vdW  Elec       q    Type
REMARK                         _______ _______ _______ _____ _____    ______ ____
ROOT
ATOM      1  O   UNL     1      -5.695  13.182  22.492  0.00  0.00    +0.000 OA
ATOM      2  C   UNL     1      -4.921  12.986  21.553  0.00  0.00    +0.000 A 
ATOM      3  C   UNL     1      -5.403  12.430  20.272  0.00  0.00    +0.000 A 
ATOM      4  C   UNL     1      -6.758  12.187  20.031  0.00  0.00    +0.000 A 
ATOM      5  C   UNL     1      -7.154  11.716  18.779  0.00  0.00    +0.000 A 
ATOM      6  C   UNL     1      -6.201  11.492  17.785  0.00  0.00    +0.000 A 
ATOM      7  C   UNL     1      -4.846  11.713  18.043  0.00  0.00    +0.000 A 
ATOM      8  C   UNL     1      -4.432  12.193  19.289  0.00  0.00    +0.000 A 
ATOM      9  N   UNL     1      -3.069  12.429  19.563  0.00  0.00    +0.000 N 
ATOM     10  C   UNL     1      -2.656  13.106  20.667  0.00  0.00    +0.000 A 
ATOM     11  C   UNL     1      -1.448  13.692  21.009  0.00  0.00    +0.000 A 
ATOM     12  C   UNL     1      -1.605  14.233  22.329  0.00  0.00    +0.000 A 
ATOM     13  C   UNL     1      -0.772  14.951  23.221  0.00  0.00    +0.000 A 
ATOM     14  C   UNL     1      -1.175  15.181  24.540  0.00  0.00    +0.000 A 
ATOM     15  C   UNL     1      -2.445  14.811  24.954  0.00  0.00    +0.000 A 
ATOM     16  C   UNL     1      -3.344  14.223  24.062  0.00  0.00    +0.000 A 
ATOM     17  C   UNL     1      -2.903  13.921  22.761  0.00  0.00    +0.000 A 
ATOM     18  N   UNL     1      -3.563  13.328  21.691  0.00  0.00    +0.000 N 
ATOM     19  H   UNL     1      -2.440  12.307  18.775  0.00  0.00    +0.000 HD
ENDROOT
BRANCH  11  20
ATOM     20  C   UNL     1      -0.217  13.748  20.187  0.00  0.00    +0.000 A 
ATOM     21  C   UNL     1       0.631  12.691  19.837  0.00  0.00    +0.000 A 
ATOM     22  N   UNL     1       1.661  13.244  19.112  0.00  0.00    +0.000 N 
ATOM     23  C   UNL     1       1.490  14.598  18.938  0.00  0.00    +0.000 A 
ATOM     24  C   UNL     1       2.270  15.522  18.233  0.00  0.00    +0.000 A 
ATOM     25  C   UNL     1       1.844  16.852  18.203  0.00  0.00    +0.000 A 
ATOM     26  C   UNL     1       0.720  17.254  18.906  0.00  0.00    +0.000 A 
ATOM     27  C   UNL     1      -0.008  16.328  19.663  0.00  0.00    +0.000 A 
ATOM     28  C   UNL     1       0.338  14.956  19.638  0.00  0.00    +0.000 A 
ATOM     29  H   UNL     1       2.441  12.725  18.731  0.00  0.00    +0.000 HD
BRANCH  21  30
ATOM     30  C   UNL     1       0.589  11.256  20.161  0.00  0.00    +0.000 A 
ATOM     31  C   UNL     1       0.468  10.834  21.494  0.00  0.00    +0.000 A 
ATOM     32  C   UNL     1       0.742   9.510  21.850  0.00  0.00    +0.000 A 
ATOM     33  C   UNL     1       1.070   8.594  20.863  0.00  0.00    +0.000 A 
ATOM     34  F   UNL     1       1.433   7.352  21.209  0.00  0.00    +0.000 F 
ATOM     35  C   UNL     1       1.095   8.964  19.524  0.00  0.00    +0.000 A 
ATOM     36  C   UNL     1       0.854  10.296  19.169  0.00  0.00    +0.000 A 
ENDBRANCH  21  30
ENDBRANCH  11  20
TORSDOF 2
ENDMDL
