MODEL 1
REMARK VINA RESULT:      -9.9      0.000      0.000
REMARK  Name = 
REMARK  6 active torsions:
REMARK  status: ('A' for Active; 'I' for Inactive)
REMARK    1  A    between atoms: C_2  and  C_3
REMARK    2  A    between atoms: C_2  and  C_22
REMARK    3  A    between atoms: C_4  and  N_5
REMARK    4  A    between atoms: N_5  and  C_6
REMARK    5  A    between atoms: C_9  and  S_10
REMARK    6  A    between atoms: S_10  and  N_13
REMARK                            x       y       z     vdW  Elec       q    Type
REMARK                         _______ _______ _______ _____ _____    ______ ____
ROOT
ATOM      1  N   UNL     1       3.294   6.295  17.969  0.00  0.00    +0.000 N 
ATOM      2  H   UNL     1       4.039   6.550  17.318  0.00  0.00    +0.000 HD
ENDROOT
BRANCH   1   3
ATOM      3  C   UNL     1       2.563   7.351  18.536  0.00  0.00    +0.000 A 
ATOM      4  C   UNL     1       2.133   7.313  19.866  0.00  0.00    +0.000 A 
ATOM      5  C   UNL     1       1.425   8.373  20.428  0.00  0.00    +0.000 A 
ATOM      6  C   UNL     1       1.113   9.486  19.651  0.00  0.00    +0.000 A 
ATOM      7  C   UNL     1       1.445   9.513  18.293  0.00  0.00    +0.000 A 
ATOM      8  C   UNL     1       2.178   8.447  17.745  0.00  0.00    +0.000 A 
BRANCH   6   9
ATOM      9  S   UNL     1       0.271  10.844  20.438  0.00  0.00    +0.000 S 
ATOM     10  O   UNL     1      -0.854  10.307  21.178  0.00  0.00    +0.000 OA
ATOM     11  O   UNL     1       1.281  11.640  21.102  0.00  0.00    +0.000 OA
BRANCH   9  12
ATOM     12  N   UNL     1      -0.303  11.786  19.154  0.00  0.00    +0.000 N 
ATOM     13  C   UNL     1      -1.652  11.586  18.810  0.00  0.00    +0.000 A 
ATOM     14  C   UNL     1      -2.702  12.238  19.433  0.00  0.00    +0.000 A 
ATOM     15  C   UNL     1      -3.992  11.943  19.001  0.00  0.00    +0.000 A 
ATOM     16  C   UNL     1      -4.174  11.001  17.992  0.00  0.00    +0.000 A 
ATOM     17  C   UNL     1      -3.053  10.403  17.444  0.00  0.00    +0.000 A 
ATOM     18  N   UNL     1      -1.789  10.683  17.827  0.00  0.00    +0.000 NA
ATOM     19  H   UNL     1       0.266  11.607  18.328  0.00  0.00    +0.000 HD
ENDBRANCH   9  12
ENDBRANCH   6   9
ENDBRANCH   1   3
BRANCH   1  21
ATOM     20  C   UNL     1       4.223   4.069  18.357  0.00  0.00    +0.000 C 
ATOM     21  C   UNL     1       3.226   4.961  18.283  0.00  0.00    +0.000 C 
BRANCH  20  23
ATOM     22  O   UNL     1       6.421   4.566  19.102  0.00  0.00    +0.000 OA
ATOM     23  C   UNL     1       5.654   4.442  18.148  0.00  0.00    +0.000 C 
BRANCH  23  24
ATOM     24  C   UNL     1       6.109   4.681  16.741  0.00  0.00    +0.000 A 
ATOM     25  C   UNL     1       5.741   3.827  15.769  0.00  0.00    +0.000 A 
ATOM     26  C   UNL     1       6.172   4.050  14.399  0.00  0.00    +0.000 A 
ATOM     27  C   UNL     1       5.670   3.343  13.302  0.00  0.00    +0.000 A 
ATOM     28  C   UNL     1       6.220   3.543  12.031  0.00  0.00    +0.000 A 
ATOM     29  C   UNL     1       7.297   4.415  11.848  0.00  0.00    +0.000 A 
ATOM     30  C   UNL     1       7.799   5.136  12.927  0.00  0.00    +0.000 A 
ATOM     31  C   UNL     1       7.208   4.957  14.181  0.00  0.00    +0.000 A 
ATOM     32  O   UNL     1       7.654   5.801  15.215  0.00  0.00    +0.000 OA
ATOM     33  C   UNL     1       6.888   5.889  16.367  0.00  0.00    +0.000 A 
ATOM     34  O   UNL     1       6.903   6.897  17.064  0.00  0.00    +0.000 OA
ENDBRANCH  23  24
ENDBRANCH  20  23
ENDBRANCH   1  21
TORSDOF 6
ENDMDL
MODEL 2
REMARK VINA RESULT:      -9.5      2.138      2.396
REMARK  Name = 
REMARK  6 active torsions:
REMARK  status: ('A' for Active; 'I' for Inactive)
REMARK    1  A    between atoms: C_2  and  C_3
REMARK    2  A    between atoms: C_2  and  C_22
REMARK    3  A    between atoms: C_4  and  N_5
REMARK    4  A    between atoms: N_5  and  C_6
REMARK    5  A    between atoms: C_9  and  S_10
REMARK    6  A    between atoms: S_10  and  N_13
REMARK                            x       y       z     vdW  Elec       q    Type
REMARK                         _______ _______ _______ _____ _____    ______ ____
ROOT
ATOM      1  N   UNL     1       2.850   5.179  19.941  0.00  0.00    +0.000 N 
ATOM      2  H   UNL     1       3.179   4.914  20.871  0.00  0.00    +0.000 HD
ENDROOT
BRANCH   1   3
ATOM      3  C   UNL     1       2.359   6.486  19.794  0.00  0.00    +0.000 A 
ATOM      4  C   UNL     1       1.630   7.114  20.808  0.00  0.00    +0.000 A 
ATOM      5  C   UNL     1       1.163   8.418  20.664  0.00  0.00    +0.000 A 
ATOM      6  C   UNL     1       1.400   9.110  19.479  0.00  0.00    +0.000 A 
ATOM      7  C   UNL     1       2.042   8.478  18.410  0.00  0.00    +0.000 A 
ATOM      8  C   UNL     1       2.527   7.171  18.577  0.00  0.00    +0.000 A 
BRANCH   6   9
ATOM      9  S   UNL     1       0.845  10.800  19.374  0.00  0.00    +0.000 S 
ATOM     10  O   UNL     1       1.668  11.482  18.394  0.00  0.00    +0.000 OA
ATOM     11  O   UNL     1      -0.594  10.764  19.234  0.00  0.00    +0.000 OA
BRANCH   9  12
ATOM     12  N   UNL     1       1.155  11.443  20.909  0.00  0.00    +0.000 N 
ATOM     13  C   UNL     1       0.018  11.749  21.678  0.00  0.00    +0.000 A 
ATOM     14  C   UNL     1      -0.638  10.822  22.470  0.00  0.00    +0.000 A 
ATOM     15  C   UNL     1      -1.757  11.255  23.177  0.00  0.00    +0.000 A 
ATOM     16  C   UNL     1      -2.180  12.574  23.043  0.00  0.00    +0.000 A 
ATOM     17  C   UNL     1      -1.454  13.415  22.217  0.00  0.00    +0.000 A 
ATOM     18  N   UNL     1      -0.353  13.031  21.535  0.00  0.00    +0.000 NA
ATOM     19  H   UNL     1       1.710  12.292  20.809  0.00  0.00    +0.000 HD
ENDBRANCH   9  12
ENDBRANCH   6   9
ENDBRANCH   1   3
BRANCH   1  21
ATOM     20  C   UNL     1       3.778   3.783  18.164  0.00  0.00    +0.000 C 
ATOM     21  C   UNL     1       2.821   4.161  19.022  0.00  0.00    +0.000 C 
BRANCH  20  23
ATOM     22  O   UNL     1       5.698   4.754  19.164  0.00  0.00    +0.000 OA
ATOM     23  C   UNL     1       5.124   4.427  18.125  0.00  0.00    +0.000 C 
BRANCH  23  24
ATOM     24  C   UNL     1       5.734   4.679  16.781  0.00  0.00    +0.000 A 
ATOM     25  C   UNL     1       5.395   3.898  15.740  0.00  0.00    +0.000 A 
ATOM     26  C   UNL     1       5.976   4.134  14.429  0.00  0.00    +0.000 A 
ATOM     27  C   UNL     1       5.528   3.515  13.258  0.00  0.00    +0.000 A 
ATOM     28  C   UNL     1       6.215   3.715  12.055  0.00  0.00    +0.000 A 
ATOM     29  C   UNL     1       7.372   4.497  12.016  0.00  0.00    +0.000 A 
ATOM     30  C   UNL     1       7.824   5.131  13.170  0.00  0.00    +0.000 A 
ATOM     31  C   UNL     1       7.099   4.957  14.352  0.00  0.00    +0.000 A 
ATOM     32  O   UNL     1       7.508   5.719  15.461  0.00  0.00    +0.000 OA
ATOM     33  C   UNL     1       6.642   5.829  16.538  0.00  0.00    +0.000 A 
ATOM     34  O   UNL     1       6.671   6.804  17.280  0.00  0.00    +0.000 OA
ENDBRANCH  23  24
ENDBRANCH  20  23
ENDBRANCH   1  21
TORSDOF 6
ENDMDL
MODEL 3
REMARK VINA RESULT:      -9.5      1.943      2.418
REMARK  Name = 
REMARK  6 active torsions:
REMARK  status: ('A' for Active; 'I' for Inactive)
REMARK    1  A    between atoms: C_2  and  C_3
REMARK    2  A    between atoms: C_2  and  C_22
REMARK    3  A    between atoms: C_4  and  N_5
REMARK    4  A    between atoms: N_5  and  C_6
REMARK    5  A    between atoms: C_9  and  S_10
REMARK    6  A    between atoms: S_10  and  N_13
REMARK                            x       y       z     vdW  Elec       q    Type
REMARK                         _______ _______ _______ _____ _____    ______ ____
ROOT
ATOM      1  N   UNL     1       3.245   5.981  19.597  0.00  0.00    +0.000 N 
ATOM      2  H   UNL     1       4.022   5.934  20.259  0.00  0.00    +0.000 HD
ENDROOT
BRANCH   1   3
ATOM      3  C   UNL     1       2.509   7.175  19.572  0.00  0.00    +0.000 A 
ATOM      4  C   UNL     1       2.502   8.009  18.450  0.00  0.00    +0.000 A 
ATOM      5  C   UNL     1       1.753   9.184  18.424  0.00  0.00    +0.000 A 
ATOM      6  C   UNL     1       1.013   9.556  19.543  0.00  0.00    +0.000 A 
ATOM      7  C   UNL     1       1.074   8.795  20.714  0.00  0.00    +0.000 A 
ATOM      8  C   UNL     1       1.816   7.602  20.719  0.00  0.00    +0.000 A 
BRANCH   6   9
ATOM      9  S   UNL     1       0.015  11.028  19.433  0.00  0.00    +0.000 S 
ATOM     10  O   UNL     1       0.460  11.785  18.280  0.00  0.00    +0.000 OA
ATOM     11  O   UNL     1      -1.365  10.612  19.557  0.00  0.00    +0.000 OA
BRANCH   9  12
ATOM     12  N   UNL     1       0.377  11.891  20.843  0.00  0.00    +0.000 N 
ATOM     13  C   UNL     1      -0.724  12.204  21.661  0.00  0.00    +0.000 A 
ATOM     14  C   UNL     1      -1.232  11.340  22.616  0.00  0.00    +0.000 A 
ATOM     15  C   UNL     1      -2.331  11.771  23.355  0.00  0.00    +0.000 A 
ATOM     16  C   UNL     1      -2.881  13.023  23.093  0.00  0.00    +0.000 A 
ATOM     17  C   UNL     1      -2.296  13.803  22.109  0.00  0.00    +0.000 A 
ATOM     18  N   UNL     1      -1.219  13.421  21.391  0.00  0.00    +0.000 NA
ATOM     19  H   UNL     1       0.844  12.761  20.591  0.00  0.00    +0.000 HD
ENDBRANCH   9  12
ENDBRANCH   6   9
ENDBRANCH   1   3
BRANCH   1  21
ATOM     20  C   UNL     1       3.813   4.016  18.260  0.00  0.00    +0.000 C 
ATOM     21  C   UNL     1       2.971   4.810  18.937  0.00  0.00    +0.000 C 
BRANCH  20  23
ATOM     22  O   UNL     1       5.985   4.274  19.179  0.00  0.00    +0.000 OA
ATOM     23  C   UNL     1       5.278   4.287  18.172  0.00  0.00    +0.000 C 
BRANCH  23  24
ATOM     24  C   UNL     1       5.846   4.597  16.821  0.00  0.00    +0.000 A 
ATOM     25  C   UNL     1       5.592   3.775  15.788  0.00  0.00    +0.000 A 
ATOM     26  C   UNL     1       6.132   4.066  14.471  0.00  0.00    +0.000 A 
ATOM     27  C   UNL     1       5.750   3.391  13.308  0.00  0.00    +0.000 A 
ATOM     28  C   UNL     1       6.401   3.659  12.099  0.00  0.00    +0.000 A 
ATOM     29  C   UNL     1       7.461   4.568  12.045  0.00  0.00    +0.000 A 
ATOM     30  C   UNL     1       7.845   5.258  13.191  0.00  0.00    +0.000 A 
ATOM     31  C   UNL     1       7.153   5.010  14.380  0.00  0.00    +0.000 A 
ATOM     32  O   UNL     1       7.481   5.823  15.481  0.00  0.00    +0.000 OA
ATOM     33  C   UNL     1       6.615   5.841  16.564  0.00  0.00    +0.000 A 
ATOM     34  O   UNL     1       6.538   6.819  17.299  0.00  0.00    +0.000 OA
ENDBRANCH  23  24
ENDBRANCH  20  23
ENDBRANCH   1  21
TORSDOF 6
ENDMDL
MODEL 4
REMARK VINA RESULT:      -9.5      1.691      2.381
REMARK  Name = 
REMARK  6 active torsions:
REMARK  status: ('A' for Active; 'I' for Inactive)
REMARK    1  A    between atoms: C_2  and  C_3
REMARK    2  A    between atoms: C_2  and  C_22
REMARK    3  A    between atoms: C_4  and  N_5
REMARK    4  A    between atoms: N_5  and  C_6
REMARK    5  A    between atoms: C_9  and  S_10
REMARK    6  A    between atoms: S_10  and  N_13
REMARK                            x       y       z     vdW  Elec       q    Type
REMARK                         _______ _______ _______ _____ _____    ______ ____
ROOT
ATOM      1  N   UNL     1       3.439   5.737  19.794  0.00  0.00    +0.000 N 
ATOM      2  H   UNL     1       4.068   5.738  20.599  0.00  0.00    +0.000 HD
ENDROOT
BRANCH   1   3
ATOM      3  C   UNL     1       2.700   6.910  19.570  0.00  0.00    +0.000 A 
ATOM      4  C   UNL     1       1.895   7.471  20.567  0.00  0.00    +0.000 A 
ATOM      5  C   UNL     1       1.181   8.646  20.345  0.00  0.00    +0.000 A 
ATOM      6  C   UNL     1       1.243   9.268  19.101  0.00  0.00    +0.000 A 
ATOM      7  C   UNL     1       1.961   8.682  18.054  0.00  0.00    +0.000 A 
ATOM      8  C   UNL     1       2.694   7.509  18.298  0.00  0.00    +0.000 A 
BRANCH   6   9
ATOM      9  S   UNL     1       0.369  10.807  18.892  0.00  0.00    +0.000 S 
ATOM     10  O   UNL     1       1.344  11.841  18.609  0.00  0.00    +0.000 OA
ATOM     11  O   UNL     1      -0.725  10.551  17.980  0.00  0.00    +0.000 OA
BRANCH   9  12
ATOM     12  N   UNL     1      -0.336  11.101  20.403  0.00  0.00    +0.000 N 
ATOM     13  C   UNL     1      -0.466  12.455  20.758  0.00  0.00    +0.000 A 
ATOM     14  C   UNL     1      -1.541  13.242  20.379  0.00  0.00    +0.000 A 
ATOM     15  C   UNL     1      -1.543  14.572  20.793  0.00  0.00    +0.000 A 
ATOM     16  C   UNL     1      -0.472  15.057  21.537  0.00  0.00    +0.000 A 
ATOM     17  C   UNL     1       0.555  14.184  21.854  0.00  0.00    +0.000 A 
ATOM     18  N   UNL     1       0.576  12.885  21.485  0.00  0.00    +0.000 NA
ATOM     19  H   UNL     1       0.212  10.634  21.124  0.00  0.00    +0.000 HD
ENDBRANCH   9  12
ENDBRANCH   6   9
ENDBRANCH   1   3
BRANCH   1  21
ATOM     20  C   UNL     1       4.239   3.896  18.402  0.00  0.00    +0.000 C 
ATOM     21  C   UNL     1       3.324   4.534  19.145  0.00  0.00    +0.000 C 
BRANCH  20  23
ATOM     22  O   UNL     1       6.354   4.643  19.175  0.00  0.00    +0.000 OA
ATOM     23  C   UNL     1       5.625   4.417  18.210  0.00  0.00    +0.000 C 
BRANCH  23  24
ATOM     24  C   UNL     1       6.081   4.673  16.807  0.00  0.00    +0.000 A 
ATOM     25  C   UNL     1       5.738   3.817  15.828  0.00  0.00    +0.000 A 
ATOM     26  C   UNL     1       6.170   4.056  14.462  0.00  0.00    +0.000 A 
ATOM     27  C   UNL     1       5.690   3.344  13.359  0.00  0.00    +0.000 A 
ATOM     28  C   UNL     1       6.241   3.563  12.092  0.00  0.00    +0.000 A 
ATOM     29  C   UNL     1       7.298   4.460  11.919  0.00  0.00    +0.000 A 
ATOM     30  C   UNL     1       7.779   5.187  13.004  0.00  0.00    +0.000 A 
ATOM     31  C   UNL     1       7.186   4.988  14.253  0.00  0.00    +0.000 A 
ATOM     32  O   UNL     1       7.607   5.836  15.294  0.00  0.00    +0.000 OA
ATOM     33  C   UNL     1       6.834   5.901  16.442  0.00  0.00    +0.000 A 
ATOM     34  O   UNL     1       6.822   6.905  17.145  0.00  0.00    +0.000 OA
ENDBRANCH  23  24
ENDBRANCH  20  23
ENDBRANCH   1  21
TORSDOF 6
ENDMDL
MODEL 5
REMARK VINA RESULT:      -9.5      3.723      9.247
REMARK  Name = 
REMARK  6 active torsions:
REMARK  status: ('A' for Active; 'I' for Inactive)
REMARK    1  A    between atoms: C_2  and  C_3
REMARK    2  A    between atoms: C_2  and  C_22
REMARK    3  A    between atoms: C_4  and  N_5
REMARK    4  A    between atoms: N_5  and  C_6
REMARK    5  A    between atoms: C_9  and  S_10
REMARK    6  A    between atoms: S_10  and  N_13
REMARK                            x       y       z     vdW  Elec       q    Type
REMARK                         _______ _______ _______ _____ _____    ______ ____
ROOT
ATOM      1  N   UNL     1       2.334   2.527  19.480  0.00  0.00    +0.000 N 
ATOM      2  H   UNL     1       2.483   1.648  19.978  0.00  0.00    +0.000 HD
ENDROOT
BRANCH   1   3
ATOM      3  C   UNL     1       3.460   3.111  18.880  0.00  0.00    +0.000 A 
ATOM      4  C   UNL     1       3.560   3.255  17.493  0.00  0.00    +0.000 A 
ATOM      5  C   UNL     1       4.672   3.854  16.905  0.00  0.00    +0.000 A 
ATOM      6  C   UNL     1       5.722   4.297  17.704  0.00  0.00    +0.000 A 
ATOM      7  C   UNL     1       5.697   4.081  19.085  0.00  0.00    +0.000 A 
ATOM      8  C   UNL     1       4.560   3.496  19.667  0.00  0.00    +0.000 A 
BRANCH   6   9
ATOM      9  S   UNL     1       7.087   5.121  16.909  0.00  0.00    +0.000 S 
ATOM     10  O   UNL     1       7.571   6.153  17.805  0.00  0.00    +0.000 OA
ATOM     11  O   UNL     1       7.976   4.090  16.420  0.00  0.00    +0.000 OA
BRANCH   9  12
ATOM     12  N   UNL     1       6.404   5.844  15.539  0.00  0.00    +0.000 N 
ATOM     13  C   UNL     1       6.574   5.139  14.334  0.00  0.00    +0.000 A 
ATOM     14  C   UNL     1       5.725   4.127  13.919  0.00  0.00    +0.000 A 
ATOM     15  C   UNL     1       6.010   3.505  12.706  0.00  0.00    +0.000 A 
ATOM     16  C   UNL     1       7.131   3.901  11.982  0.00  0.00    +0.000 A 
ATOM     17  C   UNL     1       7.916   4.919  12.496  0.00  0.00    +0.000 A 
ATOM     18  N   UNL     1       7.654   5.556  13.657  0.00  0.00    +0.000 NA
ATOM     19  H   UNL     1       6.800   6.775  15.421  0.00  0.00    +0.000 HD
ENDBRANCH   9  12
ENDBRANCH   6   9
ENDBRANCH   1   3
BRANCH   1  21
ATOM     20  C   UNL     1       0.696   4.179  20.227  0.00  0.00    +0.000 C 
ATOM     21  C   UNL     1       1.074   3.057  19.598  0.00  0.00    +0.000 C 
BRANCH  20  23
ATOM     22  O   UNL     1       2.486   4.677  21.702  0.00  0.00    +0.000 OA
ATOM     23  C   UNL     1       1.670   5.100  20.884  0.00  0.00    +0.000 C 
BRANCH  23  24
ATOM     24  C   UNL     1       1.598   6.553  20.528  0.00  0.00    +0.000 A 
ATOM     25  C   UNL     1       0.942   7.404  21.337  0.00  0.00    +0.000 A 
ATOM     26  C   UNL     1       0.868   8.817  21.007  0.00  0.00    +0.000 A 
ATOM     27  C   UNL     1       0.397   9.797  21.885  0.00  0.00    +0.000 A 
ATOM     28  C   UNL     1       0.255  11.118  21.447  0.00  0.00    +0.000 A 
ATOM     29  C   UNL     1       0.543  11.467  20.125  0.00  0.00    +0.000 A 
ATOM     30  C   UNL     1       1.026  10.506  19.242  0.00  0.00    +0.000 A 
ATOM     31  C   UNL     1       1.204   9.201  19.709  0.00  0.00    +0.000 A 
ATOM     32  O   UNL     1       1.820   8.294  18.828  0.00  0.00    +0.000 OA
ATOM     33  C   UNL     1       2.307   7.104  19.346  0.00  0.00    +0.000 A 
ATOM     34  O   UNL     1       3.242   6.515  18.813  0.00  0.00    +0.000 OA
ENDBRANCH  23  24
ENDBRANCH  20  23
ENDBRANCH   1  21
TORSDOF 6
ENDMDL
MODEL 6
REMARK VINA RESULT:      -9.4      2.058      2.832
REMARK  Name = 
REMARK  6 active torsions:
REMARK  status: ('A' for Active; 'I' for Inactive)
REMARK    1  A    between atoms: C_2  and  C_3
REMARK    2  A    between atoms: C_2  and  C_22
REMARK    3  A    between atoms: C_4  and  N_5
REMARK    4  A    between atoms: N_5  and  C_6
REMARK    5  A    between atoms: C_9  and  S_10
REMARK    6  A    between atoms: S_10  and  N_13
REMARK                            x       y       z     vdW  Elec       q    Type
REMARK                         _______ _______ _______ _____ _____    ______ ____
ROOT
ATOM      1  N   UNL     1       2.930   6.681  18.558  0.00  0.00    +0.000 N 
ATOM      2  H   UNL     1       3.950   6.745  18.540  0.00  0.00    +0.000 HD
ENDROOT
BRANCH   1   3
ATOM      3  C   UNL     1       2.234   7.815  19.004  0.00  0.00    +0.000 A 
ATOM      4  C   UNL     1       2.048   8.931  18.183  0.00  0.00    +0.000 A 
ATOM      5  C   UNL     1       1.338  10.045  18.625  0.00  0.00    +0.000 A 
ATOM      6  C   UNL     1       0.822  10.068  19.918  0.00  0.00    +0.000 A 
ATOM      7  C   UNL     1       1.073   9.009  20.796  0.00  0.00    +0.000 A 
ATOM      8  C   UNL     1       1.771   7.883  20.330  0.00  0.00    +0.000 A 
BRANCH   6   9
ATOM      9  S   UNL     1      -0.139  11.485  20.409  0.00  0.00    +0.000 S 
ATOM     10  O   UNL     1       0.627  12.676  20.098  0.00  0.00    +0.000 OA
ATOM     11  O   UNL     1      -1.470  11.300  19.871  0.00  0.00    +0.000 OA
BRANCH   9  12
ATOM     12  N   UNL     1      -0.285  11.336  22.089  0.00  0.00    +0.000 N 
ATOM     13  C   UNL     1      -1.144  12.262  22.707  0.00  0.00    +0.000 A 
ATOM     14  C   UNL     1      -2.511  12.074  22.820  0.00  0.00    +0.000 A 
ATOM     15  C   UNL     1      -3.249  13.073  23.451  0.00  0.00    +0.000 A 
ATOM     16  C   UNL     1      -2.598  14.213  23.913  0.00  0.00    +0.000 A 
ATOM     17  C   UNL     1      -1.227  14.301  23.740  0.00  0.00    +0.000 A 
ATOM     18  N   UNL     1      -0.482  13.340  23.152  0.00  0.00    +0.000 NA
ATOM     19  H   UNL     1       0.637  11.425  22.513  0.00  0.00    +0.000 HD
ENDBRANCH   9  12
ENDBRANCH   6   9
ENDBRANCH   1   3
BRANCH   1  21
ATOM     20  C   UNL     1       3.083   4.308  17.995  0.00  0.00    +0.000 C 
ATOM     21  C   UNL     1       2.421   5.441  18.267  0.00  0.00    +0.000 C 
BRANCH  20  23
ATOM     22  O   UNL     1       5.166   3.899  19.056  0.00  0.00    +0.000 OA
ATOM     23  C   UNL     1       4.573   4.221  18.026  0.00  0.00    +0.000 C 
BRANCH  23  24
ATOM     24  C   UNL     1       5.314   4.562  16.770  0.00  0.00    +0.000 A 
ATOM     25  C   UNL     1       5.187   3.773  15.688  0.00  0.00    +0.000 A 
ATOM     26  C   UNL     1       5.897   4.095  14.462  0.00  0.00    +0.000 A 
ATOM     27  C   UNL     1       5.662   3.460  13.238  0.00  0.00    +0.000 A 
ATOM     28  C   UNL     1       6.467   3.754  12.133  0.00  0.00    +0.000 A 
ATOM     29  C   UNL     1       7.535   4.647  12.245  0.00  0.00    +0.000 A 
ATOM     30  C   UNL     1       7.775   5.298  13.451  0.00  0.00    +0.000 A 
ATOM     31  C   UNL     1       6.932   5.026  14.533  0.00  0.00    +0.000 A 
ATOM     32  O   UNL     1       7.123   5.801  15.691  0.00  0.00    +0.000 OA
ATOM     33  C   UNL     1       6.124   5.801  16.653  0.00  0.00    +0.000 A 
ATOM     34  O   UNL     1       5.963   6.758  17.401  0.00  0.00    +0.000 OA
ENDBRANCH  23  24
ENDBRANCH  20  23
ENDBRANCH   1  21
TORSDOF 6
ENDMDL
MODEL 7
REMARK VINA RESULT:      -9.4      1.483      2.015
REMARK  Name = 
REMARK  6 active torsions:
REMARK  status: ('A' for Active; 'I' for Inactive)
REMARK    1  A    between atoms: C_2  and  C_3
REMARK    2  A    between atoms: C_2  and  C_22
REMARK    3  A    between atoms: C_4  and  N_5
REMARK    4  A    between atoms: N_5  and  C_6
REMARK    5  A    between atoms: C_9  and  S_10
REMARK    6  A    between atoms: S_10  and  N_13
REMARK                            x       y       z     vdW  Elec       q    Type
REMARK                         _______ _______ _______ _____ _____    ______ ____
ROOT
ATOM      1  N   UNL     1       2.957   6.517  18.115  0.00  0.00    +0.000 N 
ATOM      2  H   UNL     1       3.747   6.800  17.533  0.00  0.00    +0.000 HD
ENDROOT
BRANCH   1   3
ATOM      3  C   UNL     1       2.304   7.533  18.831  0.00  0.00    +0.000 A 
ATOM      4  C   UNL     1       1.965   7.378  20.179  0.00  0.00    +0.000 A 
ATOM      5  C   UNL     1       1.336   8.398  20.889  0.00  0.00    +0.000 A 
ATOM      6  C   UNL     1       1.010   9.589  20.246  0.00  0.00    +0.000 A 
ATOM      7  C   UNL     1       1.249   9.739  18.876  0.00  0.00    +0.000 A 
ATOM      8  C   UNL     1       1.904   8.712  18.177  0.00  0.00    +0.000 A 
BRANCH   6   9
ATOM      9  S   UNL     1       0.273  10.888  21.217  0.00  0.00    +0.000 S 
ATOM     10  O   UNL     1      -0.329  10.285  22.390  0.00  0.00    +0.000 OA
ATOM     11  O   UNL     1       1.266  11.932  21.350  0.00  0.00    +0.000 OA
BRANCH   9  12
ATOM     12  N   UNL     1      -0.945  11.519  20.225  0.00  0.00    +0.000 N 
ATOM     13  C   UNL     1      -0.833  12.888  19.924  0.00  0.00    +0.000 A 
ATOM     14  C   UNL     1      -0.069  13.378  18.879  0.00  0.00    +0.000 A 
ATOM     15  C   UNL     1      -0.040  14.758  18.694  0.00  0.00    +0.000 A 
ATOM     16  C   UNL     1      -0.747  15.579  19.568  0.00  0.00    +0.000 A 
ATOM     17  C   UNL     1      -1.472  14.982  20.585  0.00  0.00    +0.000 A 
ATOM     18  N   UNL     1      -1.538  13.647  20.777  0.00  0.00    +0.000 NA
ATOM     19  H   UNL     1      -1.849  11.363  20.666  0.00  0.00    +0.000 HD
ENDBRANCH   9  12
ENDBRANCH   6   9
ENDBRANCH   1   3
BRANCH   1  21
ATOM     20  C   UNL     1       3.663   4.179  18.181  0.00  0.00    +0.000 C 
ATOM     21  C   UNL     1       2.753   5.163  18.201  0.00  0.00    +0.000 C 
BRANCH  20  23
ATOM     22  O   UNL     1       5.817   4.469  19.134  0.00  0.00    +0.000 OA
ATOM     23  C   UNL     1       5.130   4.442  18.112  0.00  0.00    +0.000 C 
BRANCH  23  24
ATOM     24  C   UNL     1       5.727   4.693  16.762  0.00  0.00    +0.000 A 
ATOM     25  C   UNL     1       5.404   3.890  15.732  0.00  0.00    +0.000 A 
ATOM     26  C   UNL     1       5.972   4.126  14.416  0.00  0.00    +0.000 A 
ATOM     27  C   UNL     1       5.535   3.481  13.254  0.00  0.00    +0.000 A 
ATOM     28  C   UNL     1       6.211   3.684  12.046  0.00  0.00    +0.000 A 
ATOM     29  C   UNL     1       7.347   4.495  11.991  0.00  0.00    +0.000 A 
ATOM     30  C   UNL     1       7.788   5.154  13.135  0.00  0.00    +0.000 A 
ATOM     31  C   UNL     1       7.073   4.976  14.323  0.00  0.00    +0.000 A 
ATOM     32  O   UNL     1       7.468   5.762  15.421  0.00  0.00    +0.000 OA
ATOM     33  C   UNL     1       6.604   5.862  16.500  0.00  0.00    +0.000 A 
ATOM     34  O   UNL     1       6.612   6.848  17.230  0.00  0.00    +0.000 OA
ENDBRANCH  23  24
ENDBRANCH  20  23
ENDBRANCH   1  21
TORSDOF 6
ENDMDL
MODEL 8
REMARK VINA RESULT:      -9.3      1.044      1.381
REMARK  Name = 
REMARK  6 active torsions:
REMARK  status: ('A' for Active; 'I' for Inactive)
REMARK    1  A    between atoms: C_2  and  C_3
REMARK    2  A    between atoms: C_2  and  C_22
REMARK    3  A    between atoms: C_4  and  N_5
REMARK    4  A    between atoms: N_5  and  C_6
REMARK    5  A    between atoms: C_9  and  S_10
REMARK    6  A    between atoms: S_10  and  N_13
REMARK                            x       y       z     vdW  Elec       q    Type
REMARK                         _______ _______ _______ _____ _____    ______ ____
ROOT
ATOM      1  N   UNL     1       2.913   5.198  20.136  0.00  0.00    +0.000 N 
ATOM      2  H   UNL     1       3.185   4.957  21.091  0.00  0.00    +0.000 HD
ENDROOT
BRANCH   1   3
ATOM      3  C   UNL     1       2.405   6.490  19.931  0.00  0.00    +0.000 A 
ATOM      4  C   UNL     1       2.612   7.177  18.731  0.00  0.00    +0.000 A 
ATOM      5  C   UNL     1       2.088   8.452  18.527  0.00  0.00    +0.000 A 
ATOM      6  C   UNL     1       1.364   9.073  19.541  0.00  0.00    +0.000 A 
ATOM      7  C   UNL     1       1.221   8.453  20.786  0.00  0.00    +0.000 A 
ATOM      8  C   UNL     1       1.736   7.159  20.972  0.00  0.00    +0.000 A 
BRANCH   6   9
ATOM      9  S   UNL     1       0.654  10.671  19.203  0.00  0.00    +0.000 S 
ATOM     10  O   UNL     1      -0.333  10.950  20.227  0.00  0.00    +0.000 OA
ATOM     11  O   UNL     1       1.755  11.581  18.969  0.00  0.00    +0.000 OA
BRANCH   9  12
ATOM     12  N   UNL     1      -0.125  10.481  17.712  0.00  0.00    +0.000 N 
ATOM     13  C   UNL     1      -1.526  10.606  17.740  0.00  0.00    +0.000 A 
ATOM     14  C   UNL     1      -2.183  11.822  17.648  0.00  0.00    +0.000 A 
ATOM     15  C   UNL     1      -3.574  11.807  17.695  0.00  0.00    +0.000 A 
ATOM     16  C   UNL     1      -4.239  10.594  17.854  0.00  0.00    +0.000 A 
ATOM     17  C   UNL     1      -3.481   9.438  17.943  0.00  0.00    +0.000 A 
ATOM     18  N   UNL     1      -2.132   9.418  17.880  0.00  0.00    +0.000 NA
ATOM     19  H   UNL     1       0.105   9.565  17.330  0.00  0.00    +0.000 HD
ENDBRANCH   9  12
ENDBRANCH   6   9
ENDBRANCH   1   3
BRANCH   1  21
ATOM     20  C   UNL     1       3.919   3.885  18.338  0.00  0.00    +0.000 C 
ATOM     21  C   UNL     1       2.965   4.162  19.237  0.00  0.00    +0.000 C 
BRANCH  20  23
ATOM     22  O   UNL     1       5.683   5.213  19.208  0.00  0.00    +0.000 OA
ATOM     23  C   UNL     1       5.171   4.690  18.219  0.00  0.00    +0.000 C 
BRANCH  23  24
ATOM     24  C   UNL     1       5.761   4.856  16.852  0.00  0.00    +0.000 A 
ATOM     25  C   UNL     1       5.380   4.034  15.858  0.00  0.00    +0.000 A 
ATOM     26  C   UNL     1       5.941   4.187  14.527  0.00  0.00    +0.000 A 
ATOM     27  C   UNL     1       5.453   3.524  13.397  0.00  0.00    +0.000 A 
ATOM     28  C   UNL     1       6.122   3.642  12.174  0.00  0.00    +0.000 A 
ATOM     29  C   UNL     1       7.300   4.386  12.074  0.00  0.00    +0.000 A 
ATOM     30  C   UNL     1       7.793   5.063  13.186  0.00  0.00    +0.000 A 
ATOM     31  C   UNL     1       7.086   4.970  14.388  0.00  0.00    +0.000 A 
ATOM     32  O   UNL     1       7.539   5.774  15.450  0.00  0.00    +0.000 OA
ATOM     33  C   UNL     1       6.698   5.964  16.535  0.00  0.00    +0.000 A 
ATOM     34  O   UNL     1       6.770   6.974  17.225  0.00  0.00    +0.000 OA
ENDBRANCH  23  24
ENDBRANCH  20  23
ENDBRANCH   1  21
TORSDOF 6
ENDMDL
MODEL 9
REMARK VINA RESULT:      -9.1      1.967      2.579
REMARK  Name = 
REMARK  6 active torsions:
REMARK  status: ('A' for Active; 'I' for Inactive)
REMARK    1  A    between atoms: C_2  and  C_3
REMARK    2  A    between atoms: C_2  and  C_22
REMARK    3  A    between atoms: C_4  and  N_5
REMARK    4  A    between atoms: N_5  and  C_6
REMARK    5  A    between atoms: C_9  and  S_10
REMARK    6  A    between atoms: S_10  and  N_13
REMARK                            x       y       z     vdW  Elec       q    Type
REMARK                         _______ _______ _______ _____ _____    ______ ____
ROOT
ATOM      1  N   UNL     1       3.140   6.233  17.837  0.00  0.00    +0.000 N 
ATOM      2  H   UNL     1       3.865   6.439  17.148  0.00  0.00    +0.000 HD
ENDROOT
BRANCH   1   3
ATOM      3  C   UNL     1       2.503   7.335  18.430  0.00  0.00    +0.000 A 
ATOM      4  C   UNL     1       2.269   8.516  17.720  0.00  0.00    +0.000 A 
ATOM      5  C   UNL     1       1.618   9.598  18.309  0.00  0.00    +0.000 A 
ATOM      6  C   UNL     1       1.212   9.521  19.639  0.00  0.00    +0.000 A 
ATOM      7  C   UNL     1       1.516   8.391  20.404  0.00  0.00    +0.000 A 
ATOM      8  C   UNL     1       2.153   7.299  19.792  0.00  0.00    +0.000 A 
BRANCH   6   9
ATOM      9  S   UNL     1       0.320  10.904  20.321  0.00  0.00    +0.000 S 
ATOM     10  O   UNL     1      -1.074  10.766  19.948  0.00  0.00    +0.000 OA
ATOM     11  O   UNL     1       0.706  11.011  21.711  0.00  0.00    +0.000 OA
BRANCH   9  12
ATOM     12  N   UNL     1       0.976  12.256  19.544  0.00  0.00    +0.000 N 
ATOM     13  C   UNL     1       0.712  13.495  20.154  0.00  0.00    +0.000 A 
ATOM     14  C   UNL     1       1.481  14.018  21.179  0.00  0.00    +0.000 A 
ATOM     15  C   UNL     1       1.106  15.253  21.701  0.00  0.00    +0.000 A 
ATOM     16  C   UNL     1      -0.025  15.891  21.198  0.00  0.00    +0.000 A 
ATOM     17  C   UNL     1      -0.726  15.273  20.177  0.00  0.00    +0.000 A 
ATOM     18  N   UNL     1      -0.375  14.087  19.636  0.00  0.00    +0.000 NA
ATOM     19  H   UNL     1       0.629  12.292  18.587  0.00  0.00    +0.000 HD
ENDBRANCH   9  12
ENDBRANCH   6   9
ENDBRANCH   1   3
BRANCH   1  21
ATOM     20  C   UNL     1       3.966   3.984  18.311  0.00  0.00    +0.000 C 
ATOM     21  C   UNL     1       3.007   4.908  18.164  0.00  0.00    +0.000 C 
BRANCH  20  23
ATOM     22  O   UNL     1       6.147   4.342  19.174  0.00  0.00    +0.000 OA
ATOM     23  C   UNL     1       5.418   4.304  18.183  0.00  0.00    +0.000 C 
BRANCH  23  24
ATOM     24  C   UNL     1       5.945   4.600  16.813  0.00  0.00    +0.000 A 
ATOM     25  C   UNL     1       5.621   3.794  15.787  0.00  0.00    +0.000 A 
ATOM     26  C   UNL     1       6.121   4.072  14.452  0.00  0.00    +0.000 A 
ATOM     27  C   UNL     1       5.669   3.419  13.301  0.00  0.00    +0.000 A 
ATOM     28  C   UNL     1       6.284   3.669  12.069  0.00  0.00    +0.000 A 
ATOM     29  C   UNL     1       7.375   4.537  11.978  0.00  0.00    +0.000 A 
ATOM     30  C   UNL     1       7.828   5.205  13.112  0.00  0.00    +0.000 A 
ATOM     31  C   UNL     1       7.173   4.978  14.325  0.00  0.00    +0.000 A 
ATOM     32  O   UNL     1       7.573   5.771  15.416  0.00  0.00    +0.000 OA
ATOM     33  C   UNL     1       6.751   5.816  16.531  0.00  0.00    +0.000 A 
ATOM     34  O   UNL     1       6.739   6.792  17.272  0.00  0.00    +0.000 OA
ENDBRANCH  23  24
ENDBRANCH  20  23
ENDBRANCH   1  21
TORSDOF 6
ENDMDL
