MODEL 1
REMARK VINA RESULT:      -7.9      0.000      0.000
REMARK  Name = 
REMARK  6 active torsions:
REMARK  status: ('A' for Active; 'I' for Inactive)
REMARK    1  A    between atoms: C_2  and  C_3
REMARK    2  A    between atoms: C_3  and  O_4
REMARK    3  A    between atoms: O_4  and  C_5
REMARK    4  A    between atoms: C_5  and  C_7
REMARK    5  A    between atoms: N_15  and  C_16
REMARK    6  A    between atoms: C_16  and  C_17
REMARK                            x       y       z     vdW  Elec       q    Type
REMARK                         _______ _______ _______ _____ _____    ______ ____
ROOT
ATOM      1  O   UNL     1       8.440   7.123  19.005  0.00  0.00    +0.000 OA
ATOM      2  C   UNL     1       8.106   7.960  18.169  0.00  0.00    +0.000 C 
ATOM      3  N   UNL     1       8.434   9.296  18.258  0.00  0.00    +0.000 N 
ATOM      4  H   UNL     1       8.264   9.902  17.467  0.00  0.00    +0.000 HD
ENDROOT
BRANCH   2   5
ATOM      5  C   UNL     1       7.243   7.603  16.952  0.00  0.00    +0.000 C 
BRANCH   5   6
ATOM      6  O   UNL     1       7.436   6.256  16.512  0.00  0.00    +0.000 OA
BRANCH   6   7
ATOM      7  C   UNL     1       6.303   5.672  16.053  0.00  0.00    +0.000 C 
ATOM      8  O   UNL     1       5.842   5.803  14.929  0.00  0.00    +0.000 OA
BRANCH   7   9
ATOM      9  C   UNL     1       5.642   4.865  17.099  0.00  0.00    +0.000 A 
ATOM     10  C   UNL     1       6.229   4.583  18.325  0.00  0.00    +0.000 A 
ATOM     11  N   UNL     1       5.623   3.861  19.303  0.00  0.00    +0.000 NA
ATOM     12  C   UNL     1       4.377   3.395  19.036  0.00  0.00    +0.000 A 
ATOM     13 CL   UNL     1       3.695   2.511  20.345  0.00  0.00    +0.000 Cl
ATOM     14  C   UNL     1       3.710   3.613  17.835  0.00  0.00    +0.000 A 
ATOM     15 CL   UNL     1       2.129   3.012  17.504  0.00  0.00    +0.000 Cl
ATOM     16  C   UNL     1       4.359   4.363  16.855  0.00  0.00    +0.000 A 
ENDBRANCH   7   9
ENDBRANCH   6   7
ENDBRANCH   5   6
ENDBRANCH   2   5
BRANCH   3  17
ATOM     17  C   UNL     1       9.260   9.813  19.327  0.00  0.00    +0.000 C 
BRANCH  17  18
ATOM     18  C   UNL     1       9.731  11.222  19.065  0.00  0.00    +0.000 A 
ATOM     19  C   UNL     1       9.572  12.215  20.060  0.00  0.00    +0.000 A 
ATOM     20  C   UNL     1       9.965  13.539  19.835  0.00  0.00    +0.000 A 
ATOM     21  C   UNL     1      10.517  13.842  18.611  0.00  0.00    +0.000 A 
ATOM     22  C   UNL     1      10.693  12.885  17.640  0.00  0.00    +0.000 A 
ATOM     23  C   UNL     1      10.319  11.570  17.836  0.00  0.00    +0.000 A 
ATOM     24  O   UNL     1      11.247  13.394  16.505  0.00  0.00    +0.000 OA
ATOM     25  C   UNL     1      11.358  14.789  16.860  0.00  0.00    +0.000 C 
ATOM     26  O   UNL     1      10.936  15.073  18.211  0.00  0.00    +0.000 OA
ENDBRANCH  17  18
ENDBRANCH   3  17
TORSDOF 6
ENDMDL
MODEL 2
REMARK VINA RESULT:      -7.8      5.618      7.115
REMARK  Name = 
REMARK  6 active torsions:
REMARK  status: ('A' for Active; 'I' for Inactive)
REMARK    1  A    between atoms: C_2  and  C_3
REMARK    2  A    between atoms: C_3  and  O_4
REMARK    3  A    between atoms: O_4  and  C_5
REMARK    4  A    between atoms: C_5  and  C_7
REMARK    5  A    between atoms: N_15  and  C_16
REMARK    6  A    between atoms: C_16  and  C_17
REMARK                            x       y       z     vdW  Elec       q    Type
REMARK                         _______ _______ _______ _____ _____    ______ ____
ROOT
ATOM      1  O   UNL     1       5.155   6.984  15.150  0.00  0.00    +0.000 OA
ATOM      2  C   UNL     1       5.326   6.635  16.315  0.00  0.00    +0.000 C 
ATOM      3  N   UNL     1       4.469   6.970  17.343  0.00  0.00    +0.000 N 
ATOM      4  H   UNL     1       4.580   6.527  18.245  0.00  0.00    +0.000 HD
ENDROOT
BRANCH   2   5
ATOM      5  C   UNL     1       6.547   5.818  16.755  0.00  0.00    +0.000 C 
BRANCH   5   6
ATOM      6  O   UNL     1       6.216   4.473  17.109  0.00  0.00    +0.000 OA
BRANCH   6   7
ATOM      7  C   UNL     1       5.829   4.336  18.400  0.00  0.00    +0.000 C 
ATOM      8  O   UNL     1       6.517   4.588  19.378  0.00  0.00    +0.000 OA
BRANCH   7   9
ATOM      9  C   UNL     1       4.457   3.799  18.505  0.00  0.00    +0.000 A 
ATOM     10  C   UNL     1       3.695   3.436  17.402  0.00  0.00    +0.000 A 
ATOM     11  N   UNL     1       2.443   2.920  17.487  0.00  0.00    +0.000 NA
ATOM     12  C   UNL     1       1.926   2.768  18.733  0.00  0.00    +0.000 A 
ATOM     13 CL   UNL     1       0.345   2.092  18.728  0.00  0.00    +0.000 Cl
ATOM     14  C   UNL     1       2.604   3.112  19.898  0.00  0.00    +0.000 A 
ATOM     15 CL   UNL     1       1.938   2.919  21.475  0.00  0.00    +0.000 Cl
ATOM     16  C   UNL     1       3.891   3.633  19.775  0.00  0.00    +0.000 A 
ENDBRANCH   7   9
ENDBRANCH   6   7
ENDBRANCH   5   6
ENDBRANCH   2   5
BRANCH   3  17
ATOM     17  C   UNL     1       3.253   7.719  17.114  0.00  0.00    +0.000 C 
BRANCH  17  18
ATOM     18  C   UNL     1       2.495   7.996  18.388  0.00  0.00    +0.000 A 
ATOM     19  C   UNL     1       2.513   7.050  19.440  0.00  0.00    +0.000 A 
ATOM     20  C   UNL     1       1.791   7.261  20.619  0.00  0.00    +0.000 A 
ATOM     21  C   UNL     1       1.066   8.427  20.725  0.00  0.00    +0.000 A 
ATOM     22  C   UNL     1       1.054   9.364  19.719  0.00  0.00    +0.000 A 
ATOM     23  C   UNL     1       1.760   9.184  18.546  0.00  0.00    +0.000 A 
ATOM     24  O   UNL     1       0.271  10.436  20.020  0.00  0.00    +0.000 OA
ATOM     25  C   UNL     1      -0.240  10.044  21.312  0.00  0.00    +0.000 C 
ATOM     26  O   UNL     1       0.295   8.790  21.784  0.00  0.00    +0.000 OA
ENDBRANCH  17  18
ENDBRANCH   3  17
TORSDOF 6
ENDMDL
MODEL 3
REMARK VINA RESULT:      -7.8      6.261      7.689
REMARK  Name = 
REMARK  6 active torsions:
REMARK  status: ('A' for Active; 'I' for Inactive)
REMARK    1  A    between atoms: C_2  and  C_3
REMARK    2  A    between atoms: C_3  and  O_4
REMARK    3  A    between atoms: O_4  and  C_5
REMARK    4  A    between atoms: C_5  and  C_7
REMARK    5  A    between atoms: N_15  and  C_16
REMARK    6  A    between atoms: C_16  and  C_17
REMARK                            x       y       z     vdW  Elec       q    Type
REMARK                         _______ _______ _______ _____ _____    ______ ____
ROOT
ATOM      1  O   UNL     1       0.814   3.430  18.981  0.00  0.00    +0.000 OA
ATOM      2  C   UNL     1       2.011   3.703  18.941  0.00  0.00    +0.000 C 
ATOM      3  N   UNL     1       2.606   4.638  19.762  0.00  0.00    +0.000 N 
ATOM      4  H   UNL     1       3.614   4.706  19.786  0.00  0.00    +0.000 HD
ENDROOT
BRANCH   2   5
ATOM      5  C   UNL     1       2.966   3.054  17.931  0.00  0.00    +0.000 C 
BRANCH   5   6
ATOM      6  O   UNL     1       3.672   4.013  17.140  0.00  0.00    +0.000 OA
BRANCH   6   7
ATOM      7  C   UNL     1       4.992   4.089  17.438  0.00  0.00    +0.000 C 
ATOM      8  O   UNL     1       5.480   3.923  18.546  0.00  0.00    +0.000 OA
BRANCH   7   9
ATOM      9  C   UNL     1       5.801   4.439  16.253  0.00  0.00    +0.000 A 
ATOM     10  C   UNL     1       6.824   5.377  16.282  0.00  0.00    +0.000 A 
ATOM     11  N   UNL     1       7.590   5.691  15.205  0.00  0.00    +0.000 NA
ATOM     12  C   UNL     1       7.311   5.043  14.046  0.00  0.00    +0.000 A 
ATOM     13 CL   UNL     1       8.348   5.501  12.753  0.00  0.00    +0.000 Cl
ATOM     14  C   UNL     1       6.300   4.097  13.912  0.00  0.00    +0.000 A 
ATOM     15 CL   UNL     1       5.951   3.282  12.435  0.00  0.00    +0.000 Cl
ATOM     16  C   UNL     1       5.537   3.794  15.040  0.00  0.00    +0.000 A 
ENDBRANCH   7   9
ENDBRANCH   6   7
ENDBRANCH   5   6
ENDBRANCH   2   5
BRANCH   3  17
ATOM     17  C   UNL     1       1.866   5.335  20.790  0.00  0.00    +0.000 C 
BRANCH  17  18
ATOM     18  C   UNL     1       1.669   6.796  20.471  0.00  0.00    +0.000 A 
ATOM     19  C   UNL     1       1.009   7.638  21.398  0.00  0.00    +0.000 A 
ATOM     20  C   UNL     1       0.779   8.989  21.116  0.00  0.00    +0.000 A 
ATOM     21  C   UNL     1       1.221   9.473  19.906  0.00  0.00    +0.000 A 
ATOM     22  C   UNL     1       1.879   8.672  19.003  0.00  0.00    +0.000 A 
ATOM     23  C   UNL     1       2.124   7.337  19.256  0.00  0.00    +0.000 A 
ATOM     24  O   UNL     1       2.223   9.344  17.870  0.00  0.00    +0.000 OA
ATOM     25  C   UNL     1       1.669  10.647  18.148  0.00  0.00    +0.000 C 
ATOM     26  O   UNL     1       1.070  10.748  19.456  0.00  0.00    +0.000 OA
ENDBRANCH  17  18
ENDBRANCH   3  17
TORSDOF 6
ENDMDL
MODEL 4
REMARK VINA RESULT:      -7.7      1.631      2.068
REMARK  Name = 
REMARK  6 active torsions:
REMARK  status: ('A' for Active; 'I' for Inactive)
REMARK    1  A    between atoms: C_2  and  C_3
REMARK    2  A    between atoms: C_3  and  O_4
REMARK    3  A    between atoms: O_4  and  C_5
REMARK    4  A    between atoms: C_5  and  C_7
REMARK    5  A    between atoms: N_15  and  C_16
REMARK    6  A    between atoms: C_16  and  C_17
REMARK                            x       y       z     vdW  Elec       q    Type
REMARK                         _______ _______ _______ _____ _____    ______ ____
ROOT
ATOM      1  O   UNL     1       8.506   7.319  18.887  0.00  0.00    +0.000 OA
ATOM      2  C   UNL     1       8.001   8.073  18.059  0.00  0.00    +0.000 C 
ATOM      3  N   UNL     1       8.235   9.432  18.025  0.00  0.00    +0.000 N 
ATOM      4  H   UNL     1       7.914   9.970  17.232  0.00  0.00    +0.000 HD
ENDROOT
BRANCH   2   5
ATOM      5  C   UNL     1       7.014   7.578  16.994  0.00  0.00    +0.000 C 
BRANCH   5   6
ATOM      6  O   UNL     1       6.294   6.413  17.405  0.00  0.00    +0.000 OA
BRANCH   6   7
ATOM      7  C   UNL     1       5.289   6.076  16.562  0.00  0.00    +0.000 C 
ATOM      8  O   UNL     1       5.224   6.375  15.379  0.00  0.00    +0.000 OA
BRANCH   7   9
ATOM      9  C   UNL     1       4.227   5.316  17.253  0.00  0.00    +0.000 A 
ATOM     10  C   UNL     1       3.828   4.044  16.866  0.00  0.00    +0.000 A 
ATOM     11  N   UNL     1       2.870   3.326  17.507  0.00  0.00    +0.000 NA
ATOM     12  C   UNL     1       2.279   3.914  18.578  0.00  0.00    +0.000 A 
ATOM     13 CL   UNL     1       1.095   2.914  19.325  0.00  0.00    +0.000 Cl
ATOM     14  C   UNL     1       2.599   5.187  19.036  0.00  0.00    +0.000 A 
ATOM     15 CL   UNL     1       1.841   5.926  20.395  0.00  0.00    +0.000 Cl
ATOM     16  C   UNL     1       3.593   5.894  18.359  0.00  0.00    +0.000 A 
ENDBRANCH   7   9
ENDBRANCH   6   7
ENDBRANCH   5   6
ENDBRANCH   2   5
BRANCH   3  17
ATOM     17  C   UNL     1       9.154  10.074  18.939  0.00  0.00    +0.000 C 
BRANCH  17  18
ATOM     18  C   UNL     1       9.658  11.397  18.418  0.00  0.00    +0.000 A 
ATOM     19  C   UNL     1      10.941  11.481  17.828  0.00  0.00    +0.000 A 
ATOM     20  C   UNL     1      11.452  12.700  17.369  0.00  0.00    +0.000 A 
ATOM     21  C   UNL     1      10.658  13.816  17.505  0.00  0.00    +0.000 A 
ATOM     22  C   UNL     1       9.402  13.748  18.060  0.00  0.00    +0.000 A 
ATOM     23  C   UNL     1       8.871  12.558  18.518  0.00  0.00    +0.000 A 
ATOM     24  O   UNL     1       8.791  14.963  18.108  0.00  0.00    +0.000 OA
ATOM     25  C   UNL     1       9.824  15.808  17.559  0.00  0.00    +0.000 C 
ATOM     26  O   UNL     1      10.995  15.081  17.134  0.00  0.00    +0.000 OA
ENDBRANCH  17  18
ENDBRANCH   3  17
TORSDOF 6
ENDMDL
MODEL 5
REMARK VINA RESULT:      -7.7      6.377      8.184
REMARK  Name = 
REMARK  6 active torsions:
REMARK  status: ('A' for Active; 'I' for Inactive)
REMARK    1  A    between atoms: C_2  and  C_3
REMARK    2  A    between atoms: C_3  and  O_4
REMARK    3  A    between atoms: O_4  and  C_5
REMARK    4  A    between atoms: C_5  and  C_7
REMARK    5  A    between atoms: N_15  and  C_16
REMARK    6  A    between atoms: C_16  and  C_17
REMARK                            x       y       z     vdW  Elec       q    Type
REMARK                         _______ _______ _______ _____ _____    ______ ____
ROOT
ATOM      1  O   UNL     1       1.802   5.492  18.516  0.00  0.00    +0.000 OA
ATOM      2  C   UNL     1       2.716   6.237  18.864  0.00  0.00    +0.000 C 
ATOM      3  N   UNL     1       2.642   7.070  19.961  0.00  0.00    +0.000 N 
ATOM      4  H   UNL     1       3.476   7.540  20.282  0.00  0.00    +0.000 HD
ENDROOT
BRANCH   2   5
ATOM      5  C   UNL     1       4.028   6.346  18.077  0.00  0.00    +0.000 C 
BRANCH   5   6
ATOM      6  O   UNL     1       4.978   5.342  18.442  0.00  0.00    +0.000 OA
BRANCH   6   7
ATOM      7  C   UNL     1       4.978   4.274  17.609  0.00  0.00    +0.000 C 
ATOM      8  O   UNL     1       4.450   3.195  17.838  0.00  0.00    +0.000 OA
BRANCH   7   9
ATOM      9  C   UNL     1       5.739   4.545  16.372  0.00  0.00    +0.000 A 
ATOM     10  C   UNL     1       6.870   5.349  16.336  0.00  0.00    +0.000 A 
ATOM     11  N   UNL     1       7.590   5.588  15.210  0.00  0.00    +0.000 NA
ATOM     12  C   UNL     1       7.152   5.000  14.068  0.00  0.00    +0.000 A 
ATOM     13 CL   UNL     1       8.145   5.352  12.707  0.00  0.00    +0.000 Cl
ATOM     14  C   UNL     1       6.026   4.188  13.998  0.00  0.00    +0.000 A 
ATOM     15 CL   UNL     1       5.475   3.450  12.542  0.00  0.00    +0.000 Cl
ATOM     16  C   UNL     1       5.312   3.959  15.174  0.00  0.00    +0.000 A 
ENDBRANCH   7   9
ENDBRANCH   6   7
ENDBRANCH   5   6
ENDBRANCH   2   5
BRANCH   3  17
ATOM     17  C   UNL     1       1.489   7.086  20.834  0.00  0.00    +0.000 C 
BRANCH  17  18
ATOM     18  C   UNL     1       0.882   8.461  20.965  0.00  0.00    +0.000 A 
ATOM     19  C   UNL     1       0.922   9.357  19.871  0.00  0.00    +0.000 A 
ATOM     20  C   UNL     1       0.400  10.651  19.973  0.00  0.00    +0.000 A 
ATOM     21  C   UNL     1      -0.158  11.022  21.175  0.00  0.00    +0.000 A 
ATOM     22  C   UNL     1      -0.220  10.157  22.241  0.00  0.00    +0.000 A 
ATOM     23  C   UNL     1       0.283   8.873  22.169  0.00  0.00    +0.000 A 
ATOM     24  O   UNL     1      -0.803  10.723  23.334  0.00  0.00    +0.000 OA
ATOM     25  C   UNL     1      -1.061  12.056  22.843  0.00  0.00    +0.000 C 
ATOM     26  O   UNL     1      -0.694  12.240  21.460  0.00  0.00    +0.000 OA
ENDBRANCH  17  18
ENDBRANCH   3  17
TORSDOF 6
ENDMDL
MODEL 6
REMARK VINA RESULT:      -7.7      1.323      1.423
REMARK  Name = 
REMARK  6 active torsions:
REMARK  status: ('A' for Active; 'I' for Inactive)
REMARK    1  A    between atoms: C_2  and  C_3
REMARK    2  A    between atoms: C_3  and  O_4
REMARK    3  A    between atoms: O_4  and  C_5
REMARK    4  A    between atoms: C_5  and  C_7
REMARK    5  A    between atoms: N_15  and  C_16
REMARK    6  A    between atoms: C_16  and  C_17
REMARK                            x       y       z     vdW  Elec       q    Type
REMARK                         _______ _______ _______ _____ _____    ______ ____
ROOT
ATOM      1  O   UNL     1       8.248   7.008  18.956  0.00  0.00    +0.000 OA
ATOM      2  C   UNL     1       8.035   7.880  18.118  0.00  0.00    +0.000 C 
ATOM      3  N   UNL     1       8.427   9.194  18.271  0.00  0.00    +0.000 N 
ATOM      4  H   UNL     1       8.360   9.825  17.485  0.00  0.00    +0.000 HD
ENDROOT
BRANCH   2   5
ATOM      5  C   UNL     1       7.266   7.600  16.821  0.00  0.00    +0.000 C 
BRANCH   5   6
ATOM      6  O   UNL     1       6.599   6.336  16.835  0.00  0.00    +0.000 OA
BRANCH   6   7
ATOM      7  C   UNL     1       5.369   6.370  16.267  0.00  0.00    +0.000 C 
ATOM      8  O   UNL     1       5.104   6.854  15.176  0.00  0.00    +0.000 OA
BRANCH   7   9
ATOM      9  C   UNL     1       4.343   5.776  17.148  0.00  0.00    +0.000 A 
ATOM     10  C   UNL     1       3.649   6.504  18.105  0.00  0.00    +0.000 A 
ATOM     11  N   UNL     1       2.688   5.975  18.904  0.00  0.00    +0.000 NA
ATOM     12  C   UNL     1       2.416   4.654  18.743  0.00  0.00    +0.000 A 
ATOM     13 CL   UNL     1       1.174   4.091  19.790  0.00  0.00    +0.000 Cl
ATOM     14  C   UNL     1       3.063   3.838  17.821  0.00  0.00    +0.000 A 
ATOM     15 CL   UNL     1       2.714   2.163  17.627  0.00  0.00    +0.000 Cl
ATOM     16  C   UNL     1       4.041   4.416  17.012  0.00  0.00    +0.000 A 
ENDBRANCH   7   9
ENDBRANCH   6   7
ENDBRANCH   5   6
ENDBRANCH   2   5
BRANCH   3  17
ATOM     17  C   UNL     1       9.182   9.639  19.422  0.00  0.00    +0.000 C 
BRANCH  17  18
ATOM     18  C   UNL     1       9.887  10.950  19.179  0.00  0.00    +0.000 A 
ATOM     19  C   UNL     1      10.291  11.748  20.276  0.00  0.00    +0.000 A 
ATOM     20  C   UNL     1      10.914  12.985  20.083  0.00  0.00    +0.000 A 
ATOM     21  C   UNL     1      11.127  13.399  18.788  0.00  0.00    +0.000 A 
ATOM     22  C   UNL     1      10.757  12.627  17.712  0.00  0.00    +0.000 A 
ATOM     23  C   UNL     1      10.143  11.400  17.871  0.00  0.00    +0.000 A 
ATOM     24  O   UNL     1      11.049  13.222  16.523  0.00  0.00    +0.000 OA
ATOM     25  C   UNL     1      11.607  14.474  16.976  0.00  0.00    +0.000 C 
ATOM     26  O   UNL     1      11.700  14.575  18.412  0.00  0.00    +0.000 OA
ENDBRANCH  17  18
ENDBRANCH   3  17
TORSDOF 6
ENDMDL
MODEL 7
REMARK VINA RESULT:      -7.6      1.439      2.117
REMARK  Name = 
REMARK  6 active torsions:
REMARK  status: ('A' for Active; 'I' for Inactive)
REMARK    1  A    between atoms: C_2  and  C_3
REMARK    2  A    between atoms: C_3  and  O_4
REMARK    3  A    between atoms: O_4  and  C_5
REMARK    4  A    between atoms: C_5  and  C_7
REMARK    5  A    between atoms: N_15  and  C_16
REMARK    6  A    between atoms: C_16  and  C_17
REMARK                            x       y       z     vdW  Elec       q    Type
REMARK                         _______ _______ _______ _____ _____    ______ ____
ROOT
ATOM      1  O   UNL     1       8.476   7.092  18.991  0.00  0.00    +0.000 OA
ATOM      2  C   UNL     1       7.999   7.829  18.132  0.00  0.00    +0.000 C 
ATOM      3  N   UNL     1       8.282   9.176  18.043  0.00  0.00    +0.000 N 
ATOM      4  H   UNL     1       7.981   9.693  17.228  0.00  0.00    +0.000 HD
ENDROOT
BRANCH   2   5
ATOM      5  C   UNL     1       6.994   7.327  17.088  0.00  0.00    +0.000 C 
BRANCH   5   6
ATOM      6  O   UNL     1       7.463   6.181  16.374  0.00  0.00    +0.000 OA
BRANCH   6   7
ATOM      7  C   UNL     1       7.241   5.014  17.025  0.00  0.00    +0.000 C 
ATOM      8  O   UNL     1       8.104   4.225  17.382  0.00  0.00    +0.000 OA
BRANCH   7   9
ATOM      9  C   UNL     1       5.799   4.769  17.234  0.00  0.00    +0.000 A 
ATOM     10  C   UNL     1       4.964   4.264  16.247  0.00  0.00    +0.000 A 
ATOM     11  N   UNL     1       3.643   4.013  16.433  0.00  0.00    +0.000 NA
ATOM     12  C   UNL     1       3.134   4.289  17.661  0.00  0.00    +0.000 A 
ATOM     13 CL   UNL     1       1.460   3.919  17.794  0.00  0.00    +0.000 Cl
ATOM     14  C   UNL     1       3.885   4.808  18.710  0.00  0.00    +0.000 A 
ATOM     15 CL   UNL     1       3.230   5.159  20.264  0.00  0.00    +0.000 Cl
ATOM     16  C   UNL     1       5.241   5.047  18.487  0.00  0.00    +0.000 A 
ENDBRANCH   7   9
ENDBRANCH   6   7
ENDBRANCH   5   6
ENDBRANCH   2   5
BRANCH   3  17
ATOM     17  C   UNL     1       9.225   9.821  18.930  0.00  0.00    +0.000 C 
BRANCH  17  18
ATOM     18  C   UNL     1       9.656  11.178  18.430  0.00  0.00    +0.000 A 
ATOM     19  C   UNL     1      10.958  11.355  17.906  0.00  0.00    +0.000 A 
ATOM     20  C   UNL     1      11.400  12.608  17.467  0.00  0.00    +0.000 A 
ATOM     21  C   UNL     1      10.521  13.663  17.559  0.00  0.00    +0.000 A 
ATOM     22  C   UNL     1       9.246  13.503  18.049  0.00  0.00    +0.000 A 
ATOM     23  C   UNL     1       8.782  12.278  18.485  0.00  0.00    +0.000 A 
ATOM     24  O   UNL     1       8.545  14.670  18.060  0.00  0.00    +0.000 OA
ATOM     25  C   UNL     1       9.540  15.589  17.561  0.00  0.00    +0.000 C 
ATOM     26  O   UNL     1      10.782  14.949  17.199  0.00  0.00    +0.000 OA
ENDBRANCH  17  18
ENDBRANCH   3  17
TORSDOF 6
ENDMDL
MODEL 8
REMARK VINA RESULT:      -7.6      4.523      7.403
REMARK  Name = 
REMARK  6 active torsions:
REMARK  status: ('A' for Active; 'I' for Inactive)
REMARK    1  A    between atoms: C_2  and  C_3
REMARK    2  A    between atoms: C_3  and  O_4
REMARK    3  A    between atoms: O_4  and  C_5
REMARK    4  A    between atoms: C_5  and  C_7
REMARK    5  A    between atoms: N_15  and  C_16
REMARK    6  A    between atoms: C_16  and  C_17
REMARK                            x       y       z     vdW  Elec       q    Type
REMARK                         _______ _______ _______ _____ _____    ______ ____
ROOT
ATOM      1  O   UNL     1       1.065   3.941  17.252  0.00  0.00    +0.000 OA
ATOM      2  C   UNL     1       1.719   3.567  18.222  0.00  0.00    +0.000 C 
ATOM      3  N   UNL     1       3.098   3.522  18.237  0.00  0.00    +0.000 N 
ATOM      4  H   UNL     1       3.578   3.353  19.110  0.00  0.00    +0.000 HD
ENDROOT
BRANCH   2   5
ATOM      5  C   UNL     1       1.058   3.066  19.512  0.00  0.00    +0.000 C 
BRANCH   5   6
ATOM      6  O   UNL     1       0.725   4.126  20.412  0.00  0.00    +0.000 OA
BRANCH   6   7
ATOM      7  C   UNL     1       1.796   4.859  20.799  0.00  0.00    +0.000 C 
ATOM      8  O   UNL     1       2.793   4.421  21.354  0.00  0.00    +0.000 OA
BRANCH   7   9
ATOM      9  C   UNL     1       1.611   6.295  20.505  0.00  0.00    +0.000 A 
ATOM     10  C   UNL     1       0.921   7.160  21.344  0.00  0.00    +0.000 A 
ATOM     11  N   UNL     1       0.764   8.486  21.096  0.00  0.00    +0.000 NA
ATOM     12  C   UNL     1       1.317   8.964  19.952  0.00  0.00    +0.000 A 
ATOM     13 CL   UNL     1       1.075  10.654  19.744  0.00  0.00    +0.000 Cl
ATOM     14  C   UNL     1       2.016   8.177  19.043  0.00  0.00    +0.000 A 
ATOM     15 CL   UNL     1       2.710   8.793  17.591  0.00  0.00    +0.000 Cl
ATOM     16  C   UNL     1       2.164   6.821  19.331  0.00  0.00    +0.000 A 
ENDBRANCH   7   9
ENDBRANCH   6   7
ENDBRANCH   5   6
ENDBRANCH   2   5
BRANCH   3  17
ATOM     17  C   UNL     1       3.892   3.976  17.117  0.00  0.00    +0.000 C 
BRANCH  17  18
ATOM     18  C   UNL     1       5.075   4.808  17.546  0.00  0.00    +0.000 A 
ATOM     19  C   UNL     1       5.833   4.426  18.678  0.00  0.00    +0.000 A 
ATOM     20  C   UNL     1       6.913   5.196  19.122  0.00  0.00    +0.000 A 
ATOM     21  C   UNL     1       7.217   6.337  18.415  0.00  0.00    +0.000 A 
ATOM     22  C   UNL     1       6.501   6.713  17.303  0.00  0.00    +0.000 A 
ATOM     23  C   UNL     1       5.433   5.970  16.839  0.00  0.00    +0.000 A 
ATOM     24  O   UNL     1       6.960   7.873  16.759  0.00  0.00    +0.000 OA
ATOM     25  C   UNL     1       8.019   8.205  17.682  0.00  0.00    +0.000 C 
ATOM     26  O   UNL     1       8.216   7.213  18.711  0.00  0.00    +0.000 OA
ENDBRANCH  17  18
ENDBRANCH   3  17
TORSDOF 6
ENDMDL
MODEL 9
REMARK VINA RESULT:      -7.6      6.305      7.958
REMARK  Name = 
REMARK  6 active torsions:
REMARK  status: ('A' for Active; 'I' for Inactive)
REMARK    1  A    between atoms: C_2  and  C_3
REMARK    2  A    between atoms: C_3  and  O_4
REMARK    3  A    between atoms: O_4  and  C_5
REMARK    4  A    between atoms: C_5  and  C_7
REMARK    5  A    between atoms: N_15  and  C_16
REMARK    6  A    between atoms: C_16  and  C_17
REMARK                            x       y       z     vdW  Elec       q    Type
REMARK                         _______ _______ _______ _____ _____    ______ ____
ROOT
ATOM      1  O   UNL     1       1.747   4.995  19.701  0.00  0.00    +0.000 OA
ATOM      2  C   UNL     1       2.478   5.980  19.773  0.00  0.00    +0.000 C 
ATOM      3  N   UNL     1       2.124   7.145  20.421  0.00  0.00    +0.000 N 
ATOM      4  H   UNL     1       2.823   7.858  20.577  0.00  0.00    +0.000 HD
ENDROOT
BRANCH   2   5
ATOM      5  C   UNL     1       3.858   6.027  19.104  0.00  0.00    +0.000 C 
BRANCH   5   6
ATOM      6  O   UNL     1       3.962   5.140  17.987  0.00  0.00    +0.000 OA
BRANCH   6   7
ATOM      7  C   UNL     1       5.152   4.494  17.923  0.00  0.00    +0.000 C 
ATOM      8  O   UNL     1       5.655   3.841  18.825  0.00  0.00    +0.000 OA
BRANCH   7   9
ATOM      9  C   UNL     1       5.815   4.699  16.619  0.00  0.00    +0.000 A 
ATOM     10  C   UNL     1       6.977   5.443  16.466  0.00  0.00    +0.000 A 
ATOM     11  N   UNL     1       7.609   5.620  15.277  0.00  0.00    +0.000 NA
ATOM     12  C   UNL     1       7.045   5.031  14.192  0.00  0.00    +0.000 A 
ATOM     13 CL   UNL     1       7.933   5.301  12.743  0.00  0.00    +0.000 Cl
ATOM     14  C   UNL     1       5.878   4.276  14.239  0.00  0.00    +0.000 A 
ATOM     15 CL   UNL     1       5.168   3.536  12.855  0.00  0.00    +0.000 Cl
ATOM     16  C   UNL     1       5.258   4.110  15.478  0.00  0.00    +0.000 A 
ENDBRANCH   7   9
ENDBRANCH   6   7
ENDBRANCH   5   6
ENDBRANCH   2   5
BRANCH   3  17
ATOM     17  C   UNL     1       0.869   7.277  21.128  0.00  0.00    +0.000 C 
BRANCH  17  18
ATOM     18  C   UNL     1       0.515   8.715  21.415  0.00  0.00    +0.000 A 
ATOM     19  C   UNL     1      -0.237   9.039  22.569  0.00  0.00    +0.000 A 
ATOM     20  C   UNL     1      -0.612  10.358  22.845  0.00  0.00    +0.000 A 
ATOM     21  C   UNL     1      -0.219  11.333  21.955  0.00  0.00    +0.000 A 
ATOM     22  C   UNL     1       0.526  11.036  20.839  0.00  0.00    +0.000 A 
ATOM     23  C   UNL     1       0.914   9.744  20.544  0.00  0.00    +0.000 A 
ATOM     24  O   UNL     1       0.800  12.139  20.091  0.00  0.00    +0.000 OA
ATOM     25  C   UNL     1       0.106  13.157  20.843  0.00  0.00    +0.000 C 
ATOM     26  O   UNL     1      -0.507  12.659  22.051  0.00  0.00    +0.000 OA
ENDBRANCH  17  18
ENDBRANCH   3  17
TORSDOF 6
ENDMDL
