MODEL 1
REMARK VINA RESULT:      -8.0      0.000      0.000
REMARK  Name = 
REMARK  8 active torsions:
REMARK  status: ('A' for Active; 'I' for Inactive)
REMARK    1  A    between atoms: C_1  and  O_2
REMARK    2  A    between atoms: O_2  and  C_3
REMARK    3  A    between atoms: C_3  and  C_4
REMARK    4  A    between atoms: C_6  and  C_7
REMARK    5  A    between atoms: C_16  and  C_17
REMARK    6  A    between atoms: C_17  and  O_19
REMARK    7  A    between atoms: N_21  and  C_22
REMARK    8  A    between atoms: C_26  and  C_27
REMARK                            x       y       z     vdW  Elec       q    Type
REMARK                         _______ _______ _______ _____ _____    ______ ____
ROOT
ATOM      1  C   UNL     1       1.382   8.952  19.034  0.00  0.00    +0.000 A 
ATOM      2  C   UNL     1       1.630   7.668  19.572  0.00  0.00    +0.000 A 
ATOM      3  C   UNL     1       2.647   6.826  19.094  0.00  0.00    +0.000 A 
ATOM      4  C   UNL     1       3.429   7.293  18.025  0.00  0.00    +0.000 A 
ATOM      5  C   UNL     1       3.198   8.541  17.448  0.00  0.00    +0.000 A 
ATOM      6  C   UNL     1       2.194   9.355  17.959  0.00  0.00    +0.000 A 
ATOM      7  F   UNL     1       2.042  10.564  17.398  0.00  0.00    +0.000 F 
ATOM      8  C   UNL     1       4.538   6.458  17.517  0.00  0.00    +0.000 A 
ATOM      9  O   UNL     1       5.209   6.805  16.548  0.00  0.00    +0.000 OA
ATOM     10  C   UNL     1       4.853   5.202  18.227  0.00  0.00    +0.000 A 
ATOM     11  C   UNL     1       4.036   4.847  19.231  0.00  0.00    +0.000 A 
ATOM     12  N   UNL     1       2.914   5.543  19.650  0.00  0.00    +0.000 N 
ENDROOT
BRANCH   1  15
ATOM     13  C   UNL     1      -1.655  11.199  19.320  0.00  0.00    +0.000 A 
ATOM     14  C   UNL     1      -0.686  10.357  18.780  0.00  0.00    +0.000 A 
ATOM     15  C   UNL     1       0.316   9.814  19.596  0.00  0.00    +0.000 A 
ATOM     16  C   UNL     1       0.257  10.139  20.957  0.00  0.00    +0.000 A 
ATOM     17  C   UNL     1      -0.764  10.956  21.441  0.00  0.00    +0.000 A 
ATOM     18  C   UNL     1      -0.862  11.275  22.902  0.00  0.00    +0.000 C 
ATOM     19  N   UNL     1      -1.707  11.496  20.638  0.00  0.00    +0.000 NA
BRANCH  13  20
ATOM     20  C   UNL     1      -2.705  11.811  18.423  0.00  0.00    +0.000 C 
BRANCH  20  22
ATOM     21  C   UNL     1      -3.858  11.200  16.443  0.00  0.00    +0.000 C 
ATOM     22  O   UNL     1      -2.587  11.392  17.058  0.00  0.00    +0.000 OA
ENDBRANCH  20  22
ENDBRANCH  13  20
ENDBRANCH   1  15
BRANCH  12  23
ATOM     23  C   UNL     1       2.149   5.011  20.796  0.00  0.00    +0.000 C 
ATOM     24  C   UNL     1       1.013   4.035  20.607  0.00  0.00    +0.000 C 
ATOM     25  C   UNL     1       2.281   3.577  21.251  0.00  0.00    +0.000 C 
ENDBRANCH  12  23
BRANCH  10  26
ATOM     26  C   UNL     1       6.005   4.344  17.883  0.00  0.00    +0.000 C 
ATOM     27  O   UNL     1       7.030   4.300  18.546  0.00  0.00    +0.000 OA
BRANCH  26  28
ATOM     28  O   UNL     1       5.837   3.602  16.764  0.00  0.00    +0.000 OA
ATOM     29  H   UNL     1       5.131   3.937  16.157  0.00  0.00    +0.000 HD
ENDBRANCH  26  28
ENDBRANCH  10  26
TORSDOF 6
ENDMDL
MODEL 2
REMARK VINA RESULT:      -7.9      1.130      1.226
REMARK  Name = 
REMARK  8 active torsions:
REMARK  status: ('A' for Active; 'I' for Inactive)
REMARK    1  A    between atoms: C_1  and  O_2
REMARK    2  A    between atoms: O_2  and  C_3
REMARK    3  A    between atoms: C_3  and  C_4
REMARK    4  A    between atoms: C_6  and  C_7
REMARK    5  A    between atoms: C_16  and  C_17
REMARK    6  A    between atoms: C_17  and  O_19
REMARK    7  A    between atoms: N_21  and  C_22
REMARK    8  A    between atoms: C_26  and  C_27
REMARK                            x       y       z     vdW  Elec       q    Type
REMARK                         _______ _______ _______ _____ _____    ______ ____
ROOT
ATOM      1  C   UNL     1       1.930   8.375  19.084  0.00  0.00    +0.000 A 
ATOM      2  C   UNL     1       2.309   7.054  19.419  0.00  0.00    +0.000 A 
ATOM      3  C   UNL     1       3.239   6.318  18.669  0.00  0.00    +0.000 A 
ATOM      4  C   UNL     1       3.792   6.932  17.533  0.00  0.00    +0.000 A 
ATOM      5  C   UNL     1       3.423   8.222  17.154  0.00  0.00    +0.000 A 
ATOM      6  C   UNL     1       2.513   8.927  17.930  0.00  0.00    +0.000 A 
ATOM      7  F   UNL     1       2.224  10.180  17.547  0.00  0.00    +0.000 F 
ATOM      8  C   UNL     1       4.808   6.209  16.738  0.00  0.00    +0.000 A 
ATOM      9  O   UNL     1       5.273   6.688  15.707  0.00  0.00    +0.000 OA
ATOM     10  C   UNL     1       5.284   4.901  17.231  0.00  0.00    +0.000 A 
ATOM     11  C   UNL     1       4.681   4.403  18.322  0.00  0.00    +0.000 A 
ATOM     12  N   UNL     1       3.641   4.997  19.017  0.00  0.00    +0.000 N 
ENDROOT
BRANCH   1  15
ATOM     13  C   UNL     1      -0.804  10.759  20.180  0.00  0.00    +0.000 A 
ATOM     14  C   UNL     1       0.065  10.037  19.367  0.00  0.00    +0.000 A 
ATOM     15  C   UNL     1       0.966   9.121  19.928  0.00  0.00    +0.000 A 
ATOM     16  C   UNL     1       0.910   8.962  21.318  0.00  0.00    +0.000 A 
ATOM     17  C   UNL     1      -0.012   9.687  22.072  0.00  0.00    +0.000 A 
ATOM     18  C   UNL     1      -0.110   9.493  23.554  0.00  0.00    +0.000 C 
ATOM     19  N   UNL     1      -0.855  10.588  21.522  0.00  0.00    +0.000 NA
BRANCH  13  20
ATOM     20  C   UNL     1      -1.741  11.773  19.568  0.00  0.00    +0.000 C 
BRANCH  20  22
ATOM     21  C   UNL     1      -2.822  11.423  17.487  0.00  0.00    +0.000 C 
ATOM     22  O   UNL     1      -1.630  11.847  18.142  0.00  0.00    +0.000 OA
ENDBRANCH  20  22
ENDBRANCH  13  20
ENDBRANCH   1  15
BRANCH  12  23
ATOM     23  C   UNL     1       3.121   4.310  20.218  0.00  0.00    +0.000 C 
ATOM     24  C   UNL     1       1.843   3.506  20.180  0.00  0.00    +0.000 C 
ATOM     25  C   UNL     1       3.152   2.807  20.357  0.00  0.00    +0.000 C 
ENDBRANCH  12  23
BRANCH  10  26
ATOM     26  C   UNL     1       6.372   4.140  16.585  0.00  0.00    +0.000 C 
ATOM     27  O   UNL     1       7.554   4.426  16.705  0.00  0.00    +0.000 OA
BRANCH  26  28
ATOM     28  O   UNL     1       5.957   3.089  15.841  0.00  0.00    +0.000 OA
ATOM     29  H   UNL     1       5.070   3.214  15.423  0.00  0.00    +0.000 HD
ENDBRANCH  26  28
ENDBRANCH  10  26
TORSDOF 6
ENDMDL
MODEL 3
REMARK VINA RESULT:      -7.7      1.335      2.495
REMARK  Name = 
REMARK  8 active torsions:
REMARK  status: ('A' for Active; 'I' for Inactive)
REMARK    1  A    between atoms: C_1  and  O_2
REMARK    2  A    between atoms: O_2  and  C_3
REMARK    3  A    between atoms: C_3  and  C_4
REMARK    4  A    between atoms: C_6  and  C_7
REMARK    5  A    between atoms: C_16  and  C_17
REMARK    6  A    between atoms: C_17  and  O_19
REMARK    7  A    between atoms: N_21  and  C_22
REMARK    8  A    between atoms: C_26  and  C_27
REMARK                            x       y       z     vdW  Elec       q    Type
REMARK                         _______ _______ _______ _____ _____    ______ ____
ROOT
ATOM      1  C   UNL     1       1.334   9.036  18.984  0.00  0.00    +0.000 A 
ATOM      2  C   UNL     1       1.547   7.751  19.536  0.00  0.00    +0.000 A 
ATOM      3  C   UNL     1       2.565   6.893  19.095  0.00  0.00    +0.000 A 
ATOM      4  C   UNL     1       3.387   7.343  18.048  0.00  0.00    +0.000 A 
ATOM      5  C   UNL     1       3.193   8.590  17.457  0.00  0.00    +0.000 A 
ATOM      6  C   UNL     1       2.185   9.421  17.933  0.00  0.00    +0.000 A 
ATOM      7  F   UNL     1       2.068  10.629  17.361  0.00  0.00    +0.000 F 
ATOM      8  C   UNL     1       4.500   6.489  17.579  0.00  0.00    +0.000 A 
ATOM      9  O   UNL     1       5.205   6.820  16.630  0.00  0.00    +0.000 OA
ATOM     10  C   UNL     1       4.773   5.232  18.305  0.00  0.00    +0.000 A 
ATOM     11  C   UNL     1       3.920   4.894  19.285  0.00  0.00    +0.000 A 
ATOM     12  N   UNL     1       2.796   5.609  19.665  0.00  0.00    +0.000 N 
ENDROOT
BRANCH   1  15
ATOM     13  C   UNL     1      -0.788  11.118  21.333  0.00  0.00    +0.000 A 
ATOM     14  C   UNL     1       0.250  10.325  20.849  0.00  0.00    +0.000 A 
ATOM     15  C   UNL     1       0.263   9.916  19.508  0.00  0.00    +0.000 A 
ATOM     16  C   UNL     1      -0.790  10.373  18.705  0.00  0.00    +0.000 A 
ATOM     17  C   UNL     1      -1.777  11.197  19.243  0.00  0.00    +0.000 A 
ATOM     18  C   UNL     1      -2.883  11.727  18.383  0.00  0.00    +0.000 C 
ATOM     19  N   UNL     1      -1.793  11.561  20.544  0.00  0.00    +0.000 NA
BRANCH  13  20
ATOM     20  C   UNL     1      -0.812  11.519  22.789  0.00  0.00    +0.000 C 
BRANCH  20  22
ATOM     21  C   UNL     1      -1.337  13.739  23.437  0.00  0.00    +0.000 C 
ATOM     22  O   UNL     1      -0.313  12.843  23.013  0.00  0.00    +0.000 OA
ENDBRANCH  20  22
ENDBRANCH  13  20
ENDBRANCH   1  15
BRANCH  12  23
ATOM     23  C   UNL     1       1.988   5.095  20.790  0.00  0.00    +0.000 C 
ATOM     24  C   UNL     1       0.975   3.991  20.599  0.00  0.00    +0.000 C 
ATOM     25  C   UNL     1       2.220   3.724  21.381  0.00  0.00    +0.000 C 
ENDBRANCH  12  23
BRANCH  10  26
ATOM     26  C   UNL     1       5.923   4.356  18.002  0.00  0.00    +0.000 C 
ATOM     27  O   UNL     1       6.921   4.291  18.704  0.00  0.00    +0.000 OA
BRANCH  26  28
ATOM     28  O   UNL     1       5.785   3.621  16.874  0.00  0.00    +0.000 OA
ATOM     29  H   UNL     1       5.596   4.154  16.063  0.00  0.00    +0.000 HD
ENDBRANCH  26  28
ENDBRANCH  10  26
TORSDOF 6
ENDMDL
MODEL 4
REMARK VINA RESULT:      -7.7      2.312      3.436
REMARK  Name = 
REMARK  8 active torsions:
REMARK  status: ('A' for Active; 'I' for Inactive)
REMARK    1  A    between atoms: C_1  and  O_2
REMARK    2  A    between atoms: O_2  and  C_3
REMARK    3  A    between atoms: C_3  and  C_4
REMARK    4  A    between atoms: C_6  and  C_7
REMARK    5  A    between atoms: C_16  and  C_17
REMARK    6  A    between atoms: C_17  and  O_19
REMARK    7  A    between atoms: N_21  and  C_22
REMARK    8  A    between atoms: C_26  and  C_27
REMARK                            x       y       z     vdW  Elec       q    Type
REMARK                         _______ _______ _______ _____ _____    ______ ____
ROOT
ATOM      1  C   UNL     1       1.396   8.436  19.628  0.00  0.00    +0.000 A 
ATOM      2  C   UNL     1       2.372   7.858  18.783  0.00  0.00    +0.000 A 
ATOM      3  C   UNL     1       2.857   6.553  18.963  0.00  0.00    +0.000 A 
ATOM      4  C   UNL     1       2.349   5.814  20.044  0.00  0.00    +0.000 A 
ATOM      5  C   UNL     1       1.408   6.358  20.917  0.00  0.00    +0.000 A 
ATOM      6  C   UNL     1       0.937   7.647  20.697  0.00  0.00    +0.000 A 
ATOM      7  F   UNL     1      -0.000   8.107  21.539  0.00  0.00    +0.000 F 
ATOM      8  C   UNL     1       2.800   4.421  20.247  0.00  0.00    +0.000 A 
ATOM      9  O   UNL     1       2.424   3.760  21.212  0.00  0.00    +0.000 OA
ATOM     10  C   UNL     1       3.693   3.818  19.237  0.00  0.00    +0.000 A 
ATOM     11  C   UNL     1       4.124   4.617  18.248  0.00  0.00    +0.000 A 
ATOM     12  N   UNL     1       3.821   5.961  18.100  0.00  0.00    +0.000 N 
ENDROOT
BRANCH   1  15
ATOM     13  C   UNL     1      -0.696  11.328  18.355  0.00  0.00    +0.000 A 
ATOM     14  C   UNL     1      -0.264  10.030  18.618  0.00  0.00    +0.000 A 
ATOM     15  C   UNL     1       0.895   9.808  19.375  0.00  0.00    +0.000 A 
ATOM     16  C   UNL     1       1.550  10.946  19.862  0.00  0.00    +0.000 A 
ATOM     17  C   UNL     1       1.043  12.217  19.597  0.00  0.00    +0.000 A 
ATOM     18  C   UNL     1       1.710  13.438  20.150  0.00  0.00    +0.000 C 
ATOM     19  N   UNL     1      -0.060  12.418  18.842  0.00  0.00    +0.000 NA
BRANCH  13  20
ATOM     20  C   UNL     1      -1.923  11.555  17.504  0.00  0.00    +0.000 C 
BRANCH  20  22
ATOM     21  C   UNL     1      -2.915  10.817  15.481  0.00  0.00    +0.000 C 
ATOM     22  O   UNL     1      -2.247  10.430  16.679  0.00  0.00    +0.000 OA
ENDBRANCH  20  22
ENDBRANCH  13  20
ENDBRANCH   1  15
BRANCH  12  23
ATOM     23  C   UNL     1       4.367   6.675  16.927  0.00  0.00    +0.000 C 
ATOM     24  C   UNL     1       5.836   7.005  16.813  0.00  0.00    +0.000 C 
ATOM     25  C   UNL     1       5.235   5.984  15.902  0.00  0.00    +0.000 C 
ENDBRANCH  12  23
BRANCH  10  26
ATOM     26  C   UNL     1       4.119   2.404  19.273  0.00  0.00    +0.000 C 
ATOM     27  O   UNL     1       3.676   1.552  18.517  0.00  0.00    +0.000 OA
BRANCH  26  28
ATOM     28  O   UNL     1       5.045   2.121  20.216  0.00  0.00    +0.000 OA
ATOM     29  H   UNL     1       4.985   1.204  20.582  0.00  0.00    +0.000 HD
ENDBRANCH  26  28
ENDBRANCH  10  26
TORSDOF 6
ENDMDL
MODEL 5
REMARK VINA RESULT:      -7.6      1.476      1.730
REMARK  Name = 
REMARK  8 active torsions:
REMARK  status: ('A' for Active; 'I' for Inactive)
REMARK    1  A    between atoms: C_1  and  O_2
REMARK    2  A    between atoms: O_2  and  C_3
REMARK    3  A    between atoms: C_3  and  C_4
REMARK    4  A    between atoms: C_6  and  C_7
REMARK    5  A    between atoms: C_16  and  C_17
REMARK    6  A    between atoms: C_17  and  O_19
REMARK    7  A    between atoms: N_21  and  C_22
REMARK    8  A    between atoms: C_26  and  C_27
REMARK                            x       y       z     vdW  Elec       q    Type
REMARK                         _______ _______ _______ _____ _____    ______ ____
ROOT
ATOM      1  C   UNL     1       1.932   8.381  19.091  0.00  0.00    +0.000 A 
ATOM      2  C   UNL     1       2.302   7.052  19.404  0.00  0.00    +0.000 A 
ATOM      3  C   UNL     1       3.220   6.318  18.637  0.00  0.00    +0.000 A 
ATOM      4  C   UNL     1       3.772   6.945  17.507  0.00  0.00    +0.000 A 
ATOM      5  C   UNL     1       3.412   8.244  17.149  0.00  0.00    +0.000 A 
ATOM      6  C   UNL     1       2.513   8.946  17.943  0.00  0.00    +0.000 A 
ATOM      7  F   UNL     1       2.233  10.207  17.580  0.00  0.00    +0.000 F 
ATOM      8  C   UNL     1       4.776   6.225  16.694  0.00  0.00    +0.000 A 
ATOM      9  O   UNL     1       5.239   6.715  15.668  0.00  0.00    +0.000 OA
ATOM     10  C   UNL     1       5.243   4.906  17.164  0.00  0.00    +0.000 A 
ATOM     11  C   UNL     1       4.643   4.396  18.251  0.00  0.00    +0.000 A 
ATOM     12  N   UNL     1       3.612   4.989  18.962  0.00  0.00    +0.000 N 
ENDROOT
BRANCH   1  15
ATOM     13  C   UNL     1      -0.792  10.753  20.237  0.00  0.00    +0.000 A 
ATOM     14  C   UNL     1       0.065  10.034  19.408  0.00  0.00    +0.000 A 
ATOM     15  C   UNL     1       0.980   9.122  19.953  0.00  0.00    +0.000 A 
ATOM     16  C   UNL     1       0.951   8.964  21.344  0.00  0.00    +0.000 A 
ATOM     17  C   UNL     1       0.040   9.685  22.114  0.00  0.00    +0.000 A 
ATOM     18  C   UNL     1      -0.031   9.491  23.598  0.00  0.00    +0.000 C 
ATOM     19  N   UNL     1      -0.818  10.582  21.579  0.00  0.00    +0.000 NA
BRANCH  13  20
ATOM     20  C   UNL     1      -1.745  11.762  19.642  0.00  0.00    +0.000 C 
BRANCH  20  22
ATOM     21  C   UNL     1      -3.546  12.913  20.668  0.00  0.00    +0.000 C 
ATOM     22  O   UNL     1      -2.131  12.782  20.571  0.00  0.00    +0.000 OA
ENDBRANCH  20  22
ENDBRANCH  13  20
ENDBRANCH   1  15
BRANCH  12  23
ATOM     23  C   UNL     1       3.093   4.289  20.155  0.00  0.00    +0.000 C 
ATOM     24  C   UNL     1       1.769   3.563  20.136  0.00  0.00    +0.000 C 
ATOM     25  C   UNL     1       3.040   2.782  20.239  0.00  0.00    +0.000 C 
ENDBRANCH  12  23
BRANCH  10  26
ATOM     26  C   UNL     1       6.321   4.145  16.500  0.00  0.00    +0.000 C 
ATOM     27  O   UNL     1       6.138   3.441  15.517  0.00  0.00    +0.000 OA
BRANCH  26  28
ATOM     28  O   UNL     1       7.540   4.286  17.068  0.00  0.00    +0.000 OA
ATOM     29  H   UNL     1       7.793   5.223  17.257  0.00  0.00    +0.000 HD
ENDBRANCH  26  28
ENDBRANCH  10  26
TORSDOF 6
ENDMDL
MODEL 6
REMARK VINA RESULT:      -7.5      1.150      1.540
REMARK  Name = 
REMARK  8 active torsions:
REMARK  status: ('A' for Active; 'I' for Inactive)
REMARK    1  A    between atoms: C_1  and  O_2
REMARK    2  A    between atoms: O_2  and  C_3
REMARK    3  A    between atoms: C_3  and  C_4
REMARK    4  A    between atoms: C_6  and  C_7
REMARK    5  A    between atoms: C_16  and  C_17
REMARK    6  A    between atoms: C_17  and  O_19
REMARK    7  A    between atoms: N_21  and  C_22
REMARK    8  A    between atoms: C_26  and  C_27
REMARK                            x       y       z     vdW  Elec       q    Type
REMARK                         _______ _______ _______ _____ _____    ______ ____
ROOT
ATOM      1  C   UNL     1       1.552   8.835  19.192  0.00  0.00    +0.000 A 
ATOM      2  C   UNL     1       1.799   7.521  19.654  0.00  0.00    +0.000 A 
ATOM      3  C   UNL     1       2.706   6.652  19.028  0.00  0.00    +0.000 A 
ATOM      4  C   UNL     1       3.375   7.123  17.885  0.00  0.00    +0.000 A 
ATOM      5  C   UNL     1       3.138   8.401  17.381  0.00  0.00    +0.000 A 
ATOM      6  C   UNL     1       2.246   9.240  18.039  0.00  0.00    +0.000 A 
ATOM      7  F   UNL     1       2.088  10.475  17.539  0.00  0.00    +0.000 F 
ATOM      8  C   UNL     1       4.370   6.257  17.218  0.00  0.00    +0.000 A 
ATOM      9  O   UNL     1       4.934   6.609  16.185  0.00  0.00    +0.000 OA
ATOM     10  C   UNL     1       4.705   4.962  17.843  0.00  0.00    +0.000 A 
ATOM     11  C   UNL     1       3.999   4.607  18.929  0.00  0.00    +0.000 A 
ATOM     12  N   UNL     1       2.973   5.338  19.505  0.00  0.00    +0.000 N 
ENDROOT
BRANCH   1  15
ATOM     13  C   UNL     1      -0.917  11.609  19.943  0.00  0.00    +0.000 A 
ATOM     14  C   UNL     1      -0.065  10.758  19.244  0.00  0.00    +0.000 A 
ATOM     15  C   UNL     1       0.607   9.723  19.909  0.00  0.00    +0.000 A 
ATOM     16  C   UNL     1       0.344   9.587  21.278  0.00  0.00    +0.000 A 
ATOM     17  C   UNL     1      -0.551  10.447  21.911  0.00  0.00    +0.000 A 
ATOM     18  C   UNL     1      -0.873  10.283  23.365  0.00  0.00    +0.000 C 
ATOM     19  N   UNL     1      -1.170  11.459  21.264  0.00  0.00    +0.000 NA
BRANCH  13  20
ATOM     20  C   UNL     1      -1.603  12.746  19.224  0.00  0.00    +0.000 C 
BRANCH  20  22
ATOM     21  C   UNL     1      -0.498  14.804  19.631  0.00  0.00    +0.000 C 
ATOM     22  O   UNL     1      -0.685  13.724  18.720  0.00  0.00    +0.000 OA
ENDBRANCH  20  22
ENDBRANCH  13  20
ENDBRANCH   1  15
BRANCH  12  23
ATOM     23  C   UNL     1       2.328   4.799  20.719  0.00  0.00    +0.000 C 
ATOM     24  C   UNL     1       1.151   3.855  20.640  0.00  0.00    +0.000 C 
ATOM     25  C   UNL     1       2.471   3.352  21.127  0.00  0.00    +0.000 C 
ENDBRANCH  12  23
BRANCH  10  26
ATOM     26  C   UNL     1       5.761   4.065  17.332  0.00  0.00    +0.000 C 
ATOM     27  O   UNL     1       5.644   3.403  16.312  0.00  0.00    +0.000 OA
BRANCH  26  28
ATOM     28  O   UNL     1       6.882   4.031  18.089  0.00  0.00    +0.000 OA
ATOM     29  H   UNL     1       7.562   3.385  17.777  0.00  0.00    +0.000 HD
ENDBRANCH  26  28
ENDBRANCH  10  26
TORSDOF 6
ENDMDL
MODEL 7
REMARK VINA RESULT:      -7.5      2.446      3.706
REMARK  Name = 
REMARK  8 active torsions:
REMARK  status: ('A' for Active; 'I' for Inactive)
REMARK    1  A    between atoms: C_1  and  O_2
REMARK    2  A    between atoms: O_2  and  C_3
REMARK    3  A    between atoms: C_3  and  C_4
REMARK    4  A    between atoms: C_6  and  C_7
REMARK    5  A    between atoms: C_16  and  C_17
REMARK    6  A    between atoms: C_17  and  O_19
REMARK    7  A    between atoms: N_21  and  C_22
REMARK    8  A    between atoms: C_26  and  C_27
REMARK                            x       y       z     vdW  Elec       q    Type
REMARK                         _______ _______ _______ _____ _____    ______ ____
ROOT
ATOM      1  C   UNL     1       1.569   8.366  19.479  0.00  0.00    +0.000 A 
ATOM      2  C   UNL     1       2.500   7.723  18.631  0.00  0.00    +0.000 A 
ATOM      3  C   UNL     1       2.947   6.410  18.850  0.00  0.00    +0.000 A 
ATOM      4  C   UNL     1       2.446   5.731  19.973  0.00  0.00    +0.000 A 
ATOM      5  C   UNL     1       1.548   6.340  20.848  0.00  0.00    +0.000 A 
ATOM      6  C   UNL     1       1.114   7.635  20.590  0.00  0.00    +0.000 A 
ATOM      7  F   UNL     1       0.217   8.159  21.438  0.00  0.00    +0.000 F 
ATOM      8  C   UNL     1       2.856   4.332  20.218  0.00  0.00    +0.000 A 
ATOM      9  O   UNL     1       2.486   3.723  21.219  0.00  0.00    +0.000 OA
ATOM     10  C   UNL     1       3.700   3.660  19.209  0.00  0.00    +0.000 A 
ATOM     11  C   UNL     1       4.129   4.406  18.178  0.00  0.00    +0.000 A 
ATOM     12  N   UNL     1       3.866   5.752  17.985  0.00  0.00    +0.000 N 
ENDROOT
BRANCH   1  15
ATOM     13  C   UNL     1      -0.673  11.370  18.923  0.00  0.00    +0.000 A 
ATOM     14  C   UNL     1      -0.254  10.081  19.243  0.00  0.00    +0.000 A 
ATOM     15  C   UNL     1       1.106   9.743  19.185  0.00  0.00    +0.000 A 
ATOM     16  C   UNL     1       1.989  10.769  18.827  0.00  0.00    +0.000 A 
ATOM     17  C   UNL     1       1.508  12.049  18.557  0.00  0.00    +0.000 A 
ATOM     18  C   UNL     1       2.448  13.164  18.216  0.00  0.00    +0.000 C 
ATOM     19  N   UNL     1       0.192  12.354  18.588  0.00  0.00    +0.000 NA
BRANCH  13  20
ATOM     20  C   UNL     1      -2.145  11.711  18.949  0.00  0.00    +0.000 C 
BRANCH  20  22
ATOM     21  C   UNL     1      -3.883  12.727  20.201  0.00  0.00    +0.000 C 
ATOM     22  O   UNL     1      -2.480  12.665  19.963  0.00  0.00    +0.000 OA
ENDBRANCH  20  22
ENDBRANCH  13  20
ENDBRANCH   1  15
BRANCH  12  23
ATOM     23  C   UNL     1       4.401   6.401  16.770  0.00  0.00    +0.000 C 
ATOM     24  C   UNL     1       5.840   6.853  16.681  0.00  0.00    +0.000 C 
ATOM     25  C   UNL     1       5.374   5.701  15.851  0.00  0.00    +0.000 C 
ENDBRANCH  12  23
BRANCH  10  26
ATOM     26  C   UNL     1       4.079   2.235  19.289  0.00  0.00    +0.000 C 
ATOM     27  O   UNL     1       3.568   1.365  18.599  0.00  0.00    +0.000 OA
BRANCH  26  28
ATOM     28  O   UNL     1       5.046   1.962  20.194  0.00  0.00    +0.000 OA
ATOM     29  H   UNL     1       5.609   1.183  19.963  0.00  0.00    +0.000 HD
ENDBRANCH  26  28
ENDBRANCH  10  26
TORSDOF 6
ENDMDL
MODEL 8
REMARK VINA RESULT:      -7.5      2.778      4.294
REMARK  Name = 
REMARK  8 active torsions:
REMARK  status: ('A' for Active; 'I' for Inactive)
REMARK    1  A    between atoms: C_1  and  O_2
REMARK    2  A    between atoms: O_2  and  C_3
REMARK    3  A    between atoms: C_3  and  C_4
REMARK    4  A    between atoms: C_6  and  C_7
REMARK    5  A    between atoms: C_16  and  C_17
REMARK    6  A    between atoms: C_17  and  O_19
REMARK    7  A    between atoms: N_21  and  C_22
REMARK    8  A    between atoms: C_26  and  C_27
REMARK                            x       y       z     vdW  Elec       q    Type
REMARK                         _______ _______ _______ _____ _____    ______ ____
ROOT
ATOM      1  C   UNL     1       1.423   8.434  19.588  0.00  0.00    +0.000 A 
ATOM      2  C   UNL     1       2.390   7.830  18.750  0.00  0.00    +0.000 A 
ATOM      3  C   UNL     1       2.863   6.524  18.954  0.00  0.00    +0.000 A 
ATOM      4  C   UNL     1       2.352   5.810  20.051  0.00  0.00    +0.000 A 
ATOM      5  C   UNL     1       1.419   6.380  20.916  0.00  0.00    +0.000 A 
ATOM      6  C   UNL     1       0.961   7.669  20.673  0.00  0.00    +0.000 A 
ATOM      7  F   UNL     1       0.031   8.155  21.509  0.00  0.00    +0.000 F 
ATOM      8  C   UNL     1       2.790   4.417  20.278  0.00  0.00    +0.000 A 
ATOM      9  O   UNL     1       2.411   3.779  21.257  0.00  0.00    +0.000 OA
ATOM     10  C   UNL     1       3.673   3.786  19.277  0.00  0.00    +0.000 A 
ATOM     11  C   UNL     1       4.108   4.562  18.271  0.00  0.00    +0.000 A 
ATOM     12  N   UNL     1       3.818   5.906  18.098  0.00  0.00    +0.000 N 
ENDROOT
BRANCH   1  15
ATOM     13  C   UNL     1       1.184  12.213  19.454  0.00  0.00    +0.000 A 
ATOM     14  C   UNL     1       1.680  10.932  19.685  0.00  0.00    +0.000 A 
ATOM     15  C   UNL     1       0.935   9.805  19.311  0.00  0.00    +0.000 A 
ATOM     16  C   UNL     1      -0.291  10.049  18.678  0.00  0.00    +0.000 A 
ATOM     17  C   UNL     1      -0.711  11.356  18.440  0.00  0.00    +0.000 A 
ATOM     18  C   UNL     1      -1.999  11.628  17.724  0.00  0.00    +0.000 C 
ATOM     19  N   UNL     1       0.004  12.434  18.831  0.00  0.00    +0.000 NA
BRANCH  13  20
ATOM     20  C   UNL     1       1.978  13.419  19.898  0.00  0.00    +0.000 C 
BRANCH  20  22
ATOM     21  C   UNL     1       3.681  14.141  21.381  0.00  0.00    +0.000 C 
ATOM     22  O   UNL     1       2.596  13.240  21.178  0.00  0.00    +0.000 OA
ENDBRANCH  20  22
ENDBRANCH  13  20
ENDBRANCH   1  15
BRANCH  12  23
ATOM     23  C   UNL     1       4.366   6.592  16.910  0.00  0.00    +0.000 C 
ATOM     24  C   UNL     1       5.831   6.942  16.803  0.00  0.00    +0.000 C 
ATOM     25  C   UNL     1       5.257   5.884  15.917  0.00  0.00    +0.000 C 
ENDBRANCH  12  23
BRANCH  10  26
ATOM     26  C   UNL     1       4.084   2.369  19.337  0.00  0.00    +0.000 C 
ATOM     27  O   UNL     1       3.576   1.493  18.653  0.00  0.00    +0.000 OA
BRANCH  26  28
ATOM     28  O   UNL     1       5.078   2.111  20.218  0.00  0.00    +0.000 OA
ATOM     29  H   UNL     1       5.051   1.200  20.604  0.00  0.00    +0.000 HD
ENDBRANCH  26  28
ENDBRANCH  10  26
TORSDOF 6
ENDMDL
MODEL 9
REMARK VINA RESULT:      -7.4      2.126      7.621
REMARK  Name = 
REMARK  8 active torsions:
REMARK  status: ('A' for Active; 'I' for Inactive)
REMARK    1  A    between atoms: C_1  and  O_2
REMARK    2  A    between atoms: O_2  and  C_3
REMARK    3  A    between atoms: C_3  and  C_4
REMARK    4  A    between atoms: C_6  and  C_7
REMARK    5  A    between atoms: C_16  and  C_17
REMARK    6  A    between atoms: C_17  and  O_19
REMARK    7  A    between atoms: N_21  and  C_22
REMARK    8  A    between atoms: C_26  and  C_27
REMARK                            x       y       z     vdW  Elec       q    Type
REMARK                         _______ _______ _______ _____ _____    ______ ____
ROOT
ATOM      1  C   UNL     1       2.155   7.532  19.115  0.00  0.00    +0.000 A 
ATOM      2  C   UNL     1       1.351   8.197  20.070  0.00  0.00    +0.000 A 
ATOM      3  C   UNL     1       1.027   9.559  19.974  0.00  0.00    +0.000 A 
ATOM      4  C   UNL     1       1.547  10.277  18.884  0.00  0.00    +0.000 A 
ATOM      5  C   UNL     1       2.367   9.665  17.937  0.00  0.00    +0.000 A 
ATOM      6  C   UNL     1       2.652   8.310  18.054  0.00  0.00    +0.000 A 
ATOM      7  F   UNL     1       3.409   7.759  17.093  0.00  0.00    +0.000 F 
ATOM      8  C   UNL     1       1.197  11.704  18.720  0.00  0.00    +0.000 A 
ATOM      9  O   UNL     1       1.676  12.380  17.813  0.00  0.00    +0.000 OA
ATOM     10  C   UNL     1       0.222  12.299  19.655  0.00  0.00    +0.000 A 
ATOM     11  C   UNL     1      -0.206  11.526  20.666  0.00  0.00    +0.000 A 
ATOM     12  N   UNL     1       0.199  10.226  20.920  0.00  0.00    +0.000 N 
ENDROOT
BRANCH   1  15
ATOM     13  C   UNL     1       3.424   4.033  18.403  0.00  0.00    +0.000 A 
ATOM     14  C   UNL     1       3.201   5.403  18.284  0.00  0.00    +0.000 A 
ATOM     15  C   UNL     1       2.442   6.084  19.246  0.00  0.00    +0.000 A 
ATOM     16  C   UNL     1       1.966   5.321  20.320  0.00  0.00    +0.000 A 
ATOM     17  C   UNL     1       2.259   3.961  20.401  0.00  0.00    +0.000 A 
ATOM     18  C   UNL     1       1.793   3.145  21.568  0.00  0.00    +0.000 C 
ATOM     19  N   UNL     1       2.968   3.311  19.452  0.00  0.00    +0.000 NA
BRANCH  13  20
ATOM     20  C   UNL     1       4.208   3.303  17.338  0.00  0.00    +0.000 C 
BRANCH  20  22
ATOM     21  C   UNL     1       5.934   3.998  15.869  0.00  0.00    +0.000 C 
ATOM     22  O   UNL     1       4.564   4.141  16.232  0.00  0.00    +0.000 OA
ENDBRANCH  20  22
ENDBRANCH  13  20
ENDBRANCH   1  15
BRANCH  12  23
ATOM     23  C   UNL     1      -0.405   9.518  22.068  0.00  0.00    +0.000 C 
ATOM     24  C   UNL     1       0.277   9.464  23.415  0.00  0.00    +0.000 C 
ATOM     25  C   UNL     1      -0.979  10.258  23.253  0.00  0.00    +0.000 C 
ENDBRANCH  12  23
BRANCH  10  26
ATOM     26  C   UNL     1      -0.289  13.679  19.523  0.00  0.00    +0.000 C 
ATOM     27  O   UNL     1      -0.285  14.486  20.440  0.00  0.00    +0.000 OA
BRANCH  26  28
ATOM     28  O   UNL     1      -0.769  13.984  18.296  0.00  0.00    +0.000 OA
ATOM     29  H   UNL     1      -0.218  14.635  17.796  0.00  0.00    +0.000 HD
ENDBRANCH  26  28
ENDBRANCH  10  26
TORSDOF 6
ENDMDL
