MODEL 1
REMARK VINA RESULT:      -6.6      0.000      0.000
REMARK  Name = 
REMARK  7 active torsions:
REMARK  status: ('A' for Active; 'I' for Inactive)
REMARK    1  A    between atoms: C_1  and  C_2
REMARK    2  A    between atoms: C_2  and  C_3
REMARK    3  A    between atoms: N_5  and  C_6
REMARK    4  A    between atoms: N_11  and  C_12
REMARK    5  A    between atoms: C_23  and  C_24
REMARK    6  A    between atoms: C_24  and  O_26
REMARK    7  A    between atoms: O_26  and  C_27
REMARK                            x       y       z     vdW  Elec       q    Type
REMARK                         _______ _______ _______ _____ _____    ______ ____
ROOT
ATOM      1  C   UNL     1      -0.660  11.564  22.741  0.00  0.00    +0.000 C 
ATOM      2  C   UNL     1      -0.065  11.937  21.282  0.00  0.00    +0.000 C 
ATOM      3  N   UNL     1      -0.206  13.356  20.752  0.00  0.00    +0.000 NA
ATOM      4  C   UNL     1       0.979  14.180  21.013  0.00  0.00    +0.000 C 
ATOM      5  C   UNL     1      -1.481  14.055  21.194  0.00  0.00    +0.000 C 
ATOM      6  C   UNL     1      -2.597  13.493  20.246  0.00  0.00    +0.000 C 
ATOM      7  C   UNL     1      -4.015  13.111  20.651  0.00  0.00    +0.000 A 
ATOM      8  C   UNL     1      -4.727  13.129  21.861  0.00  0.00    +0.000 A 
ATOM      9  N   UNL     1      -6.058  12.910  21.502  0.00  0.00    +0.000 N 
ATOM     10  C   UNL     1      -7.229  13.163  22.310  0.00  0.00    +0.000 C 
ATOM     11  C   UNL     1      -6.113  12.245  20.299  0.00  0.00    +0.000 A 
ATOM     12  C   UNL     1      -7.163  11.559  19.658  0.00  0.00    +0.000 A 
ATOM     13  C   UNL     1      -6.882  10.892  18.462  0.00  0.00    +0.000 A 
ATOM     14  C   UNL     1      -5.612  10.948  17.897  0.00  0.00    +0.000 A 
ATOM     15  C   UNL     1      -4.600  11.699  18.507  0.00  0.00    +0.000 A 
ATOM     16  C   UNL     1      -4.844  12.348  19.742  0.00  0.00    +0.000 A 
ATOM     17  C   UNL     1      -4.277  13.274  23.254  0.00  0.00    +0.000 C 
ATOM     18  O   UNL     1      -4.762  14.111  24.006  0.00  0.00    +0.000 OA
ATOM     19  C   UNL     1      -3.197  12.260  23.758  0.00  0.00    +0.000 C 
ATOM     20  C   UNL     1      -1.989  12.344  22.848  0.00  0.00    +0.000 C 
ATOM     21  C   UNL     1      -1.522  13.795  22.688  0.00  0.00    +0.000 C 
ENDROOT
BRANCH   1  23
ATOM     22  C   UNL     1       0.518   9.245  22.736  0.00  0.00    +0.000 C 
ATOM     23  C   UNL     1      -0.734  10.058  23.016  0.00  0.00    +0.000 C 
ENDBRANCH   1  23
BRANCH  21  24
ATOM     24  C   UNL     1      -1.666  14.830  23.801  0.00  0.00    +0.000 C 
ATOM     25  O   UNL     1      -1.046  14.765  24.854  0.00  0.00    +0.000 OA
BRANCH  24  26
ATOM     26  O   UNL     1      -2.199  15.989  23.313  0.00  0.00    +0.000 OA
ATOM     27  C   UNL     1      -2.570  16.906  24.349  0.00  0.00    +0.000 C 
ENDBRANCH  24  26
ENDBRANCH  21  24
TORSDOF 3
ENDMDL
MODEL 2
REMARK VINA RESULT:      -6.1      1.919      2.767
REMARK  Name = 
REMARK  7 active torsions:
REMARK  status: ('A' for Active; 'I' for Inactive)
REMARK    1  A    between atoms: C_1  and  C_2
REMARK    2  A    between atoms: C_2  and  C_3
REMARK    3  A    between atoms: N_5  and  C_6
REMARK    4  A    between atoms: N_11  and  C_12
REMARK    5  A    between atoms: C_23  and  C_24
REMARK    6  A    between atoms: C_24  and  O_26
REMARK    7  A    between atoms: O_26  and  C_27
REMARK                            x       y       z     vdW  Elec       q    Type
REMARK                         _______ _______ _______ _____ _____    ______ ____
ROOT
ATOM      1  C   UNL     1       0.399  10.444  21.202  0.00  0.00    +0.000 C 
ATOM      2  C   UNL     1       0.512  10.131  19.618  0.00  0.00    +0.000 C 
ATOM      3  N   UNL     1       0.638  11.281  18.631  0.00  0.00    +0.000 NA
ATOM      4  C   UNL     1       2.031  11.572  18.273  0.00  0.00    +0.000 C 
ATOM      5  C   UNL     1      -0.105  12.538  19.050  0.00  0.00    +0.000 C 
ATOM      6  C   UNL     1      -1.603  12.263  18.677  0.00  0.00    +0.000 C 
ATOM      7  C   UNL     1      -2.823  12.632  19.513  0.00  0.00    +0.000 A 
ATOM      8  C   UNL     1      -3.006  13.267  20.751  0.00  0.00    +0.000 A 
ATOM      9  N   UNL     1      -4.374  13.537  20.822  0.00  0.00    +0.000 N 
ATOM     10  C   UNL     1      -5.032  14.461  21.717  0.00  0.00    +0.000 C 
ATOM     11  C   UNL     1      -5.063  12.661  20.015  0.00  0.00    +0.000 A 
ATOM     12  C   UNL     1      -6.431  12.332  19.949  0.00  0.00    +0.000 A 
ATOM     13  C   UNL     1      -6.824  11.317  19.072  0.00  0.00    +0.000 A 
ATOM     14  C   UNL     1      -5.895  10.686  18.253  0.00  0.00    +0.000 A 
ATOM     15  C   UNL     1      -4.550  11.078  18.275  0.00  0.00    +0.000 A 
ATOM     16  C   UNL     1      -4.117  12.072  19.185  0.00  0.00    +0.000 A 
ATOM     17  C   UNL     1      -2.062  13.577  21.836  0.00  0.00    +0.000 C 
ATOM     18  O   UNL     1      -1.957  14.706  22.298  0.00  0.00    +0.000 OA
ATOM     19  C   UNL     1      -1.247  12.379  22.428  0.00  0.00    +0.000 C 
ATOM     20  C   UNL     1      -0.487  11.705  21.305  0.00  0.00    +0.000 C 
ATOM     21  C   UNL     1       0.317  12.728  20.495  0.00  0.00    +0.000 C 
ENDROOT
BRANCH   1  23
ATOM     22  C   UNL     1       0.069   9.383  23.553  0.00  0.00    +0.000 C 
ATOM     23  C   UNL     1      -0.036   9.241  22.045  0.00  0.00    +0.000 C 
ENDBRANCH   1  23
BRANCH  21  24
ATOM     24  C   UNL     1       0.915  13.984  21.124  0.00  0.00    +0.000 C 
ATOM     25  O   UNL     1       1.744  13.947  22.024  0.00  0.00    +0.000 OA
BRANCH  24  26
ATOM     26  O   UNL     1       0.748  15.060  20.300  0.00  0.00    +0.000 OA
ATOM     27  C   UNL     1       1.985  15.539  19.760  0.00  0.00    +0.000 C 
ENDBRANCH  24  26
ENDBRANCH  21  24
TORSDOF 3
ENDMDL
MODEL 3
REMARK VINA RESULT:      -6.0      2.562      4.931
REMARK  Name = 
REMARK  7 active torsions:
REMARK  status: ('A' for Active; 'I' for Inactive)
REMARK    1  A    between atoms: C_1  and  C_2
REMARK    2  A    between atoms: C_2  and  C_3
REMARK    3  A    between atoms: N_5  and  C_6
REMARK    4  A    between atoms: N_11  and  C_12
REMARK    5  A    between atoms: C_23  and  C_24
REMARK    6  A    between atoms: C_24  and  O_26
REMARK    7  A    between atoms: O_26  and  C_27
REMARK                            x       y       z     vdW  Elec       q    Type
REMARK                         _______ _______ _______ _____ _____    ______ ____
ROOT
ATOM      1  C   UNL     1      -1.537  16.636  20.032  0.00  0.00    +0.000 C 
ATOM      2  C   UNL     1      -3.134  16.495  20.256  0.00  0.00    +0.000 C 
ATOM      3  N   UNL     1      -3.660  15.665  21.417  0.00  0.00    +0.000 NA
ATOM      4  C   UNL     1      -3.962  16.475  22.603  0.00  0.00    +0.000 C 
ATOM      5  C   UNL     1      -2.791  14.468  21.764  0.00  0.00    +0.000 C 
ATOM      6  C   UNL     1      -3.162  13.379  20.698  0.00  0.00    +0.000 C 
ATOM      7  C   UNL     1      -2.191  12.442  19.990  0.00  0.00    +0.000 A 
ATOM      8  C   UNL     1      -0.801  12.252  20.041  0.00  0.00    +0.000 A 
ATOM      9  N   UNL     1      -0.572  11.061  19.351  0.00  0.00    +0.000 N 
ATOM     10  C   UNL     1       0.621  10.247  19.393  0.00  0.00    +0.000 C 
ATOM     11  C   UNL     1      -1.600  10.832  18.464  0.00  0.00    +0.000 A 
ATOM     12  C   UNL     1      -1.709   9.954  17.369  0.00  0.00    +0.000 A 
ATOM     13  C   UNL     1      -2.866  10.015  16.586  0.00  0.00    +0.000 A 
ATOM     14  C   UNL     1      -3.899  10.887  16.913  0.00  0.00    +0.000 A 
ATOM     15  C   UNL     1      -3.807  11.698  18.050  0.00  0.00    +0.000 A 
ATOM     16  C   UNL     1      -2.629  11.688  18.835  0.00  0.00    +0.000 A 
ATOM     17  C   UNL     1       0.276  13.079  20.607  0.00  0.00    +0.000 C 
ATOM     18  O   UNL     1       1.098  12.621  21.391  0.00  0.00    +0.000 OA
ATOM     19  C   UNL     1       0.369  14.559  20.106  0.00  0.00    +0.000 C 
ATOM     20  C   UNL     1      -0.956  15.246  20.367  0.00  0.00    +0.000 C 
ATOM     21  C   UNL     1      -1.394  15.058  21.823  0.00  0.00    +0.000 C 
ENDROOT
BRANCH   1  23
ATOM     22  C   UNL     1       0.152  18.003  18.602  0.00  0.00    +0.000 C 
ATOM     23  C   UNL     1      -1.149  17.223  18.671  0.00  0.00    +0.000 C 
ENDBRANCH   1  23
BRANCH  21  24
ATOM     24  C   UNL     1      -0.394  14.948  22.973  0.00  0.00    +0.000 C 
ATOM     25  O   UNL     1       0.595  15.662  23.064  0.00  0.00    +0.000 OA
BRANCH  24  26
ATOM     26  O   UNL     1      -0.956  14.303  24.037  0.00  0.00    +0.000 OA
ATOM     27  C   UNL     1      -1.371  15.201  25.072  0.00  0.00    +0.000 C 
ENDBRANCH  24  26
ENDBRANCH  21  24
TORSDOF 3
ENDMDL
MODEL 4
REMARK VINA RESULT:      -6.0      3.216      6.627
REMARK  Name = 
REMARK  7 active torsions:
REMARK  status: ('A' for Active; 'I' for Inactive)
REMARK    1  A    between atoms: C_1  and  C_2
REMARK    2  A    between atoms: C_2  and  C_3
REMARK    3  A    between atoms: N_5  and  C_6
REMARK    4  A    between atoms: N_11  and  C_12
REMARK    5  A    between atoms: C_23  and  C_24
REMARK    6  A    between atoms: C_24  and  O_26
REMARK    7  A    between atoms: O_26  and  C_27
REMARK                            x       y       z     vdW  Elec       q    Type
REMARK                         _______ _______ _______ _____ _____    ______ ____
ROOT
ATOM      1  C   UNL     1      -7.495  11.426  20.573  0.00  0.00    +0.000 C 
ATOM      2  C   UNL     1      -7.318  12.538  21.736  0.00  0.00    +0.000 C 
ATOM      3  N   UNL     1      -6.822  13.931  21.376  0.00  0.00    +0.000 NA
ATOM      4  C   UNL     1      -7.916  14.887  21.171  0.00  0.00    +0.000 C 
ATOM      5  C   UNL     1      -5.836  13.954  20.221  0.00  0.00    +0.000 C 
ATOM      6  C   UNL     1      -4.465  13.531  20.854  0.00  0.00    +0.000 C 
ATOM      7  C   UNL     1      -3.431  12.602  20.229  0.00  0.00    +0.000 A 
ATOM      8  C   UNL     1      -3.356  11.893  19.019  0.00  0.00    +0.000 A 
ATOM      9  N   UNL     1      -2.035  11.450  18.940  0.00  0.00    +0.000 N 
ATOM     10  C   UNL     1      -1.348  10.971  17.762  0.00  0.00    +0.000 C 
ATOM     11  C   UNL     1      -1.494  11.370  20.203  0.00  0.00    +0.000 A 
ATOM     12  C   UNL     1      -0.334  10.732  20.682  0.00  0.00    +0.000 A 
ATOM     13  C   UNL     1      -0.092  10.750  22.060  0.00  0.00    +0.000 A 
ATOM     14  C   UNL     1      -0.950  11.422  22.923  0.00  0.00    +0.000 A 
ATOM     15  C   UNL     1      -2.058  12.117  22.421  0.00  0.00    +0.000 A 
ATOM     16  C   UNL     1      -2.350  12.079  21.037  0.00  0.00    +0.000 A 
ATOM     17  C   UNL     1      -4.381  11.570  18.014  0.00  0.00    +0.000 C 
ATOM     18  O   UNL     1      -4.222  11.822  16.826  0.00  0.00    +0.000 OA
ATOM     19  C   UNL     1      -5.658  10.821  18.521  0.00  0.00    +0.000 C 
ATOM     20  C   UNL     1      -6.301  11.642  19.619  0.00  0.00    +0.000 C 
ATOM     21  C   UNL     1      -6.509  13.092  19.169  0.00  0.00    +0.000 C 
ENDROOT
BRANCH   1  23
ATOM     22  C   UNL     1      -7.535   8.869  20.100  0.00  0.00    +0.000 C 
ATOM     23  C   UNL     1      -7.692  10.001  21.100  0.00  0.00    +0.000 C 
ENDBRANCH   1  23
BRANCH  21  24
ATOM     24  C   UNL     1      -6.800  13.467  17.717  0.00  0.00    +0.000 C 
ATOM     25  O   UNL     1      -7.505  12.787  16.984  0.00  0.00    +0.000 OA
BRANCH  24  26
ATOM     26  O   UNL     1      -6.552  14.793  17.505  0.00  0.00    +0.000 OA
ATOM     27  C   UNL     1      -7.213  15.298  16.339  0.00  0.00    +0.000 C 
ENDBRANCH  24  26
ENDBRANCH  21  24
TORSDOF 3
ENDMDL
MODEL 5
REMARK VINA RESULT:      -6.0      2.723      4.672
REMARK  Name = 
REMARK  7 active torsions:
REMARK  status: ('A' for Active; 'I' for Inactive)
REMARK    1  A    between atoms: C_1  and  C_2
REMARK    2  A    between atoms: C_2  and  C_3
REMARK    3  A    between atoms: N_5  and  C_6
REMARK    4  A    between atoms: N_11  and  C_12
REMARK    5  A    between atoms: C_23  and  C_24
REMARK    6  A    between atoms: C_24  and  O_26
REMARK    7  A    between atoms: O_26  and  C_27
REMARK                            x       y       z     vdW  Elec       q    Type
REMARK                         _______ _______ _______ _____ _____    ______ ____
ROOT
ATOM      1  C   UNL     1      -0.717  15.535  20.353  0.00  0.00    +0.000 C 
ATOM      2  C   UNL     1      -1.720  15.788  21.598  0.00  0.00    +0.000 C 
ATOM      3  N   UNL     1      -1.956  14.678  22.611  0.00  0.00    +0.000 NA
ATOM      4  C   UNL     1      -1.092  14.793  23.792  0.00  0.00    +0.000 C 
ATOM      5  C   UNL     1      -1.907  13.280  22.018  0.00  0.00    +0.000 C 
ATOM      6  C   UNL     1      -3.307  13.082  21.339  0.00  0.00    +0.000 C 
ATOM      7  C   UNL     1      -3.570  12.413  19.995  0.00  0.00    +0.000 A 
ATOM      8  C   UNL     1      -2.754  11.815  19.022  0.00  0.00    +0.000 A 
ATOM      9  N   UNL     1      -3.637  11.158  18.163  0.00  0.00    +0.000 N 
ATOM     10  C   UNL     1      -3.311  10.126  17.204  0.00  0.00    +0.000 C 
ATOM     11  C   UNL     1      -4.878  11.749  18.228  0.00  0.00    +0.000 A 
ATOM     12  C   UNL     1      -6.001  11.656  17.385  0.00  0.00    +0.000 A 
ATOM     13  C   UNL     1      -7.107  12.464  17.667  0.00  0.00    +0.000 A 
ATOM     14  C   UNL     1      -7.112  13.300  18.778  0.00  0.00    +0.000 A 
ATOM     15  C   UNL     1      -6.016  13.323  19.650  0.00  0.00    +0.000 A 
ATOM     16  C   UNL     1      -4.866  12.548  19.365  0.00  0.00    +0.000 A 
ATOM     17  C   UNL     1      -1.299  11.853  18.814  0.00  0.00    +0.000 C 
ATOM     18  O   UNL     1      -0.637  10.829  18.692  0.00  0.00    +0.000 OA
ATOM     19  C   UNL     1      -0.640  13.266  18.681  0.00  0.00    +0.000 C 
ATOM     20  C   UNL     1      -0.972  14.076  19.916  0.00  0.00    +0.000 C 
ATOM     21  C   UNL     1      -0.634  13.297  21.191  0.00  0.00    +0.000 C 
ENDROOT
BRANCH   1  23
ATOM     22  C   UNL     1       0.444  16.861  18.441  0.00  0.00    +0.000 C 
ATOM     23  C   UNL     1      -0.812  16.598  19.253  0.00  0.00    +0.000 C 
ENDBRANCH   1  23
BRANCH  21  24
ATOM     24  C   UNL     1       0.526  12.306  21.264  0.00  0.00    +0.000 C 
ATOM     25  O   UNL     1       1.683  12.618  21.019  0.00  0.00    +0.000 OA
BRANCH  24  26
ATOM     26  O   UNL     1       0.184  11.221  22.019  0.00  0.00    +0.000 OA
ATOM     27  C   UNL     1       0.896  10.038  21.641  0.00  0.00    +0.000 C 
ENDBRANCH  24  26
ENDBRANCH  21  24
TORSDOF 3
ENDMDL
MODEL 6
REMARK VINA RESULT:      -5.9      3.363      6.434
REMARK  Name = 
REMARK  7 active torsions:
REMARK  status: ('A' for Active; 'I' for Inactive)
REMARK    1  A    between atoms: C_1  and  C_2
REMARK    2  A    between atoms: C_2  and  C_3
REMARK    3  A    between atoms: N_5  and  C_6
REMARK    4  A    between atoms: N_11  and  C_12
REMARK    5  A    between atoms: C_23  and  C_24
REMARK    6  A    between atoms: C_24  and  O_26
REMARK    7  A    between atoms: O_26  and  C_27
REMARK                            x       y       z     vdW  Elec       q    Type
REMARK                         _______ _______ _______ _____ _____    ______ ____
ROOT
ATOM      1  C   UNL     1      -1.345  10.935  18.755  0.00  0.00    +0.000 C 
ATOM      2  C   UNL     1       0.104  10.250  18.527  0.00  0.00    +0.000 C 
ATOM      3  N   UNL     1       1.094  10.183  19.680  0.00  0.00    +0.000 NA
ATOM      4  C   UNL     1       1.040   8.906  20.402  0.00  0.00    +0.000 C 
ATOM      5  C   UNL     1       1.014  11.365  20.631  0.00  0.00    +0.000 C 
ATOM      6  C   UNL     1       1.796  12.517  19.907  0.00  0.00    +0.000 C 
ATOM      7  C   UNL     1       1.393  13.985  19.856  0.00  0.00    +0.000 A 
ATOM      8  C   UNL     1       0.319  14.725  20.375  0.00  0.00    +0.000 A 
ATOM      9  N   UNL     1       0.682  16.062  20.199  0.00  0.00    +0.000 N 
ATOM     10  C   UNL     1       0.098  17.213  20.851  0.00  0.00    +0.000 C 
ATOM     11  C   UNL     1       1.587  16.168  19.169  0.00  0.00    +0.000 A 
ATOM     12  C   UNL     1       2.033  17.280  18.429  0.00  0.00    +0.000 A 
ATOM     13  C   UNL     1       2.907  17.054  17.361  0.00  0.00    +0.000 A 
ATOM     14  C   UNL     1       3.360  15.772  17.071  0.00  0.00    +0.000 A 
ATOM     15  C   UNL     1       2.967  14.687  17.865  0.00  0.00    +0.000 A 
ATOM     16  C   UNL     1       2.049  14.880  18.925  0.00  0.00    +0.000 A 
ATOM     17  C   UNL     1      -0.971  14.303  20.941  0.00  0.00    +0.000 C 
ATOM     18  O   UNL     1      -1.355  14.695  22.037  0.00  0.00    +0.000 OA
ATOM     19  C   UNL     1      -1.870  13.385  20.048  0.00  0.00    +0.000 C 
ATOM     20  C   UNL     1      -1.080  12.149  19.671  0.00  0.00    +0.000 C 
ATOM     21  C   UNL     1      -0.472  11.487  20.912  0.00  0.00    +0.000 C 
ENDROOT
BRANCH   1  23
ATOM     22  C   UNL     1      -2.475  10.021  16.598  0.00  0.00    +0.000 C 
ATOM     23  C   UNL     1      -2.110  11.218  17.458  0.00  0.00    +0.000 C 
ENDBRANCH   1  23
BRANCH  21  24
ATOM     24  C   UNL     1      -1.152  11.526  22.279  0.00  0.00    +0.000 C 
ATOM     25  O   UNL     1      -2.365  11.611  22.415  0.00  0.00    +0.000 OA
BRANCH  24  26
ATOM     26  O   UNL     1      -0.320  11.034  23.243  0.00  0.00    +0.000 OA
ATOM     27  C   UNL     1      -0.454   9.620  23.421  0.00  0.00    +0.000 C 
ENDBRANCH  24  26
ENDBRANCH  21  24
TORSDOF 3
ENDMDL
MODEL 7
REMARK VINA RESULT:      -5.9      1.596      2.335
REMARK  Name = 
REMARK  7 active torsions:
REMARK  status: ('A' for Active; 'I' for Inactive)
REMARK    1  A    between atoms: C_1  and  C_2
REMARK    2  A    between atoms: C_2  and  C_3
REMARK    3  A    between atoms: N_5  and  C_6
REMARK    4  A    between atoms: N_11  and  C_12
REMARK    5  A    between atoms: C_23  and  C_24
REMARK    6  A    between atoms: C_24  and  O_26
REMARK    7  A    between atoms: O_26  and  C_27
REMARK                            x       y       z     vdW  Elec       q    Type
REMARK                         _______ _______ _______ _____ _____    ______ ____
ROOT
ATOM      1  C   UNL     1      -0.235  11.079  21.828  0.00  0.00    +0.000 C 
ATOM      2  C   UNL     1      -0.480  10.813  20.250  0.00  0.00    +0.000 C 
ATOM      3  N   UNL     1      -0.604  11.993  19.298  0.00  0.00    +0.000 NA
ATOM      4  C   UNL     1       0.666  12.330  18.644  0.00  0.00    +0.000 C 
ATOM      5  C   UNL     1      -1.255  13.218  19.917  0.00  0.00    +0.000 C 
ATOM      6  C   UNL     1      -2.794  12.916  19.885  0.00  0.00    +0.000 C 
ATOM      7  C   UNL     1      -3.797  13.228  20.988  0.00  0.00    +0.000 A 
ATOM      8  C   UNL     1      -3.705  13.824  22.256  0.00  0.00    +0.000 A 
ATOM      9  N   UNL     1      -5.026  14.056  22.645  0.00  0.00    +0.000 N 
ATOM     10  C   UNL     1      -5.480  14.937  23.696  0.00  0.00    +0.000 C 
ATOM     11  C   UNL     1      -5.864  13.185  21.987  0.00  0.00    +0.000 A 
ATOM     12  C   UNL     1      -7.205  12.824  22.223  0.00  0.00    +0.000 A 
ATOM     13  C   UNL     1      -7.769  11.824  21.424  0.00  0.00    +0.000 A 
ATOM     14  C   UNL     1      -7.038  11.240  20.395  0.00  0.00    +0.000 A 
ATOM     15  C   UNL     1      -5.732  11.666  20.125  0.00  0.00    +0.000 A 
ATOM     16  C   UNL     1      -5.121  12.645  20.945  0.00  0.00    +0.000 A 
ATOM     17  C   UNL     1      -2.545  14.127  23.108  0.00  0.00    +0.000 C 
ATOM     18  O   UNL     1      -2.358  15.246  23.571  0.00  0.00    +0.000 OA
ATOM     19  C   UNL     1      -1.594  12.935  23.459  0.00  0.00    +0.000 C 
ATOM     20  C   UNL     1      -1.097  12.312  22.170  0.00  0.00    +0.000 C 
ATOM     21  C   UNL     1      -0.518  13.378  21.234  0.00  0.00    +0.000 C 
ENDROOT
BRANCH   1  23
ATOM     22  C   UNL     1      -0.476   8.495  22.004  0.00  0.00    +0.000 C 
ATOM     23  C   UNL     1      -0.443   9.841  22.707  0.00  0.00    +0.000 C 
ENDBRANCH   1  23
BRANCH  21  24
ATOM     24  C   UNL     1       0.184  14.631  21.753  0.00  0.00    +0.000 C 
ATOM     25  O   UNL     1       1.214  14.592  22.411  0.00  0.00    +0.000 OA
BRANCH  24  26
ATOM     26  O   UNL     1      -0.217  15.732  21.050  0.00  0.00    +0.000 OA
ATOM     27  C   UNL     1       0.844  16.318  20.288  0.00  0.00    +0.000 C 
ENDBRANCH  24  26
ENDBRANCH  21  24
TORSDOF 3
ENDMDL
MODEL 8
REMARK VINA RESULT:      -5.8      1.189      1.377
REMARK  Name = 
REMARK  7 active torsions:
REMARK  status: ('A' for Active; 'I' for Inactive)
REMARK    1  A    between atoms: C_1  and  C_2
REMARK    2  A    between atoms: C_2  and  C_3
REMARK    3  A    between atoms: N_5  and  C_6
REMARK    4  A    between atoms: N_11  and  C_12
REMARK    5  A    between atoms: C_23  and  C_24
REMARK    6  A    between atoms: C_24  and  O_26
REMARK    7  A    between atoms: O_26  and  C_27
REMARK                            x       y       z     vdW  Elec       q    Type
REMARK                         _______ _______ _______ _____ _____    ______ ____
ROOT
ATOM      1  C   UNL     1      -1.170  12.471  23.044  0.00  0.00    +0.000 C 
ATOM      2  C   UNL     1      -0.663  13.135  21.658  0.00  0.00    +0.000 C 
ATOM      3  N   UNL     1      -1.167  14.513  21.255  0.00  0.00    +0.000 NA
ATOM      4  C   UNL     1      -0.252  15.590  21.650  0.00  0.00    +0.000 C 
ATOM      5  C   UNL     1      -2.592  14.801  21.695  0.00  0.00    +0.000 C 
ATOM      6  C   UNL     1      -3.495  14.064  20.645  0.00  0.00    +0.000 C 
ATOM      7  C   UNL     1      -4.768  13.282  20.943  0.00  0.00    +0.000 A 
ATOM      8  C   UNL     1      -5.486  12.987  22.112  0.00  0.00    +0.000 A 
ATOM      9  N   UNL     1      -6.702  12.462  21.669  0.00  0.00    +0.000 N 
ATOM     10  C   UNL     1      -7.916  12.313  22.439  0.00  0.00    +0.000 C 
ATOM     11  C   UNL     1      -6.548  11.933  20.408  0.00  0.00    +0.000 A 
ATOM     12  C   UNL     1      -7.361  11.063  19.656  0.00  0.00    +0.000 A 
ATOM     13  C   UNL     1      -6.885  10.621  18.418  0.00  0.00    +0.000 A 
ATOM     14  C   UNL     1      -5.664  11.068  17.925  0.00  0.00    +0.000 A 
ATOM     15  C   UNL     1      -4.904  11.993  18.651  0.00  0.00    +0.000 A 
ATOM     16  C   UNL     1      -5.341  12.424  19.927  0.00  0.00    +0.000 A 
ATOM     17  C   UNL     1      -5.124  13.102  23.533  0.00  0.00    +0.000 C 
ATOM     18  O   UNL     1      -5.833  13.699  24.334  0.00  0.00    +0.000 OA
ATOM     19  C   UNL     1      -3.823  12.364  23.994  0.00  0.00    +0.000 C 
ATOM     20  C   UNL     1      -2.661  12.856  23.157  0.00  0.00    +0.000 C 
ATOM     21  C   UNL     1      -2.597  14.387  23.155  0.00  0.00    +0.000 C 
ENDROOT
BRANCH   1  23
ATOM     22  C   UNL     1      -0.352  10.270  21.925  0.00  0.00    +0.000 C 
ATOM     23  C   UNL     1      -0.845  10.979  23.175  0.00  0.00    +0.000 C 
ENDBRANCH   1  23
BRANCH  21  24
ATOM     24  C   UNL     1      -3.038  15.228  24.351  0.00  0.00    +0.000 C 
ATOM     25  O   UNL     1      -3.998  15.986  24.313  0.00  0.00    +0.000 OA
BRANCH  24  26
ATOM     26  O   UNL     1      -2.530  14.718  25.511  0.00  0.00    +0.000 OA
ATOM     27  C   UNL     1      -1.477  15.523  26.054  0.00  0.00    +0.000 C 
ENDBRANCH  24  26
ENDBRANCH  21  24
TORSDOF 3
ENDMDL
MODEL 9
REMARK VINA RESULT:      -5.7      3.071      6.230
REMARK  Name = 
REMARK  7 active torsions:
REMARK  status: ('A' for Active; 'I' for Inactive)
REMARK    1  A    between atoms: C_1  and  C_2
REMARK    2  A    between atoms: C_2  and  C_3
REMARK    3  A    between atoms: N_5  and  C_6
REMARK    4  A    between atoms: N_11  and  C_12
REMARK    5  A    between atoms: C_23  and  C_24
REMARK    6  A    between atoms: C_24  and  O_26
REMARK    7  A    between atoms: O_26  and  C_27
REMARK                            x       y       z     vdW  Elec       q    Type
REMARK                         _______ _______ _______ _____ _____    ______ ____
ROOT
ATOM      1  C   UNL     1      -1.497  11.019  18.969  0.00  0.00    +0.000 C 
ATOM      2  C   UNL     1      -0.073  10.262  18.829  0.00  0.00    +0.000 C 
ATOM      3  N   UNL     1       0.881  10.228  20.014  0.00  0.00    +0.000 NA
ATOM      4  C   UNL     1       0.752   9.003  20.812  0.00  0.00    +0.000 C 
ATOM      5  C   UNL     1       0.826  11.471  20.886  0.00  0.00    +0.000 C 
ATOM      6  C   UNL     1       1.676  12.540  20.116  0.00  0.00    +0.000 C 
ATOM      7  C   UNL     1       1.339  14.018  19.960  0.00  0.00    +0.000 A 
ATOM      8  C   UNL     1       0.283  14.833  20.399  0.00  0.00    +0.000 A 
ATOM      9  N   UNL     1       0.707  16.140  20.151  0.00  0.00    +0.000 N 
ATOM     10  C   UNL     1       0.156  17.353  20.711  0.00  0.00    +0.000 C 
ATOM     11  C   UNL     1       1.645  16.142  19.145  0.00  0.00    +0.000 A 
ATOM     12  C   UNL     1       2.159  17.186  18.351  0.00  0.00    +0.000 A 
ATOM     13  C   UNL     1       3.052  16.857  17.326  0.00  0.00    +0.000 A 
ATOM     14  C   UNL     1       3.457  15.541  17.131  0.00  0.00    +0.000 A 
ATOM     15  C   UNL     1       2.996  14.526  17.979  0.00  0.00    +0.000 A 
ATOM     16  C   UNL     1       2.058  14.824  18.996  0.00  0.00    +0.000 A 
ATOM     17  C   UNL     1      -1.040  14.502  20.951  0.00  0.00    +0.000 C 
ATOM     18  O   UNL     1      -1.436  14.978  22.007  0.00  0.00    +0.000 OA
ATOM     19  C   UNL     1      -1.952  13.566  20.089  0.00  0.00    +0.000 C 
ATOM     20  C   UNL     1      -1.206  12.277  19.815  0.00  0.00    +0.000 C 
ATOM     21  C   UNL     1      -0.661  11.672  21.113  0.00  0.00    +0.000 C 
ENDROOT
BRANCH   1  23
ATOM     22  C   UNL     1      -2.728  10.021  16.907  0.00  0.00    +0.000 C 
ATOM     23  C   UNL     1      -2.212  11.250  17.634  0.00  0.00    +0.000 C 
ENDBRANCH   1  23
BRANCH  21  24
ATOM     24  C   UNL     1      -1.377  11.825  22.453  0.00  0.00    +0.000 C 
ATOM     25  O   UNL     1      -0.811  12.200  23.470  0.00  0.00    +0.000 OA
BRANCH  24  26
ATOM     26  O   UNL     1      -2.728  11.913  22.269  0.00  0.00    +0.000 OA
ATOM     27  C   UNL     1      -3.416  12.377  23.436  0.00  0.00    +0.000 C 
ENDBRANCH  24  26
ENDBRANCH  21  24
TORSDOF 3
ENDMDL
