MODEL 1
REMARK VINA RESULT:      -6.9      0.000      0.000
REMARK  Name = 
REMARK  8 active torsions:
REMARK  status: ('A' for Active; 'I' for Inactive)
REMARK    1  A    between atoms: C_1  and  C_2
REMARK    2  A    between atoms: C_2  and  N_3
REMARK    3  A    between atoms: C_8  and  O_9
REMARK    4  A    between atoms: O_9  and  C_10
REMARK    5  A    between atoms: N_17  and  C_18
REMARK    6  A    between atoms: C_18  and  C_19
REMARK    7  A    between atoms: C_19  and  S_20
REMARK    8  A    between atoms: S_20  and  C_21
REMARK                            x       y       z     vdW  Elec       q    Type
REMARK                         _______ _______ _______ _____ _____    ______ ____
ROOT
ATOM      1  N   UNL     1       7.371   6.701  16.944  0.00  0.00    +0.000 NA
ATOM      2  C   UNL     1       6.474   5.878  17.374  0.00  0.00    +0.000 A 
ATOM      3  S   UNL     1       6.145   5.598  19.106  0.00  0.00    +0.000 S 
ATOM      4  C   UNL     1       4.848   4.470  18.701  0.00  0.00    +0.000 A 
ATOM      5  C   UNL     1       4.046   3.807  19.614  0.00  0.00    +0.000 A 
ATOM      6  C   UNL     1       3.064   2.944  19.145  0.00  0.00    +0.000 A 
ATOM      7  C   UNL     1       2.875   2.814  17.765  0.00  0.00    +0.000 A 
ATOM      8  C   UNL     1       3.705   3.494  16.849  0.00  0.00    +0.000 A 
ATOM      9  C   UNL     1       4.714   4.334  17.308  0.00  0.00    +0.000 A 
ATOM     10  N   UNL     1       5.642   5.090  16.579  0.00  0.00    +0.000 N 
ENDROOT
BRANCH   1  12
ATOM     11  C   UNL     1       7.955   8.925  17.729  0.00  0.00    +0.000 C 
ATOM     12  C   UNL     1       8.175   7.436  17.920  0.00  0.00    +0.000 C 
ENDBRANCH   1  12
BRANCH   6  13
ATOM     13  O   UNL     1       2.321   2.359  20.122  0.00  0.00    +0.000 OA
BRANCH  13  14
ATOM     14  C   UNL     1       1.130   2.983  20.575  0.00  0.00    +0.000 C 
ATOM     15  F   UNL     1       1.197   4.328  20.637  0.00  0.00    +0.000 F 
ATOM     16  F   UNL     1       0.124   2.657  19.730  0.00  0.00    +0.000 F 
ATOM     17  F   UNL     1       0.818   2.505  21.799  0.00  0.00    +0.000 F 
ENDBRANCH  13  14
ENDBRANCH   6  13
BRANCH  10  18
ATOM     18  C   UNL     1       5.650   5.174  15.115  0.00  0.00    +0.000 C 
BRANCH  18  19
ATOM     19  C   UNL     1       6.254   3.913  14.479  0.00  0.00    +0.000 C 
BRANCH  19  20
ATOM     20  S   UNL     1       6.712   4.192  12.731  0.00  0.00    +0.000 S 
ATOM     21  C   UNL     1       5.617   2.964  11.970  0.00  0.00    +0.000 C 
ENDBRANCH  19  20
ENDBRANCH  18  19
ENDBRANCH  10  18
TORSDOF 6
ENDMDL
MODEL 2
REMARK VINA RESULT:      -6.6      4.808      6.927
REMARK  Name = 
REMARK  8 active torsions:
REMARK  status: ('A' for Active; 'I' for Inactive)
REMARK    1  A    between atoms: C_1  and  C_2
REMARK    2  A    between atoms: C_2  and  N_3
REMARK    3  A    between atoms: C_8  and  O_9
REMARK    4  A    between atoms: O_9  and  C_10
REMARK    5  A    between atoms: N_17  and  C_18
REMARK    6  A    between atoms: C_18  and  C_19
REMARK    7  A    between atoms: C_19  and  S_20
REMARK    8  A    between atoms: S_20  and  C_21
REMARK                            x       y       z     vdW  Elec       q    Type
REMARK                         _______ _______ _______ _____ _____    ______ ____
ROOT
ATOM      1  N   UNL     1       2.754   5.044  20.036  0.00  0.00    +0.000 NA
ATOM      2  C   UNL     1       3.447   4.908  18.955  0.00  0.00    +0.000 A 
ATOM      3  S   UNL     1       3.974   3.325  18.317  0.00  0.00    +0.000 S 
ATOM      4  C   UNL     1       4.724   4.111  16.924  0.00  0.00    +0.000 A 
ATOM      5  C   UNL     1       5.372   3.461  15.888  0.00  0.00    +0.000 A 
ATOM      6  C   UNL     1       5.918   4.216  14.857  0.00  0.00    +0.000 A 
ATOM      7  C   UNL     1       5.746   5.604  14.866  0.00  0.00    +0.000 A 
ATOM      8  C   UNL     1       5.087   6.250  15.934  0.00  0.00    +0.000 A 
ATOM      9  C   UNL     1       4.567   5.507  16.987  0.00  0.00    +0.000 A 
ATOM     10  N   UNL     1       3.889   5.944  18.133  0.00  0.00    +0.000 N 
ENDROOT
BRANCH   1  12
ATOM     11  C   UNL     1       0.944   3.489  20.500  0.00  0.00    +0.000 C 
ATOM     12  C   UNL     1       2.390   3.845  20.792  0.00  0.00    +0.000 C 
ENDBRANCH   1  12
BRANCH   6  13
ATOM     13  O   UNL     1       6.515   3.480  13.882  0.00  0.00    +0.000 OA
BRANCH  13  14
ATOM     14  C   UNL     1       5.960   3.451  12.577  0.00  0.00    +0.000 C 
ATOM     15  F   UNL     1       5.979   2.237  11.992  0.00  0.00    +0.000 F 
ATOM     16  F   UNL     1       4.670   3.855  12.647  0.00  0.00    +0.000 F 
ATOM     17  F   UNL     1       6.629   4.324  11.793  0.00  0.00    +0.000 F 
ENDBRANCH  13  14
ENDBRANCH   6  13
BRANCH  10  18
ATOM     18  C   UNL     1       3.536   7.345  18.384  0.00  0.00    +0.000 C 
BRANCH  18  19
ATOM     19  C   UNL     1       2.154   7.691  17.807  0.00  0.00    +0.000 C 
BRANCH  19  20
ATOM     20  S   UNL     1       1.772   9.470  17.995  0.00  0.00    +0.000 S 
ATOM     21  C   UNL     1       0.982   9.401  19.626  0.00  0.00    +0.000 C 
ENDBRANCH  19  20
ENDBRANCH  18  19
ENDBRANCH  10  18
TORSDOF 6
ENDMDL
MODEL 3
REMARK VINA RESULT:      -6.5      4.886      6.606
REMARK  Name = 
REMARK  8 active torsions:
REMARK  status: ('A' for Active; 'I' for Inactive)
REMARK    1  A    between atoms: C_1  and  C_2
REMARK    2  A    between atoms: C_2  and  N_3
REMARK    3  A    between atoms: C_8  and  O_9
REMARK    4  A    between atoms: O_9  and  C_10
REMARK    5  A    between atoms: N_17  and  C_18
REMARK    6  A    between atoms: C_18  and  C_19
REMARK    7  A    between atoms: C_19  and  S_20
REMARK    8  A    between atoms: S_20  and  C_21
REMARK                            x       y       z     vdW  Elec       q    Type
REMARK                         _______ _______ _______ _____ _____    ______ ____
ROOT
ATOM      1  N   UNL     1       1.393   7.902  20.345  0.00  0.00    +0.000 NA
ATOM      2  C   UNL     1       2.215   7.365  19.507  0.00  0.00    +0.000 A 
ATOM      3  S   UNL     1       2.816   8.200  18.047  0.00  0.00    +0.000 S 
ATOM      4  C   UNL     1       3.822   6.807  17.637  0.00  0.00    +0.000 A 
ATOM      5  C   UNL     1       4.668   6.721  16.545  0.00  0.00    +0.000 A 
ATOM      6  C   UNL     1       5.399   5.555  16.350  0.00  0.00    +0.000 A 
ATOM      7  C   UNL     1       5.302   4.526  17.292  0.00  0.00    +0.000 A 
ATOM      8  C   UNL     1       4.430   4.630  18.397  0.00  0.00    +0.000 A 
ATOM      9  C   UNL     1       3.670   5.778  18.583  0.00  0.00    +0.000 A 
ATOM     10  N   UNL     1       2.750   6.081  19.597  0.00  0.00    +0.000 N 
ENDROOT
BRANCH   1  12
ATOM     11  C   UNL     1       0.134   9.753  21.291  0.00  0.00    +0.000 C 
ATOM     12  C   UNL     1       0.912   9.259  20.085  0.00  0.00    +0.000 C 
ENDBRANCH   1  12
BRANCH   6  13
ATOM     13  O   UNL     1       6.211   5.582  15.260  0.00  0.00    +0.000 OA
BRANCH  13  14
ATOM     14  C   UNL     1       6.209   4.494  14.348  0.00  0.00    +0.000 C 
ATOM     15  F   UNL     1       5.001   4.220  13.815  0.00  0.00    +0.000 F 
ATOM     16  F   UNL     1       7.054   4.782  13.332  0.00  0.00    +0.000 F 
ATOM     17  F   UNL     1       6.669   3.391  14.976  0.00  0.00    +0.000 F 
ENDBRANCH  13  14
ENDBRANCH   6  13
BRANCH  10  18
ATOM     18  C   UNL     1       2.480   5.200  20.738  0.00  0.00    +0.000 C 
BRANCH  18  19
ATOM     19  C   UNL     1       1.239   4.327  20.497  0.00  0.00    +0.000 C 
BRANCH  19  20
ATOM     20  S   UNL     1       1.680   2.560  20.327  0.00  0.00    +0.000 S 
ATOM     21  C   UNL     1       1.119   2.309  18.622  0.00  0.00    +0.000 C 
ENDBRANCH  19  20
ENDBRANCH  18  19
ENDBRANCH  10  18
TORSDOF 6
ENDMDL
MODEL 4
REMARK VINA RESULT:      -6.3      4.803      6.990
REMARK  Name = 
REMARK  8 active torsions:
REMARK  status: ('A' for Active; 'I' for Inactive)
REMARK    1  A    between atoms: C_1  and  C_2
REMARK    2  A    between atoms: C_2  and  N_3
REMARK    3  A    between atoms: C_8  and  O_9
REMARK    4  A    between atoms: O_9  and  C_10
REMARK    5  A    between atoms: N_17  and  C_18
REMARK    6  A    between atoms: C_18  and  C_19
REMARK    7  A    between atoms: C_19  and  S_20
REMARK    8  A    between atoms: S_20  and  C_21
REMARK                            x       y       z     vdW  Elec       q    Type
REMARK                         _______ _______ _______ _____ _____    ______ ____
ROOT
ATOM      1  N   UNL     1       1.601   4.464  19.739  0.00  0.00    +0.000 NA
ATOM      2  C   UNL     1       2.523   4.519  18.837  0.00  0.00    +0.000 A 
ATOM      3  S   UNL     1       3.126   3.087  17.958  0.00  0.00    +0.000 S 
ATOM      4  C   UNL     1       4.211   4.103  17.003  0.00  0.00    +0.000 A 
ATOM      5  C   UNL     1       5.060   3.655  16.006  0.00  0.00    +0.000 A 
ATOM      6  C   UNL     1       5.860   4.575  15.339  0.00  0.00    +0.000 A 
ATOM      7  C   UNL     1       5.743   5.933  15.655  0.00  0.00    +0.000 A 
ATOM      8  C   UNL     1       4.875   6.370  16.678  0.00  0.00    +0.000 A 
ATOM      9  C   UNL     1       4.095   5.454  17.374  0.00  0.00    +0.000 A 
ATOM     10  N   UNL     1       3.183   5.673  18.416  0.00  0.00    +0.000 N 
ENDROOT
BRANCH   1  12
ATOM     11  C   UNL     1       1.335   2.838  21.526  0.00  0.00    +0.000 C 
ATOM     12  C   UNL     1       1.026   3.162  20.076  0.00  0.00    +0.000 C 
ENDBRANCH   1  12
BRANCH   6  13
ATOM     13  O   UNL     1       6.642   4.034  14.368  0.00  0.00    +0.000 OA
BRANCH  13  14
ATOM     14  C   UNL     1       6.096   3.770  13.085  0.00  0.00    +0.000 C 
ATOM     15  F   UNL     1       4.834   4.213  12.917  0.00  0.00    +0.000 F 
ATOM     16  F   UNL     1       6.872   4.371  12.153  0.00  0.00    +0.000 F 
ATOM     17  F   UNL     1       6.124   2.439  12.857  0.00  0.00    +0.000 F 
ENDBRANCH  13  14
ENDBRANCH   6  13
BRANCH  10  18
ATOM     18  C   UNL     1       2.833   7.004  18.922  0.00  0.00    +0.000 C 
BRANCH  18  19
ATOM     19  C   UNL     1       2.103   7.840  17.859  0.00  0.00    +0.000 C 
BRANCH  19  20
ATOM     20  S   UNL     1       1.218   9.256  18.605  0.00  0.00    +0.000 S 
ATOM     21  C   UNL     1       2.256  10.591  17.952  0.00  0.00    +0.000 C 
ENDBRANCH  19  20
ENDBRANCH  18  19
ENDBRANCH  10  18
TORSDOF 6
ENDMDL
MODEL 5
REMARK VINA RESULT:      -6.3      4.722      7.034
REMARK  Name = 
REMARK  8 active torsions:
REMARK  status: ('A' for Active; 'I' for Inactive)
REMARK    1  A    between atoms: C_1  and  C_2
REMARK    2  A    between atoms: C_2  and  N_3
REMARK    3  A    between atoms: C_8  and  O_9
REMARK    4  A    between atoms: O_9  and  C_10
REMARK    5  A    between atoms: N_17  and  C_18
REMARK    6  A    between atoms: C_18  and  C_19
REMARK    7  A    between atoms: C_19  and  S_20
REMARK    8  A    between atoms: S_20  and  C_21
REMARK                            x       y       z     vdW  Elec       q    Type
REMARK                         _______ _______ _______ _____ _____    ______ ____
ROOT
ATOM      1  N   UNL     1       2.717   4.101  19.865  0.00  0.00    +0.000 NA
ATOM      2  C   UNL     1       3.449   4.160  18.803  0.00  0.00    +0.000 A 
ATOM      3  S   UNL     1       3.953   2.721  17.874  0.00  0.00    +0.000 S 
ATOM      4  C   UNL     1       4.783   3.743  16.697  0.00  0.00    +0.000 A 
ATOM      5  C   UNL     1       5.452   3.292  15.572  0.00  0.00    +0.000 A 
ATOM      6  C   UNL     1       6.063   4.219  14.736  0.00  0.00    +0.000 A 
ATOM      7  C   UNL     1       5.934   5.582  15.022  0.00  0.00    +0.000 A 
ATOM      8  C   UNL     1       5.252   6.023  16.176  0.00  0.00    +0.000 A 
ATOM      9  C   UNL     1       4.667   5.102  17.038  0.00  0.00    +0.000 A 
ATOM     10  N   UNL     1       3.956   5.324  18.225  0.00  0.00    +0.000 N 
ENDROOT
BRANCH   1  12
ATOM     11  C   UNL     1       1.449   2.967  21.601  0.00  0.00    +0.000 C 
ATOM     12  C   UNL     1       2.286   2.789  20.348  0.00  0.00    +0.000 C 
ENDBRANCH   1  12
BRANCH   6  13
ATOM     13  O   UNL     1       6.676   3.673  13.652  0.00  0.00    +0.000 OA
BRANCH  13  14
ATOM     14  C   UNL     1       5.958   3.513  12.439  0.00  0.00    +0.000 C 
ATOM     15  F   UNL     1       4.692   3.974  12.478  0.00  0.00    +0.000 F 
ATOM     16  F   UNL     1       6.612   4.180  11.460  0.00  0.00    +0.000 F 
ATOM     17  F   UNL     1       5.935   2.204  12.108  0.00  0.00    +0.000 F 
ENDBRANCH  13  14
ENDBRANCH   6  13
BRANCH  10  18
ATOM     18  C   UNL     1       3.636   6.657  18.744  0.00  0.00    +0.000 C 
BRANCH  18  19
ATOM     19  C   UNL     1       2.327   7.198  18.146  0.00  0.00    +0.000 C 
BRANCH  19  20
ATOM     20  S   UNL     1       1.793   8.738  18.976  0.00  0.00    +0.000 S 
ATOM     21  C   UNL     1       1.575   8.076  20.649  0.00  0.00    +0.000 C 
ENDBRANCH  19  20
ENDBRANCH  18  19
ENDBRANCH  10  18
TORSDOF 6
ENDMDL
MODEL 6
REMARK VINA RESULT:      -6.3      4.879      6.616
REMARK  Name = 
REMARK  8 active torsions:
REMARK  status: ('A' for Active; 'I' for Inactive)
REMARK    1  A    between atoms: C_1  and  C_2
REMARK    2  A    between atoms: C_2  and  N_3
REMARK    3  A    between atoms: C_8  and  O_9
REMARK    4  A    between atoms: O_9  and  C_10
REMARK    5  A    between atoms: N_17  and  C_18
REMARK    6  A    between atoms: C_18  and  C_19
REMARK    7  A    between atoms: C_19  and  S_20
REMARK    8  A    between atoms: S_20  and  C_21
REMARK                            x       y       z     vdW  Elec       q    Type
REMARK                         _______ _______ _______ _____ _____    ______ ____
ROOT
ATOM      1  N   UNL     1       1.508   7.433  20.634  0.00  0.00    +0.000 NA
ATOM      2  C   UNL     1       2.278   7.029  19.681  0.00  0.00    +0.000 A 
ATOM      3  S   UNL     1       2.782   8.064  18.316  0.00  0.00    +0.000 S 
ATOM      4  C   UNL     1       3.768   6.755  17.657  0.00  0.00    +0.000 A 
ATOM      5  C   UNL     1       4.544   6.831  16.513  0.00  0.00    +0.000 A 
ATOM      6  C   UNL     1       5.266   5.713  16.114  0.00  0.00    +0.000 A 
ATOM      7  C   UNL     1       5.234   4.563  16.909  0.00  0.00    +0.000 A 
ATOM      8  C   UNL     1       4.433   4.502  18.069  0.00  0.00    +0.000 A 
ATOM      9  C   UNL     1       3.680   5.604  18.459  0.00  0.00    +0.000 A 
ATOM     10  N   UNL     1       2.825   5.751  19.560  0.00  0.00    +0.000 N 
ENDROOT
BRANCH   1  12
ATOM     11  C   UNL     1       0.969   9.367  22.004  0.00  0.00    +0.000 C 
ATOM     12  C   UNL     1       1.005   8.807  20.595  0.00  0.00    +0.000 C 
ENDBRANCH   1  12
BRANCH   6  13
ATOM     13  O   UNL     1       6.008   5.901  14.990  0.00  0.00    +0.000 OA
BRANCH  13  14
ATOM     14  C   UNL     1       6.604   4.788  14.342  0.00  0.00    +0.000 C 
ATOM     15  F   UNL     1       7.405   5.112  13.308  0.00  0.00    +0.000 F 
ATOM     16  F   UNL     1       7.348   4.109  15.246  0.00  0.00    +0.000 F 
ATOM     17  F   UNL     1       5.631   3.963  13.898  0.00  0.00    +0.000 F 
ENDBRANCH  13  14
ENDBRANCH   6  13
BRANCH  10  18
ATOM     18  C   UNL     1       2.631   4.718  20.583  0.00  0.00    +0.000 C 
BRANCH  18  19
ATOM     19  C   UNL     1       1.222   4.110  20.513  0.00  0.00    +0.000 C 
BRANCH  19  20
ATOM     20  S   UNL     1       0.976   3.154  18.974  0.00  0.00    +0.000 S 
ATOM     21  C   UNL     1       2.253   1.894  19.238  0.00  0.00    +0.000 C 
ENDBRANCH  19  20
ENDBRANCH  18  19
ENDBRANCH  10  18
TORSDOF 6
ENDMDL
MODEL 7
REMARK VINA RESULT:      -6.2      4.977      6.783
REMARK  Name = 
REMARK  8 active torsions:
REMARK  status: ('A' for Active; 'I' for Inactive)
REMARK    1  A    between atoms: C_1  and  C_2
REMARK    2  A    between atoms: C_2  and  N_3
REMARK    3  A    between atoms: C_8  and  O_9
REMARK    4  A    between atoms: O_9  and  C_10
REMARK    5  A    between atoms: N_17  and  C_18
REMARK    6  A    between atoms: C_18  and  C_19
REMARK    7  A    between atoms: C_19  and  S_20
REMARK    8  A    between atoms: S_20  and  C_21
REMARK                            x       y       z     vdW  Elec       q    Type
REMARK                         _______ _______ _______ _____ _____    ______ ____
ROOT
ATOM      1  N   UNL     1       1.369   7.894  20.484  0.00  0.00    +0.000 NA
ATOM      2  C   UNL     1       2.149   7.418  19.573  0.00  0.00    +0.000 A 
ATOM      3  S   UNL     1       2.702   8.358  18.159  0.00  0.00    +0.000 S 
ATOM      4  C   UNL     1       3.671   6.992  17.600  0.00  0.00    +0.000 A 
ATOM      5  C   UNL     1       4.471   6.984  16.470  0.00  0.00    +0.000 A 
ATOM      6  C   UNL     1       5.177   5.830  16.154  0.00  0.00    +0.000 A 
ATOM      7  C   UNL     1       5.105   4.731  17.016  0.00  0.00    +0.000 A 
ATOM      8  C   UNL     1       4.280   4.755  18.161  0.00  0.00    +0.000 A 
ATOM      9  C   UNL     1       3.543   5.894  18.468  0.00  0.00    +0.000 A 
ATOM     10  N   UNL     1       2.671   6.124  19.540  0.00  0.00    +0.000 N 
ENDROOT
BRANCH   1  12
ATOM     11  C   UNL     1       0.422   9.771  21.705  0.00  0.00    +0.000 C 
ATOM     12  C   UNL     1       0.896   9.273  20.352  0.00  0.00    +0.000 C 
ENDBRANCH   1  12
BRANCH   6  13
ATOM     13  O   UNL     1       5.945   5.934  15.037  0.00  0.00    +0.000 OA
BRANCH  13  14
ATOM     14  C   UNL     1       6.589   4.784  14.511  0.00  0.00    +0.000 C 
ATOM     15  F   UNL     1       7.349   4.117  15.403  0.00  0.00    +0.000 F 
ATOM     16  F   UNL     1       5.644   3.932  14.053  0.00  0.00    +0.000 F 
ATOM     17  F   UNL     1       7.363   5.150  13.467  0.00  0.00    +0.000 F 
ENDBRANCH  13  14
ENDBRANCH   6  13
BRANCH  10  18
ATOM     18  C   UNL     1       2.435   5.159  20.619  0.00  0.00    +0.000 C 
BRANCH  18  19
ATOM     19  C   UNL     1       1.145   4.357  20.388  0.00  0.00    +0.000 C 
BRANCH  19  20
ATOM     20  S   UNL     1       1.460   2.555  20.403  0.00  0.00    +0.000 S 
ATOM     21  C   UNL     1       3.209   2.596  20.881  0.00  0.00    +0.000 C 
ENDBRANCH  19  20
ENDBRANCH  18  19
ENDBRANCH  10  18
TORSDOF 6
ENDMDL
MODEL 8
REMARK VINA RESULT:      -6.2      1.424      1.450
REMARK  Name = 
REMARK  8 active torsions:
REMARK  status: ('A' for Active; 'I' for Inactive)
REMARK    1  A    between atoms: C_1  and  C_2
REMARK    2  A    between atoms: C_2  and  N_3
REMARK    3  A    between atoms: C_8  and  O_9
REMARK    4  A    between atoms: O_9  and  C_10
REMARK    5  A    between atoms: N_17  and  C_18
REMARK    6  A    between atoms: C_18  and  C_19
REMARK    7  A    between atoms: C_19  and  S_20
REMARK    8  A    between atoms: S_20  and  C_21
REMARK                            x       y       z     vdW  Elec       q    Type
REMARK                         _______ _______ _______ _____ _____    ______ ____
ROOT
ATOM      1  N   UNL     1       7.440   7.386  16.924  0.00  0.00    +0.000 NA
ATOM      2  C   UNL     1       6.409   6.641  17.140  0.00  0.00    +0.000 A 
ATOM      3  S   UNL     1       4.969   7.191  18.041  0.00  0.00    +0.000 S 
ATOM      4  C   UNL     1       4.177   5.636  17.772  0.00  0.00    +0.000 A 
ATOM      5  C   UNL     1       2.905   5.297  18.201  0.00  0.00    +0.000 A 
ATOM      6  C   UNL     1       2.415   4.028  17.916  0.00  0.00    +0.000 A 
ATOM      7  C   UNL     1       3.196   3.152  17.155  0.00  0.00    +0.000 A 
ATOM      8  C   UNL     1       4.492   3.513  16.731  0.00  0.00    +0.000 A 
ATOM      9  C   UNL     1       5.006   4.767  17.040  0.00  0.00    +0.000 A 
ATOM     10  N   UNL     1       6.255   5.319  16.723  0.00  0.00    +0.000 N 
ENDROOT
BRANCH   1  12
ATOM     11  C   UNL     1       8.570   8.894  18.459  0.00  0.00    +0.000 C 
ATOM     12  C   UNL     1       7.444   8.750  17.452  0.00  0.00    +0.000 C 
ENDBRANCH   1  12
BRANCH   6  13
ATOM     13  O   UNL     1       1.151   3.805  18.365  0.00  0.00    +0.000 OA
BRANCH  13  14
ATOM     14  C   UNL     1       0.937   3.432  19.718  0.00  0.00    +0.000 C 
ATOM     15  F   UNL     1       0.594   4.454  20.527  0.00  0.00    +0.000 F 
ATOM     16  F   UNL     1      -0.060   2.518  19.760  0.00  0.00    +0.000 F 
ATOM     17  F   UNL     1       2.057   2.851  20.199  0.00  0.00    +0.000 F 
ENDBRANCH  13  14
ENDBRANCH   6  13
BRANCH  10  18
ATOM     18  C   UNL     1       7.259   4.637  15.900  0.00  0.00    +0.000 C 
BRANCH  18  19
ATOM     19  C   UNL     1       7.112   5.000  14.414  0.00  0.00    +0.000 C 
BRANCH  19  20
ATOM     20  S   UNL     1       6.065   3.792  13.526  0.00  0.00    +0.000 S 
ATOM     21  C   UNL     1       6.959   3.774  11.949  0.00  0.00    +0.000 C 
ENDBRANCH  19  20
ENDBRANCH  18  19
ENDBRANCH  10  18
TORSDOF 6
ENDMDL
MODEL 9
REMARK VINA RESULT:      -6.1      0.942      1.190
REMARK  Name = 
REMARK  8 active torsions:
REMARK  status: ('A' for Active; 'I' for Inactive)
REMARK    1  A    between atoms: C_1  and  C_2
REMARK    2  A    between atoms: C_2  and  N_3
REMARK    3  A    between atoms: C_8  and  O_9
REMARK    4  A    between atoms: O_9  and  C_10
REMARK    5  A    between atoms: N_17  and  C_18
REMARK    6  A    between atoms: C_18  and  C_19
REMARK    7  A    between atoms: C_19  and  S_20
REMARK    8  A    between atoms: S_20  and  C_21
REMARK                            x       y       z     vdW  Elec       q    Type
REMARK                         _______ _______ _______ _____ _____    ______ ____
ROOT
ATOM      1  N   UNL     1       7.175   6.642  16.933  0.00  0.00    +0.000 NA
ATOM      2  C   UNL     1       6.174   5.960  17.379  0.00  0.00    +0.000 A 
ATOM      3  S   UNL     1       5.764   5.834  19.112  0.00  0.00    +0.000 S 
ATOM      4  C   UNL     1       4.353   4.843  18.730  0.00  0.00    +0.000 A 
ATOM      5  C   UNL     1       3.452   4.340  19.652  0.00  0.00    +0.000 A 
ATOM      6  C   UNL     1       2.386   3.571  19.201  0.00  0.00    +0.000 A 
ATOM      7  C   UNL     1       2.222   3.376  17.826  0.00  0.00    +0.000 A 
ATOM      8  C   UNL     1       3.154   3.892  16.901  0.00  0.00    +0.000 A 
ATOM      9  C   UNL     1       4.243   4.635  17.344  0.00  0.00    +0.000 A 
ATOM     10  N   UNL     1       5.275   5.227  16.604  0.00  0.00    +0.000 N 
ENDROOT
BRANCH   1  12
ATOM     11  C   UNL     1       7.934   8.835  17.657  0.00  0.00    +0.000 C 
ATOM     12  C   UNL     1       8.033   7.339  17.891  0.00  0.00    +0.000 C 
ENDBRANCH   1  12
BRANCH   6  13
ATOM     13  O   UNL     1       1.551   3.142  20.185  0.00  0.00    +0.000 OA
BRANCH  13  14
ATOM     14  C   UNL     1       2.073   2.818  21.464  0.00  0.00    +0.000 C 
ATOM     15  F   UNL     1       3.223   2.115  21.432  0.00  0.00    +0.000 F 
ATOM     16  F   UNL     1       2.309   3.967  22.138  0.00  0.00    +0.000 F 
ATOM     17  F   UNL     1       1.150   2.112  22.152  0.00  0.00    +0.000 F 
ENDBRANCH  13  14
ENDBRANCH   6  13
BRANCH  10  18
ATOM     18  C   UNL     1       5.335   5.215  15.139  0.00  0.00    +0.000 C 
BRANCH  18  19
ATOM     19  C   UNL     1       5.978   3.923  14.610  0.00  0.00    +0.000 C 
BRANCH  19  20
ATOM     20  S   UNL     1       6.907   4.218  13.062  0.00  0.00    +0.000 S 
ATOM     21  C   UNL     1       6.080   2.989  12.018  0.00  0.00    +0.000 C 
ENDBRANCH  19  20
ENDBRANCH  18  19
ENDBRANCH  10  18
TORSDOF 6
ENDMDL
