MODEL 1
REMARK VINA RESULT:      -7.2      0.000      0.000
REMARK  Name = 
REMARK  10 active torsions:
REMARK  status: ('A' for Active; 'I' for Inactive)
REMARK    1  A    between atoms: C_1  and  C_2
REMARK    2  A    between atoms: C_5  and  O_6
REMARK    3  A    between atoms: C_7  and  C_8
REMARK    4  A    between atoms: C_10  and  C_11
REMARK    5  A    between atoms: C_11  and  C_12
REMARK    6  A    between atoms: C_11  and  C_13
REMARK    7  A    between atoms: C_11  and  C_14
REMARK    8  A    between atoms: C_17  and  S_18
REMARK    9  A    between atoms: S_18  and  C_19
REMARK   10  A    between atoms: N_23  and  C_24
REMARK                            x       y       z     vdW  Elec       q    Type
REMARK                         _______ _______ _______ _____ _____    ______ ____
ROOT
ATOM      1  C   UNL     1       3.402   6.108  18.156  0.00  0.00    +0.000 A 
ATOM      2  N   UNL     1       4.676   6.576  18.022  0.00  0.00    +0.000 NA
ATOM      3  C   UNL     1       5.615   5.803  17.457  0.00  0.00    +0.000 A 
ATOM      4  N   UNL     1       5.376   4.561  17.019  0.00  0.00    +0.000 NA
ATOM      5  C   UNL     1       4.097   4.134  17.109  0.00  0.00    +0.000 A 
ATOM      6  C   UNL     1       3.039   4.857  17.650  0.00  0.00    +0.000 A 
ENDROOT
BRANCH   1  12
ATOM      7  C   UNL     1       0.888  10.465  17.966  0.00  0.00    +0.000 C 
ATOM      8  C   UNL     1       1.341   9.282  18.765  0.00  0.00    +0.000 A 
ATOM      9  C   UNL     1       1.039   9.170  20.123  0.00  0.00    +0.000 A 
ATOM     10  C   UNL     1       1.450   8.047  20.835  0.00  0.00    +0.000 A 
ATOM     11  C   UNL     1       2.157   7.026  20.187  0.00  0.00    +0.000 A 
ATOM     12  C   UNL     1       2.512   7.108  18.817  0.00  0.00    +0.000 A 
ATOM     13  C   UNL     1       2.075   8.260  18.137  0.00  0.00    +0.000 A 
BRANCH  11  14
ATOM     14  O   UNL     1       2.482   5.919  20.932  0.00  0.00    +0.000 OA
ATOM     15  H   UNL     1       1.990   5.153  20.597  0.00  0.00    +0.000 HD
ENDBRANCH  11  14
ENDBRANCH   1  12
BRANCH   3  16
ATOM     16  C   UNL     1       7.031   6.362  17.351  0.00  0.00    +0.000 C 
ATOM     17  C   UNL     1       7.850   5.906  18.569  0.00  0.00    +0.000 C 
ATOM     18  C   UNL     1       7.704   5.858  16.060  0.00  0.00    +0.000 C 
ATOM     19  C   UNL     1       7.018   7.903  17.311  0.00  0.00    +0.000 C 
ENDBRANCH   3  16
BRANCH   6  20
ATOM     20  S   UNL     1       1.425   4.087  17.705  0.00  0.00    +0.000 S 
BRANCH  20  21
ATOM     21  C   UNL     1       1.463   3.360  19.287  0.00  0.00    +0.000 A 
ATOM     22  N   UNL     1       0.774   3.752  20.335  0.00  0.00    +0.000 NA
ATOM     23  C   UNL     1       1.096   2.889  21.348  0.00  0.00    +0.000 A 
ATOM     24  C   UNL     1       2.005   1.956  20.916  0.00  0.00    +0.000 A 
ATOM     25  N   UNL     1       2.237   2.263  19.600  0.00  0.00    +0.000 N 
ATOM     26  C   UNL     1       3.155   1.539  18.752  0.00  0.00    +0.000 C 
ENDBRANCH  20  21
ENDBRANCH   6  20
TORSDOF 5
ENDMDL
MODEL 2
REMARK VINA RESULT:      -6.8      2.196      5.811
REMARK  Name = 
REMARK  10 active torsions:
REMARK  status: ('A' for Active; 'I' for Inactive)
REMARK    1  A    between atoms: C_1  and  C_2
REMARK    2  A    between atoms: C_5  and  O_6
REMARK    3  A    between atoms: C_7  and  C_8
REMARK    4  A    between atoms: C_10  and  C_11
REMARK    5  A    between atoms: C_11  and  C_12
REMARK    6  A    between atoms: C_11  and  C_13
REMARK    7  A    between atoms: C_11  and  C_14
REMARK    8  A    between atoms: C_17  and  S_18
REMARK    9  A    between atoms: S_18  and  C_19
REMARK   10  A    between atoms: N_23  and  C_24
REMARK                            x       y       z     vdW  Elec       q    Type
REMARK                         _______ _______ _______ _____ _____    ______ ____
ROOT
ATOM      1  C   UNL     1       2.519   6.244  18.405  0.00  0.00    +0.000 A 
ATOM      2  N   UNL     1       1.701   7.285  18.731  0.00  0.00    +0.000 NA
ATOM      3  C   UNL     1       2.012   8.527  18.334  0.00  0.00    +0.000 A 
ATOM      4  N   UNL     1       3.113   8.818  17.630  0.00  0.00    +0.000 NA
ATOM      5  C   UNL     1       3.883   7.767  17.269  0.00  0.00    +0.000 A 
ATOM      6  C   UNL     1       3.645   6.438  17.602  0.00  0.00    +0.000 A 
ENDROOT
BRANCH   1  12
ATOM      7  C   UNL     1       2.201   2.970  22.217  0.00  0.00    +0.000 C 
ATOM      8  C   UNL     1       1.914   3.299  20.783  0.00  0.00    +0.000 A 
ATOM      9  C   UNL     1       1.290   2.376  19.943  0.00  0.00    +0.000 A 
ATOM     10  C   UNL     1       1.012   2.717  18.623  0.00  0.00    +0.000 A 
ATOM     11  C   UNL     1       1.349   3.989  18.142  0.00  0.00    +0.000 A 
ATOM     12  C   UNL     1       2.010   4.949  18.949  0.00  0.00    +0.000 A 
ATOM     13  C   UNL     1       2.270   4.561  20.277  0.00  0.00    +0.000 A 
BRANCH  11  14
ATOM     14  O   UNL     1       0.995   4.283  16.848  0.00  0.00    +0.000 OA
ATOM     15  H   UNL     1       1.775   4.607  16.370  0.00  0.00    +0.000 HD
ENDBRANCH  11  14
ENDBRANCH   1  12
BRANCH   3  16
ATOM     16  C   UNL     1       1.077   9.662  18.743  0.00  0.00    +0.000 C 
ATOM     17  C   UNL     1       0.704   9.504  20.226  0.00  0.00    +0.000 C 
ATOM     18  C   UNL     1       1.769  11.021  18.528  0.00  0.00    +0.000 C 
ATOM     19  C   UNL     1      -0.215   9.648  17.901  0.00  0.00    +0.000 C 
ENDBRANCH   3  16
BRANCH   6  20
ATOM     20  S   UNL     1       4.816   5.203  17.050  0.00  0.00    +0.000 S 
BRANCH  20  21
ATOM     21  C   UNL     1       6.130   5.480  18.158  0.00  0.00    +0.000 A 
ATOM     22  N   UNL     1       6.290   4.903  19.328  0.00  0.00    +0.000 NA
ATOM     23  C   UNL     1       7.458   5.398  19.841  0.00  0.00    +0.000 A 
ATOM     24  C   UNL     1       8.022   6.301  18.974  0.00  0.00    +0.000 A 
ATOM     25  N   UNL     1       7.168   6.350  17.902  0.00  0.00    +0.000 N 
ATOM     26  C   UNL     1       7.368   7.198  16.750  0.00  0.00    +0.000 C 
ENDBRANCH  20  21
ENDBRANCH   6  20
TORSDOF 5
ENDMDL
MODEL 3
REMARK VINA RESULT:      -6.7      2.053      5.913
REMARK  Name = 
REMARK  10 active torsions:
REMARK  status: ('A' for Active; 'I' for Inactive)
REMARK    1  A    between atoms: C_1  and  C_2
REMARK    2  A    between atoms: C_5  and  O_6
REMARK    3  A    between atoms: C_7  and  C_8
REMARK    4  A    between atoms: C_10  and  C_11
REMARK    5  A    between atoms: C_11  and  C_12
REMARK    6  A    between atoms: C_11  and  C_13
REMARK    7  A    between atoms: C_11  and  C_14
REMARK    8  A    between atoms: C_17  and  S_18
REMARK    9  A    between atoms: S_18  and  C_19
REMARK   10  A    between atoms: N_23  and  C_24
REMARK                            x       y       z     vdW  Elec       q    Type
REMARK                         _______ _______ _______ _____ _____    ______ ____
ROOT
ATOM      1  C   UNL     1       2.581   6.788  18.500  0.00  0.00    +0.000 A 
ATOM      2  N   UNL     1       1.722   7.710  19.024  0.00  0.00    +0.000 NA
ATOM      3  C   UNL     1       1.760   8.978  18.591  0.00  0.00    +0.000 A 
ATOM      4  N   UNL     1       2.622   9.411  17.664  0.00  0.00    +0.000 NA
ATOM      5  C   UNL     1       3.428   8.474  17.117  0.00  0.00    +0.000 A 
ATOM      6  C   UNL     1       3.458   7.128  17.468  0.00  0.00    +0.000 A 
ENDROOT
BRANCH   1  12
ATOM      7  C   UNL     1       2.298   1.788  17.991  0.00  0.00    +0.000 C 
ATOM      8  C   UNL     1       2.170   2.995  18.870  0.00  0.00    +0.000 A 
ATOM      9  C   UNL     1       1.772   2.879  20.203  0.00  0.00    +0.000 A 
ATOM     10  C   UNL     1       1.687   4.014  21.002  0.00  0.00    +0.000 A 
ATOM     11  C   UNL     1       2.011   5.270  20.474  0.00  0.00    +0.000 A 
ATOM     12  C   UNL     1       2.391   5.442  19.119  0.00  0.00    +0.000 A 
ATOM     13  C   UNL     1       2.465   4.267  18.347  0.00  0.00    +0.000 A 
BRANCH  11  14
ATOM     14  O   UNL     1       1.962   6.342  21.331  0.00  0.00    +0.000 OA
ATOM     15  H   UNL     1       1.046   6.651  21.404  0.00  0.00    +0.000 HD
ENDBRANCH  11  14
ENDBRANCH   1  12
BRANCH   3  16
ATOM     16  C   UNL     1       0.795   9.977  19.223  0.00  0.00    +0.000 C 
ATOM     17  C   UNL     1       0.504   9.556  20.673  0.00  0.00    +0.000 C 
ATOM     18  C   UNL     1       1.411  11.389  19.211  0.00  0.00    +0.000 C 
ATOM     19  C   UNL     1      -0.536  10.032  18.446  0.00  0.00    +0.000 C 
ENDBRANCH   3  16
BRANCH   6  20
ATOM     20  S   UNL     1       4.632   6.062  16.640  0.00  0.00    +0.000 S 
BRANCH  20  21
ATOM     21  C   UNL     1       6.123   6.590  17.368  0.00  0.00    +0.000 A 
ATOM     22  N   UNL     1       6.875   7.587  16.956  0.00  0.00    +0.000 NA
ATOM     23  C   UNL     1       7.927   7.657  17.829  0.00  0.00    +0.000 A 
ATOM     24  C   UNL     1       7.824   6.681  18.789  0.00  0.00    +0.000 A 
ATOM     25  N   UNL     1       6.671   6.002  18.489  0.00  0.00    +0.000 N 
ATOM     26  C   UNL     1       6.183   4.869  19.240  0.00  0.00    +0.000 C 
ENDBRANCH  20  21
ENDBRANCH   6  20
TORSDOF 5
ENDMDL
MODEL 4
REMARK VINA RESULT:      -6.7      1.915      5.046
REMARK  Name = 
REMARK  10 active torsions:
REMARK  status: ('A' for Active; 'I' for Inactive)
REMARK    1  A    between atoms: C_1  and  C_2
REMARK    2  A    between atoms: C_5  and  O_6
REMARK    3  A    between atoms: C_7  and  C_8
REMARK    4  A    between atoms: C_10  and  C_11
REMARK    5  A    between atoms: C_11  and  C_12
REMARK    6  A    between atoms: C_11  and  C_13
REMARK    7  A    between atoms: C_11  and  C_14
REMARK    8  A    between atoms: C_17  and  S_18
REMARK    9  A    between atoms: S_18  and  C_19
REMARK   10  A    between atoms: N_23  and  C_24
REMARK                            x       y       z     vdW  Elec       q    Type
REMARK                         _______ _______ _______ _____ _____    ______ ____
ROOT
ATOM      1  C   UNL     1       2.722   6.442  19.471  0.00  0.00    +0.000 A 
ATOM      2  N   UNL     1       2.426   7.664  18.942  0.00  0.00    +0.000 NA
ATOM      3  C   UNL     1       1.500   8.437  19.527  0.00  0.00    +0.000 A 
ATOM      4  N   UNL     1       0.819   8.067  20.618  0.00  0.00    +0.000 NA
ATOM      5  C   UNL     1       1.163   6.878  21.159  0.00  0.00    +0.000 A 
ATOM      6  C   UNL     1       2.123   6.007  20.656  0.00  0.00    +0.000 A 
ENDROOT
BRANCH   1  12
ATOM      7  C   UNL     1       7.581   5.494  18.557  0.00  0.00    +0.000 C 
ATOM      8  C   UNL     1       6.146   5.322  18.161  0.00  0.00    +0.000 A 
ATOM      9  C   UNL     1       5.794   4.612  17.012  0.00  0.00    +0.000 A 
ATOM     10  C   UNL     1       4.453   4.446  16.683  0.00  0.00    +0.000 A 
ATOM     11  C   UNL     1       3.456   4.979  17.510  0.00  0.00    +0.000 A 
ATOM     12  C   UNL     1       3.765   5.732  18.671  0.00  0.00    +0.000 A 
ATOM     13  C   UNL     1       5.134   5.875  18.966  0.00  0.00    +0.000 A 
BRANCH  11  14
ATOM     14  O   UNL     1       2.152   4.730  17.161  0.00  0.00    +0.000 OA
ATOM     15  H   UNL     1       2.069   4.760  16.195  0.00  0.00    +0.000 HD
ENDBRANCH  11  14
ENDBRANCH   1  12
BRANCH   3  16
ATOM     16  C   UNL     1       1.188   9.786  18.886  0.00  0.00    +0.000 C 
ATOM     17  C   UNL     1       1.050  10.852  19.985  0.00  0.00    +0.000 C 
ATOM     18  C   UNL     1       2.316  10.187  17.918  0.00  0.00    +0.000 C 
ATOM     19  C   UNL     1      -0.129   9.729  18.084  0.00  0.00    +0.000 C 
ENDBRANCH   3  16
BRANCH   6  20
ATOM     20  S   UNL     1       2.398   4.460  21.511  0.00  0.00    +0.000 S 
BRANCH  20  21
ATOM     21  C   UNL     1       1.945   3.319  20.277  0.00  0.00    +0.000 A 
ATOM     22  N   UNL     1       0.747   3.180  19.754  0.00  0.00    +0.000 NA
ATOM     23  C   UNL     1       0.853   2.189  18.816  0.00  0.00    +0.000 A 
ATOM     24  C   UNL     1       2.137   1.706  18.766  0.00  0.00    +0.000 A 
ATOM     25  N   UNL     1       2.829   2.430  19.703  0.00  0.00    +0.000 N 
ATOM     26  C   UNL     1       4.229   2.236  20.001  0.00  0.00    +0.000 C 
ENDBRANCH  20  21
ENDBRANCH   6  20
TORSDOF 5
ENDMDL
MODEL 5
REMARK VINA RESULT:      -6.7      1.988      5.262
REMARK  Name = 
REMARK  10 active torsions:
REMARK  status: ('A' for Active; 'I' for Inactive)
REMARK    1  A    between atoms: C_1  and  C_2
REMARK    2  A    between atoms: C_5  and  O_6
REMARK    3  A    between atoms: C_7  and  C_8
REMARK    4  A    between atoms: C_10  and  C_11
REMARK    5  A    between atoms: C_11  and  C_12
REMARK    6  A    between atoms: C_11  and  C_13
REMARK    7  A    between atoms: C_11  and  C_14
REMARK    8  A    between atoms: C_17  and  S_18
REMARK    9  A    between atoms: S_18  and  C_19
REMARK   10  A    between atoms: N_23  and  C_24
REMARK                            x       y       z     vdW  Elec       q    Type
REMARK                         _______ _______ _______ _____ _____    ______ ____
ROOT
ATOM      1  C   UNL     1       3.107   6.085  19.054  0.00  0.00    +0.000 A 
ATOM      2  N   UNL     1       2.279   5.142  19.586  0.00  0.00    +0.000 NA
ATOM      3  C   UNL     1       2.678   3.864  19.651  0.00  0.00    +0.000 A 
ATOM      4  N   UNL     1       3.866   3.443  19.201  0.00  0.00    +0.000 NA
ATOM      5  C   UNL     1       4.696   4.399  18.728  0.00  0.00    +0.000 A 
ATOM      6  C   UNL     1       4.399   5.754  18.636  0.00  0.00    +0.000 A 
ENDROOT
BRANCH   1  12
ATOM      7  C   UNL     1       0.494   9.641  21.477  0.00  0.00    +0.000 C 
ATOM      8  C   UNL     1       1.128   9.158  20.208  0.00  0.00    +0.000 A 
ATOM      9  C   UNL     1       1.036   9.899  19.028  0.00  0.00    +0.000 A 
ATOM     10  C   UNL     1       1.656   9.439  17.871  0.00  0.00    +0.000 A 
ATOM     11  C   UNL     1       2.381   8.241  17.892  0.00  0.00    +0.000 A 
ATOM     12  C   UNL     1       2.478   7.440  19.058  0.00  0.00    +0.000 A 
ATOM     13  C   UNL     1       1.836   7.943  20.205  0.00  0.00    +0.000 A 
BRANCH  11  14
ATOM     14  O   UNL     1       3.018   7.873  16.733  0.00  0.00    +0.000 OA
ATOM     15  H   UNL     1       2.468   8.124  15.974  0.00  0.00    +0.000 HD
ENDBRANCH  11  14
ENDBRANCH   1  12
BRANCH   3  16
ATOM     16  C   UNL     1       1.707   2.841  20.234  0.00  0.00    +0.000 C 
ATOM     17  C   UNL     1       1.844   1.516  19.466  0.00  0.00    +0.000 C 
ATOM     18  C   UNL     1       2.015   2.607  21.724  0.00  0.00    +0.000 C 
ATOM     19  C   UNL     1       0.249   3.332  20.120  0.00  0.00    +0.000 C 
ENDBRANCH   3  16
BRANCH   6  20
ATOM     20  S   UNL     1       5.633   6.848  17.942  0.00  0.00    +0.000 S 
BRANCH  20  21
ATOM     21  C   UNL     1       6.044   5.993  16.482  0.00  0.00    +0.000 A 
ATOM     22  N   UNL     1       5.490   6.163  15.303  0.00  0.00    +0.000 NA
ATOM     23  C   UNL     1       6.132   5.304  14.452  0.00  0.00    +0.000 A 
ATOM     24  C   UNL     1       7.092   4.588  15.123  0.00  0.00    +0.000 A 
ATOM     25  N   UNL     1       7.030   5.030  16.419  0.00  0.00    +0.000 N 
ATOM     26  C   UNL     1       7.863   4.525  17.485  0.00  0.00    +0.000 C 
ENDBRANCH  20  21
ENDBRANCH   6  20
TORSDOF 5
ENDMDL
MODEL 6
REMARK VINA RESULT:      -6.6      1.100      1.700
REMARK  Name = 
REMARK  10 active torsions:
REMARK  status: ('A' for Active; 'I' for Inactive)
REMARK    1  A    between atoms: C_1  and  C_2
REMARK    2  A    between atoms: C_5  and  O_6
REMARK    3  A    between atoms: C_7  and  C_8
REMARK    4  A    between atoms: C_10  and  C_11
REMARK    5  A    between atoms: C_11  and  C_12
REMARK    6  A    between atoms: C_11  and  C_13
REMARK    7  A    between atoms: C_11  and  C_14
REMARK    8  A    between atoms: C_17  and  S_18
REMARK    9  A    between atoms: S_18  and  C_19
REMARK   10  A    between atoms: N_23  and  C_24
REMARK                            x       y       z     vdW  Elec       q    Type
REMARK                         _______ _______ _______ _____ _____    ______ ____
ROOT
ATOM      1  C   UNL     1       3.469   6.324  18.266  0.00  0.00    +0.000 A 
ATOM      2  N   UNL     1       4.769   6.692  18.088  0.00  0.00    +0.000 NA
ATOM      3  C   UNL     1       5.657   5.801  17.623  0.00  0.00    +0.000 A 
ATOM      4  N   UNL     1       5.340   4.535  17.329  0.00  0.00    +0.000 NA
ATOM      5  C   UNL     1       4.037   4.202  17.459  0.00  0.00    +0.000 A 
ATOM      6  C   UNL     1       3.027   5.048  17.907  0.00  0.00    +0.000 A 
ENDROOT
BRANCH   1  12
ATOM      7  C   UNL     1       0.669   8.259  21.975  0.00  0.00    +0.000 C 
ATOM      8  C   UNL     1       1.202   8.374  20.580  0.00  0.00    +0.000 A 
ATOM      9  C   UNL     1       0.847   9.444  19.758  0.00  0.00    +0.000 A 
ATOM     10  C   UNL     1       1.378   9.539  18.475  0.00  0.00    +0.000 A 
ATOM     11  C   UNL     1       2.276   8.568  18.014  0.00  0.00    +0.000 A 
ATOM     12  C   UNL     1       2.644   7.448  18.802  0.00  0.00    +0.000 A 
ATOM     13  C   UNL     1       2.083   7.393  20.091  0.00  0.00    +0.000 A 
BRANCH  11  14
ATOM     14  O   UNL     1       2.809   8.751  16.762  0.00  0.00    +0.000 OA
ATOM     15  H   UNL     1       2.090   8.913  16.130  0.00  0.00    +0.000 HD
ENDBRANCH  11  14
ENDBRANCH   1  12
BRANCH   3  16
ATOM     16  C   UNL     1       7.106   6.254  17.462  0.00  0.00    +0.000 C 
ATOM     17  C   UNL     1       7.927   5.770  18.668  0.00  0.00    +0.000 C 
ATOM     18  C   UNL     1       7.702   5.673  16.166  0.00  0.00    +0.000 C 
ATOM     19  C   UNL     1       7.201   7.792  17.382  0.00  0.00    +0.000 C 
ENDBRANCH   3  16
BRANCH   6  20
ATOM     20  S   UNL     1       1.368   4.392  18.040  0.00  0.00    +0.000 S 
BRANCH  20  21
ATOM     21  C   UNL     1       1.459   3.581  19.577  0.00  0.00    +0.000 A 
ATOM     22  N   UNL     1       0.991   4.033  20.720  0.00  0.00    +0.000 NA
ATOM     23  C   UNL     1       1.263   3.068  21.652  0.00  0.00    +0.000 A 
ATOM     24  C   UNL     1       1.916   2.008  21.073  0.00  0.00    +0.000 A 
ATOM     25  N   UNL     1       2.040   2.342  19.749  0.00  0.00    +0.000 N 
ATOM     26  C   UNL     1       2.691   1.510  18.765  0.00  0.00    +0.000 C 
ENDBRANCH  20  21
ENDBRANCH   6  20
TORSDOF 5
ENDMDL
MODEL 7
REMARK VINA RESULT:      -6.6      1.962      5.737
REMARK  Name = 
REMARK  10 active torsions:
REMARK  status: ('A' for Active; 'I' for Inactive)
REMARK    1  A    between atoms: C_1  and  C_2
REMARK    2  A    between atoms: C_5  and  O_6
REMARK    3  A    between atoms: C_7  and  C_8
REMARK    4  A    between atoms: C_10  and  C_11
REMARK    5  A    between atoms: C_11  and  C_12
REMARK    6  A    between atoms: C_11  and  C_13
REMARK    7  A    between atoms: C_11  and  C_14
REMARK    8  A    between atoms: C_17  and  S_18
REMARK    9  A    between atoms: S_18  and  C_19
REMARK   10  A    between atoms: N_23  and  C_24
REMARK                            x       y       z     vdW  Elec       q    Type
REMARK                         _______ _______ _______ _____ _____    ______ ____
ROOT
ATOM      1  C   UNL     1       2.702   6.471  18.503  0.00  0.00    +0.000 A 
ATOM      2  N   UNL     1       1.850   7.471  18.870  0.00  0.00    +0.000 NA
ATOM      3  C   UNL     1       1.999   8.698  18.349  0.00  0.00    +0.000 A 
ATOM      4  N   UNL     1       2.966   9.013  17.480  0.00  0.00    +0.000 NA
ATOM      5  C   UNL     1       3.766   7.998  17.086  0.00  0.00    +0.000 A 
ATOM      6  C   UNL     1       3.689   6.685  17.538  0.00  0.00    +0.000 A 
ENDROOT
BRANCH   1  12
ATOM      7  C   UNL     1       1.989   1.492  18.300  0.00  0.00    +0.000 C 
ATOM      8  C   UNL     1       1.950   2.759  19.098  0.00  0.00    +0.000 A 
ATOM      9  C   UNL     1       1.516   2.765  20.425  0.00  0.00    +0.000 A 
ATOM     10  C   UNL     1       1.515   3.952  21.149  0.00  0.00    +0.000 A 
ATOM     11  C   UNL     1       1.959   5.139  20.552  0.00  0.00    +0.000 A 
ATOM     12  C   UNL     1       2.382   5.188  19.199  0.00  0.00    +0.000 A 
ATOM     13  C   UNL     1       2.367   3.964  18.505  0.00  0.00    +0.000 A 
BRANCH  11  14
ATOM     14  O   UNL     1       1.988   6.264  21.339  0.00  0.00    +0.000 OA
ATOM     15  H   UNL     1       1.254   6.847  21.088  0.00  0.00    +0.000 HD
ENDBRANCH  11  14
ENDBRANCH   1  12
BRANCH   3  16
ATOM     16  C   UNL     1       1.036   9.789  18.808  0.00  0.00    +0.000 C 
ATOM     17  C   UNL     1       1.704  11.163  18.633  0.00  0.00    +0.000 C 
ATOM     18  C   UNL     1      -0.260   9.736  17.977  0.00  0.00    +0.000 C 
ATOM     19  C   UNL     1       0.657   9.608  20.292  0.00  0.00    +0.000 C 
ENDBRANCH   3  16
BRANCH   6  20
ATOM     20  S   UNL     1       4.875   5.501  16.911  0.00  0.00    +0.000 S 
BRANCH  20  21
ATOM     21  C   UNL     1       6.144   5.652  18.093  0.00  0.00    +0.000 A 
ATOM     22  N   UNL     1       6.266   4.943  19.193  0.00  0.00    +0.000 NA
ATOM     23  C   UNL     1       7.410   5.381  19.804  0.00  0.00    +0.000 A 
ATOM     24  C   UNL     1       7.996   6.383  19.071  0.00  0.00    +0.000 A 
ATOM     25  N   UNL     1       7.183   6.552  17.981  0.00  0.00    +0.000 N 
ATOM     26  C   UNL     1       7.416   7.530  16.944  0.00  0.00    +0.000 C 
ENDBRANCH  20  21
ENDBRANCH   6  20
TORSDOF 5
ENDMDL
MODEL 8
REMARK VINA RESULT:      -6.6      2.260      6.056
REMARK  Name = 
REMARK  10 active torsions:
REMARK  status: ('A' for Active; 'I' for Inactive)
REMARK    1  A    between atoms: C_1  and  C_2
REMARK    2  A    between atoms: C_5  and  O_6
REMARK    3  A    between atoms: C_7  and  C_8
REMARK    4  A    between atoms: C_10  and  C_11
REMARK    5  A    between atoms: C_11  and  C_12
REMARK    6  A    between atoms: C_11  and  C_13
REMARK    7  A    between atoms: C_11  and  C_14
REMARK    8  A    between atoms: C_17  and  S_18
REMARK    9  A    between atoms: S_18  and  C_19
REMARK   10  A    between atoms: N_23  and  C_24
REMARK                            x       y       z     vdW  Elec       q    Type
REMARK                         _______ _______ _______ _____ _____    ______ ____
ROOT
ATOM      1  C   UNL     1       2.374   6.407  18.436  0.00  0.00    +0.000 A 
ATOM      2  N   UNL     1       1.529   7.399  18.840  0.00  0.00    +0.000 NA
ATOM      3  C   UNL     1       1.768   8.667  18.477  0.00  0.00    +0.000 A 
ATOM      4  N   UNL     1       2.821   9.031  17.736  0.00  0.00    +0.000 NA
ATOM      5  C   UNL     1       3.617   8.030  17.299  0.00  0.00    +0.000 A 
ATOM      6  C   UNL     1       3.452   6.680  17.590  0.00  0.00    +0.000 A 
ENDROOT
BRANCH   1  12
ATOM      7  C   UNL     1       2.236   3.052  22.187  0.00  0.00    +0.000 C 
ATOM      8  C   UNL     1       1.942   3.386  20.757  0.00  0.00    +0.000 A 
ATOM      9  C   UNL     1       1.387   2.440  19.893  0.00  0.00    +0.000 A 
ATOM     10  C   UNL     1       1.100   2.786  18.577  0.00  0.00    +0.000 A 
ATOM     11  C   UNL     1       1.357   4.086  18.121  0.00  0.00    +0.000 A 
ATOM     12  C   UNL     1       1.945   5.072  18.952  0.00  0.00    +0.000 A 
ATOM     13  C   UNL     1       2.219   4.678  20.275  0.00  0.00    +0.000 A 
BRANCH  11  14
ATOM     14  O   UNL     1       0.996   4.379  16.829  0.00  0.00    +0.000 OA
ATOM     15  H   UNL     1       1.792   4.404  16.274  0.00  0.00    +0.000 HD
ENDBRANCH  11  14
ENDBRANCH   1  12
BRANCH   3  16
ATOM     16  C   UNL     1       0.808   9.745  18.972  0.00  0.00    +0.000 C 
ATOM     17  C   UNL     1      -0.409   9.811  18.035  0.00  0.00    +0.000 C 
ATOM     18  C   UNL     1       0.339   9.420  20.403  0.00  0.00    +0.000 C 
ATOM     19  C   UNL     1       1.490  11.128  18.997  0.00  0.00    +0.000 C 
ENDBRANCH   3  16
BRANCH   6  20
ATOM     20  S   UNL     1       4.645   5.519  16.937  0.00  0.00    +0.000 S 
BRANCH  20  21
ATOM     21  C   UNL     1       6.137   6.314  17.354  0.00  0.00    +0.000 A 
ATOM     22  N   UNL     1       6.750   7.232  16.640  0.00  0.00    +0.000 NA
ATOM     23  C   UNL     1       7.864   7.588  17.352  0.00  0.00    +0.000 A 
ATOM     24  C   UNL     1       7.940   6.870  18.520  0.00  0.00    +0.000 A 
ATOM     25  N   UNL     1       6.836   6.057  18.514  0.00  0.00    +0.000 N 
ATOM     26  C   UNL     1       6.527   5.109  19.559  0.00  0.00    +0.000 C 
ENDBRANCH  20  21
ENDBRANCH   6  20
TORSDOF 5
ENDMDL
MODEL 9
REMARK VINA RESULT:      -6.5      4.843      9.187
REMARK  Name = 
REMARK  10 active torsions:
REMARK  status: ('A' for Active; 'I' for Inactive)
REMARK    1  A    between atoms: C_1  and  C_2
REMARK    2  A    between atoms: C_5  and  O_6
REMARK    3  A    between atoms: C_7  and  C_8
REMARK    4  A    between atoms: C_10  and  C_11
REMARK    5  A    between atoms: C_11  and  C_12
REMARK    6  A    between atoms: C_11  and  C_13
REMARK    7  A    between atoms: C_11  and  C_14
REMARK    8  A    between atoms: C_17  and  S_18
REMARK    9  A    between atoms: S_18  and  C_19
REMARK   10  A    between atoms: N_23  and  C_24
REMARK                            x       y       z     vdW  Elec       q    Type
REMARK                         _______ _______ _______ _____ _____    ______ ____
ROOT
ATOM      1  C   UNL     1       0.065  10.689  19.129  0.00  0.00    +0.000 A 
ATOM      2  N   UNL     1      -1.021  10.351  18.376  0.00  0.00    +0.000 NA
ATOM      3  C   UNL     1      -1.912  11.291  18.030  0.00  0.00    +0.000 A 
ATOM      4  N   UNL     1      -1.805  12.573  18.401  0.00  0.00    +0.000 NA
ATOM      5  C   UNL     1      -0.696  12.901  19.099  0.00  0.00    +0.000 A 
ATOM      6  C   UNL     1       0.304  12.017  19.491  0.00  0.00    +0.000 A 
ENDROOT
BRANCH   1  12
ATOM      7  C   UNL     1       3.426   7.287  17.555  0.00  0.00    +0.000 C 
ATOM      8  C   UNL     1       2.514   7.781  18.636  0.00  0.00    +0.000 A 
ATOM      9  C   UNL     1       2.384   7.091  19.842  0.00  0.00    +0.000 A 
ATOM     10  C   UNL     1       1.550   7.586  20.839  0.00  0.00    +0.000 A 
ATOM     11  C   UNL     1       0.850   8.783  20.637  0.00  0.00    +0.000 A 
ATOM     12  C   UNL     1       0.928   9.504  19.419  0.00  0.00    +0.000 A 
ATOM     13  C   UNL     1       1.783   8.966  18.439  0.00  0.00    +0.000 A 
BRANCH  11  14
ATOM     14  O   UNL     1       0.090   9.248  21.682  0.00  0.00    +0.000 OA
ATOM     15  H   UNL     1      -0.774   8.808  21.668  0.00  0.00    +0.000 HD
ENDBRANCH  11  14
ENDBRANCH   1  12
BRANCH   3  16
ATOM     16  C   UNL     1      -3.122  10.860  17.207  0.00  0.00    +0.000 C 
ATOM     17  C   UNL     1      -4.308  11.786  17.524  0.00  0.00    +0.000 C 
ATOM     18  C   UNL     1      -2.795  10.937  15.704  0.00  0.00    +0.000 C 
ATOM     19  C   UNL     1      -3.526   9.408  17.533  0.00  0.00    +0.000 C 
ENDBRANCH   3  16
BRANCH   6  20
ATOM     20  S   UNL     1       1.676  12.656  20.445  0.00  0.00    +0.000 S 
BRANCH  20  21
ATOM     21  C   UNL     1       2.272  13.891  19.373  0.00  0.00    +0.000 A 
ATOM     22  N   UNL     1       3.033  13.699  18.318  0.00  0.00    +0.000 NA
ATOM     23  C   UNL     1       3.239  14.935  17.767  0.00  0.00    +0.000 A 
ATOM     24  C   UNL     1       2.601  15.904  18.501  0.00  0.00    +0.000 A 
ATOM     25  N   UNL     1       1.987  15.232  19.526  0.00  0.00    +0.000 N 
ATOM     26  C   UNL     1       1.210  15.873  20.561  0.00  0.00    +0.000 C 
ENDBRANCH  20  21
ENDBRANCH   6  20
TORSDOF 5
ENDMDL
