MODEL 1
REMARK VINA RESULT:      -8.1      0.000      0.000
REMARK  Name = 
REMARK  6 active torsions:
REMARK  status: ('A' for Active; 'I' for Inactive)
REMARK    1  A    between atoms: C_1  and  N_2
REMARK    2  A    between atoms: C_4  and  C_5
REMARK    3  A    between atoms: C_8  and  C_9
REMARK    4  A    between atoms: N_11  and  C_12
REMARK    5  A    between atoms: C_17  and  O_18
REMARK    6  A    between atoms: O_18  and  C_19
REMARK                            x       y       z     vdW  Elec       q    Type
REMARK                         _______ _______ _______ _____ _____    ______ ____
ROOT
ATOM      1  C   UNL     1       5.383   4.229  16.823  0.00  0.00    +0.000 C 
ATOM      2  C   UNL     1       4.998   5.716  16.948  0.00  0.00    +0.000 C 
ATOM      3  C   UNL     1       5.862   6.432  18.005  0.00  0.00    +0.000 C 
ATOM      4  O   UNL     1       7.259   6.128  17.998  0.00  0.00    +0.000 OA
ATOM      5  C   UNL     1       7.651   4.772  17.713  0.00  0.00    +0.000 C 
ATOM      6  C   UNL     1       6.908   4.223  16.482  0.00  0.00    +0.000 C 
ENDROOT
BRANCH   1   9
ATOM      7  C   UNL     1       4.358   3.428  19.248  0.00  0.00    +0.000 C 
ATOM      8  O   UNL     1       4.931   2.584  19.960  0.00  0.00    +0.000 OA
ATOM      9  N   UNL     1       5.114   3.612  18.153  0.00  0.00    +0.000 N 
ATOM     10  H   UNL     1       5.865   2.971  18.385  0.00  0.00    +0.000 HD
BRANCH   7  16
ATOM     11  C   UNL     1       1.272   2.220  20.039  0.00  0.00    +0.000 C 
ATOM     12  N   UNL     1       1.842   3.549  20.066  0.00  0.00    +0.000 N 
ATOM     13  C   UNL     1       1.077   4.618  20.535  0.00  0.00    +0.000 A 
ATOM     14  C   UNL     1       1.836   5.760  20.485  0.00  0.00    +0.000 A 
ATOM     15  C   UNL     1       3.073   5.374  19.960  0.00  0.00    +0.000 A 
ATOM     16  C   UNL     1       3.109   3.987  19.724  0.00  0.00    +0.000 A 
BRANCH  14  17
ATOM     17  C   UNL     1       1.448   7.064  20.909  0.00  0.00    +0.000 C 
ATOM     18  N   UNL     1       1.148   8.136  21.251  0.00  0.00    +0.000 NA
ENDBRANCH  14  17
ENDBRANCH   7  16
ENDBRANCH   1   9
BRANCH   6  19
ATOM     19  O   UNL     1       7.329   5.195  15.508  0.00  0.00    +0.000 OA
BRANCH  19  20
ATOM     20  C   UNL     1       7.214   4.969  14.175  0.00  0.00    +0.000 A 
ATOM     21  C   UNL     1       6.333   3.944  13.836  0.00  0.00    +0.000 A 
ATOM     22  C   UNL     1       6.262   3.544  12.511  0.00  0.00    +0.000 A 
ATOM     23  C   UNL     1       7.069   4.187  11.581  0.00  0.00    +0.000 A 
ATOM     24  C   UNL     1       7.899   5.214  12.020  0.00  0.00    +0.000 A 
ATOM     25  N   UNL     1       8.002   5.623  13.307  0.00  0.00    +0.000 NA
ENDBRANCH  19  20
ENDBRANCH   6  19
TORSDOF 5
ENDMDL
MODEL 2
REMARK VINA RESULT:      -8.0      1.935      3.040
REMARK  Name = 
REMARK  6 active torsions:
REMARK  status: ('A' for Active; 'I' for Inactive)
REMARK    1  A    between atoms: C_1  and  N_2
REMARK    2  A    between atoms: C_4  and  C_5
REMARK    3  A    between atoms: C_8  and  C_9
REMARK    4  A    between atoms: N_11  and  C_12
REMARK    5  A    between atoms: C_17  and  O_18
REMARK    6  A    between atoms: O_18  and  C_19
REMARK                            x       y       z     vdW  Elec       q    Type
REMARK                         _______ _______ _______ _____ _____    ______ ____
ROOT
ATOM      1  C   UNL     1       4.664   6.249  17.361  0.00  0.00    +0.000 C 
ATOM      2  C   UNL     1       5.893   6.651  18.200  0.00  0.00    +0.000 C 
ATOM      3  C   UNL     1       6.363   5.490  19.098  0.00  0.00    +0.000 C 
ATOM      4  O   UNL     1       6.390   4.192  18.499  0.00  0.00    +0.000 OA
ATOM      5  C   UNL     1       5.338   3.855  17.575  0.00  0.00    +0.000 C 
ATOM      6  C   UNL     1       5.107   4.985  16.556  0.00  0.00    +0.000 C 
ENDROOT
BRANCH   1   9
ATOM      7  C   UNL     1       2.582   6.284  19.160  0.00  0.00    +0.000 C 
ATOM      8  O   UNL     1       2.084   5.237  19.613  0.00  0.00    +0.000 OA
ATOM      9  N   UNL     1       3.579   5.931  18.332  0.00  0.00    +0.000 N 
ATOM     10  H   UNL     1       3.509   4.924  18.439  0.00  0.00    +0.000 HD
BRANCH   7  16
ATOM     11  C   UNL     1       1.787   9.254  17.694  0.00  0.00    +0.000 C 
ATOM     12  N   UNL     1       1.681   8.772  19.053  0.00  0.00    +0.000 N 
ATOM     13  C   UNL     1       1.112   9.588  20.032  0.00  0.00    +0.000 A 
ATOM     14  C   UNL     1       1.103   8.908  21.224  0.00  0.00    +0.000 A 
ATOM     15  C   UNL     1       1.692   7.668  20.961  0.00  0.00    +0.000 A 
ATOM     16  C   UNL     1       2.029   7.549  19.599  0.00  0.00    +0.000 A 
BRANCH  14  17
ATOM     17  C   UNL     1       0.574   9.364  22.466  0.00  0.00    +0.000 C 
ATOM     18  N   UNL     1       0.137   9.720  23.485  0.00  0.00    +0.000 NA
ENDBRANCH  14  17
ENDBRANCH   7  16
ENDBRANCH   1   9
BRANCH   6  19
ATOM     19  O   UNL     1       6.425   5.048  15.981  0.00  0.00    +0.000 OA
BRANCH  19  20
ATOM     20  C   UNL     1       6.635   4.870  14.652  0.00  0.00    +0.000 A 
ATOM     21  C   UNL     1       5.799   3.930  14.054  0.00  0.00    +0.000 A 
ATOM     22  C   UNL     1       6.038   3.575  12.736  0.00  0.00    +0.000 A 
ATOM     23  C   UNL     1       7.097   4.177  12.070  0.00  0.00    +0.000 A 
ATOM     24  C   UNL     1       7.859   5.122  12.751  0.00  0.00    +0.000 A 
ATOM     25  N   UNL     1       7.661   5.484  14.041  0.00  0.00    +0.000 NA
ENDBRANCH  19  20
ENDBRANCH   6  19
TORSDOF 5
ENDMDL
MODEL 3
REMARK VINA RESULT:      -7.8      1.811      2.493
REMARK  Name = 
REMARK  6 active torsions:
REMARK  status: ('A' for Active; 'I' for Inactive)
REMARK    1  A    between atoms: C_1  and  N_2
REMARK    2  A    between atoms: C_4  and  C_5
REMARK    3  A    between atoms: C_8  and  C_9
REMARK    4  A    between atoms: N_11  and  C_12
REMARK    5  A    between atoms: C_17  and  O_18
REMARK    6  A    between atoms: O_18  and  C_19
REMARK                            x       y       z     vdW  Elec       q    Type
REMARK                         _______ _______ _______ _____ _____    ______ ____
ROOT
ATOM      1  C   UNL     1       5.150   6.344  16.660  0.00  0.00    +0.000 C 
ATOM      2  C   UNL     1       6.418   7.150  17.007  0.00  0.00    +0.000 C 
ATOM      3  C   UNL     1       7.062   6.648  18.314  0.00  0.00    +0.000 C 
ATOM      4  O   UNL     1       7.135   5.230  18.483  0.00  0.00    +0.000 OA
ATOM      5  C   UNL     1       6.030   4.438  18.009  0.00  0.00    +0.000 C 
ATOM      6  C   UNL     1       5.615   4.854  16.588  0.00  0.00    +0.000 C 
ENDROOT
BRANCH   1   9
ATOM      7  C   UNL     1       3.290   6.138  18.678  0.00  0.00    +0.000 C 
ATOM      8  O   UNL     1       2.957   7.117  19.371  0.00  0.00    +0.000 OA
ATOM      9  N   UNL     1       4.191   6.568  17.779  0.00  0.00    +0.000 N 
ATOM     10  H   UNL     1       4.210   7.546  18.047  0.00  0.00    +0.000 HD
BRANCH   7  16
ATOM     11  C   UNL     1       2.509   3.340  16.899  0.00  0.00    +0.000 C 
ATOM     12  N   UNL     1       2.343   3.695  18.291  0.00  0.00    +0.000 N 
ATOM     13  C   UNL     1       1.809   2.763  19.182  0.00  0.00    +0.000 A 
ATOM     14  C   UNL     1       1.772   3.321  20.435  0.00  0.00    +0.000 A 
ATOM     15  C   UNL     1       2.278   4.616  20.292  0.00  0.00    +0.000 A 
ATOM     16  C   UNL     1       2.674   4.858  18.964  0.00  0.00    +0.000 A 
BRANCH  14  17
ATOM     17  C   UNL     1       1.335   2.694  21.638  0.00  0.00    +0.000 C 
ATOM     18  N   UNL     1       0.976   2.198  22.629  0.00  0.00    +0.000 NA
ENDBRANCH  14  17
ENDBRANCH   7  16
ENDBRANCH   1   9
BRANCH   6  19
ATOM     19  O   UNL     1       6.862   4.626  15.907  0.00  0.00    +0.000 OA
BRANCH  19  20
ATOM     20  C   UNL     1       6.959   4.671  14.555  0.00  0.00    +0.000 A 
ATOM     21  C   UNL     1       6.163   3.743  13.886  0.00  0.00    +0.000 A 
ATOM     22  C   UNL     1       6.307   3.616  12.513  0.00  0.00    +0.000 A 
ATOM     23  C   UNL     1       7.233   4.423  11.867  0.00  0.00    +0.000 A 
ATOM     24  C   UNL     1       7.963   5.335  12.625  0.00  0.00    +0.000 A 
ATOM     25  N   UNL     1       7.857   5.478  13.967  0.00  0.00    +0.000 NA
ENDBRANCH  19  20
ENDBRANCH   6  19
TORSDOF 5
ENDMDL
MODEL 4
REMARK VINA RESULT:      -7.5      0.613      1.004
REMARK  Name = 
REMARK  6 active torsions:
REMARK  status: ('A' for Active; 'I' for Inactive)
REMARK    1  A    between atoms: C_1  and  N_2
REMARK    2  A    between atoms: C_4  and  C_5
REMARK    3  A    between atoms: C_8  and  C_9
REMARK    4  A    between atoms: N_11  and  C_12
REMARK    5  A    between atoms: C_17  and  O_18
REMARK    6  A    between atoms: O_18  and  C_19
REMARK                            x       y       z     vdW  Elec       q    Type
REMARK                         _______ _______ _______ _____ _____    ______ ____
ROOT
ATOM      1  C   UNL     1       5.360   4.081  16.779  0.00  0.00    +0.000 C 
ATOM      2  C   UNL     1       4.857   5.538  16.745  0.00  0.00    +0.000 C 
ATOM      3  C   UNL     1       5.661   6.432  17.709  0.00  0.00    +0.000 C 
ATOM      4  O   UNL     1       7.078   6.241  17.721  0.00  0.00    +0.000 OA
ATOM      5  C   UNL     1       7.578   4.898  17.583  0.00  0.00    +0.000 C 
ATOM      6  C   UNL     1       6.880   4.160  16.427  0.00  0.00    +0.000 C 
ENDROOT
BRANCH   1   9
ATOM      7  C   UNL     1       4.418   3.496  19.298  0.00  0.00    +0.000 C 
ATOM      8  O   UNL     1       5.038   2.751  20.078  0.00  0.00    +0.000 OA
ATOM      9  N   UNL     1       5.143   3.595  18.172  0.00  0.00    +0.000 N 
ATOM     10  H   UNL     1       5.923   3.008  18.449  0.00  0.00    +0.000 HD
BRANCH   7  16
ATOM     11  C   UNL     1       1.323   2.285  20.047  0.00  0.00    +0.000 C 
ATOM     12  N   UNL     1       1.886   3.616  20.070  0.00  0.00    +0.000 N 
ATOM     13  C   UNL     1       1.109   4.687  20.513  0.00  0.00    +0.000 A 
ATOM     14  C   UNL     1       1.864   5.832  20.463  0.00  0.00    +0.000 A 
ATOM     15  C   UNL     1       3.112   5.445  19.965  0.00  0.00    +0.000 A 
ATOM     16  C   UNL     1       3.158   4.056  19.746  0.00  0.00    +0.000 A 
BRANCH  14  17
ATOM     17  C   UNL     1       1.464   7.139  20.866  0.00  0.00    +0.000 C 
ATOM     18  N   UNL     1       1.145   8.205  21.211  0.00  0.00    +0.000 NA
ENDBRANCH  14  17
ENDBRANCH   7  16
ENDBRANCH   1   9
BRANCH   6  19
ATOM     19  O   UNL     1       7.221   5.049  15.348  0.00  0.00    +0.000 OA
BRANCH  19  20
ATOM     20  C   UNL     1       7.152   4.659  14.050  0.00  0.00    +0.000 A 
ATOM     21  C   UNL     1       7.898   5.440  13.170  0.00  0.00    +0.000 A 
ATOM     22  C   UNL     1       7.771   5.208  11.809  0.00  0.00    +0.000 A 
ATOM     23  C   UNL     1       6.911   4.204  11.386  0.00  0.00    +0.000 A 
ATOM     24  C   UNL     1       6.228   3.466  12.348  0.00  0.00    +0.000 A 
ATOM     25  N   UNL     1       6.318   3.672  13.684  0.00  0.00    +0.000 NA
ENDBRANCH  19  20
ENDBRANCH   6  19
TORSDOF 5
ENDMDL
MODEL 5
REMARK VINA RESULT:      -7.3      2.218      7.770
REMARK  Name = 
REMARK  6 active torsions:
REMARK  status: ('A' for Active; 'I' for Inactive)
REMARK    1  A    between atoms: C_1  and  N_2
REMARK    2  A    between atoms: C_4  and  C_5
REMARK    3  A    between atoms: C_8  and  C_9
REMARK    4  A    between atoms: N_11  and  C_12
REMARK    5  A    between atoms: C_17  and  O_18
REMARK    6  A    between atoms: O_18  and  C_19
REMARK                            x       y       z     vdW  Elec       q    Type
REMARK                         _______ _______ _______ _____ _____    ______ ____
ROOT
ATOM      1  C   UNL     1       4.447   5.499  16.929  0.00  0.00    +0.000 C 
ATOM      2  C   UNL     1       3.678   4.177  17.125  0.00  0.00    +0.000 C 
ATOM      3  C   UNL     1       4.260   3.356  18.292  0.00  0.00    +0.000 C 
ATOM      4  O   UNL     1       4.600   4.084  19.475  0.00  0.00    +0.000 OA
ATOM      5  C   UNL     1       5.166   5.398  19.317  0.00  0.00    +0.000 C 
ATOM      6  C   UNL     1       4.363   6.234  18.306  0.00  0.00    +0.000 C 
ENDROOT
BRANCH   1   9
ATOM      7  C   UNL     1       6.812   4.779  15.719  0.00  0.00    +0.000 C 
ATOM      8  O   UNL     1       7.874   4.673  16.358  0.00  0.00    +0.000 OA
ATOM      9  N   UNL     1       5.849   5.122  16.591  0.00  0.00    +0.000 N 
ATOM     10  H   UNL     1       6.414   5.138  17.434  0.00  0.00    +0.000 HD
BRANCH   7  16
ATOM     11  C   UNL     1       8.634   5.889  13.063  0.00  0.00    +0.000 C 
ATOM     12  N   UNL     1       7.558   4.930  13.182  0.00  0.00    +0.000 N 
ATOM     13  C   UNL     1       7.133   4.226  12.054  0.00  0.00    +0.000 A 
ATOM     14  C   UNL     1       6.127   3.368  12.422  0.00  0.00    +0.000 A 
ATOM     15  C   UNL     1       5.933   3.571  13.791  0.00  0.00    +0.000 A 
ATOM     16  C   UNL     1       6.843   4.519  14.294  0.00  0.00    +0.000 A 
BRANCH  14  17
ATOM     17  C   UNL     1       5.443   2.441  11.583  0.00  0.00    +0.000 C 
ATOM     18  N   UNL     1       4.898   1.685  10.884  0.00  0.00    +0.000 NA
ENDBRANCH  14  17
ENDBRANCH   7  16
ENDBRANCH   1   9
BRANCH   6  19
ATOM     19  O   UNL     1       3.077   6.200  18.949  0.00  0.00    +0.000 OA
BRANCH  19  20
ATOM     20  C   UNL     1       2.317   7.315  19.091  0.00  0.00    +0.000 A 
ATOM     21  C   UNL     1       2.212   8.094  17.942  0.00  0.00    +0.000 A 
ATOM     22  C   UNL     1       1.581   9.325  18.032  0.00  0.00    +0.000 A 
ATOM     23  C   UNL     1       1.077   9.722  19.263  0.00  0.00    +0.000 A 
ATOM     24  C   UNL     1       1.215   8.859  20.347  0.00  0.00    +0.000 A 
ATOM     25  N   UNL     1       1.835   7.656  20.297  0.00  0.00    +0.000 NA
ENDBRANCH  19  20
ENDBRANCH   6  19
TORSDOF 5
ENDMDL
MODEL 6
REMARK VINA RESULT:      -7.3      1.745      2.502
REMARK  Name = 
REMARK  6 active torsions:
REMARK  status: ('A' for Active; 'I' for Inactive)
REMARK    1  A    between atoms: C_1  and  N_2
REMARK    2  A    between atoms: C_4  and  C_5
REMARK    3  A    between atoms: C_8  and  C_9
REMARK    4  A    between atoms: N_11  and  C_12
REMARK    5  A    between atoms: C_17  and  O_18
REMARK    6  A    between atoms: O_18  and  C_19
REMARK                            x       y       z     vdW  Elec       q    Type
REMARK                         _______ _______ _______ _____ _____    ______ ____
ROOT
ATOM      1  C   UNL     1       4.990   5.642  16.950  0.00  0.00    +0.000 C 
ATOM      2  C   UNL     1       5.730   6.986  17.097  0.00  0.00    +0.000 C 
ATOM      3  C   UNL     1       6.747   6.944  18.254  0.00  0.00    +0.000 C 
ATOM      4  O   UNL     1       7.539   5.758  18.362  0.00  0.00    +0.000 OA
ATOM      5  C   UNL     1       6.910   4.498  18.062  0.00  0.00    +0.000 C 
ATOM      6  C   UNL     1       6.111   4.572  16.749  0.00  0.00    +0.000 C 
ENDROOT
BRANCH   1   9
ATOM      7  C   UNL     1       3.375   5.811  19.172  0.00  0.00    +0.000 C 
ATOM      8  O   UNL     1       3.288   4.883  19.997  0.00  0.00    +0.000 OA
ATOM      9  N   UNL     1       4.249   5.429  18.226  0.00  0.00    +0.000 N 
ATOM     10  H   UNL     1       4.486   4.518  18.605  0.00  0.00    +0.000 HD
BRANCH   7  16
ATOM     11  C   UNL     1       2.581   8.606  17.394  0.00  0.00    +0.000 C 
ATOM     12  N   UNL     1       2.227   8.155  18.721  0.00  0.00    +0.000 N 
ATOM     13  C   UNL     1       1.354   8.917  19.499  0.00  0.00    +0.000 A 
ATOM     14  C   UNL     1       1.156   8.277  20.697  0.00  0.00    +0.000 A 
ATOM     15  C   UNL     1       1.935   7.118  20.644  0.00  0.00    +0.000 A 
ATOM     16  C   UNL     1       2.586   7.005  19.402  0.00  0.00    +0.000 A 
BRANCH  14  17
ATOM     17  C   UNL     1       0.305   8.697  21.761  0.00  0.00    +0.000 C 
ATOM     18  N   UNL     1      -0.379   9.053  22.633  0.00  0.00    +0.000 NA
ENDBRANCH  14  17
ENDBRANCH   7  16
ENDBRANCH   1   9
BRANCH   6  19
ATOM     19  O   UNL     1       7.174   4.948  15.855  0.00  0.00    +0.000 OA
BRANCH  19  20
ATOM     20  C   UNL     1       7.062   4.804  14.510  0.00  0.00    +0.000 A 
ATOM     21  C   UNL     1       6.190   3.796  14.106  0.00  0.00    +0.000 A 
ATOM     22  C   UNL     1       6.125   3.479  12.758  0.00  0.00    +0.000 A 
ATOM     23  C   UNL     1       6.928   4.184  11.872  0.00  0.00    +0.000 A 
ATOM     24  C   UNL     1       7.750   5.188  12.376  0.00  0.00    +0.000 A 
ATOM     25  N   UNL     1       7.847   5.517  13.686  0.00  0.00    +0.000 NA
ENDBRANCH  19  20
ENDBRANCH   6  19
TORSDOF 5
ENDMDL
MODEL 7
REMARK VINA RESULT:      -7.2      2.019      3.164
REMARK  Name = 
REMARK  6 active torsions:
REMARK  status: ('A' for Active; 'I' for Inactive)
REMARK    1  A    between atoms: C_1  and  N_2
REMARK    2  A    between atoms: C_4  and  C_5
REMARK    3  A    between atoms: C_8  and  C_9
REMARK    4  A    between atoms: N_11  and  C_12
REMARK    5  A    between atoms: C_17  and  O_18
REMARK    6  A    between atoms: O_18  and  C_19
REMARK                            x       y       z     vdW  Elec       q    Type
REMARK                         _______ _______ _______ _____ _____    ______ ____
ROOT
ATOM      1  C   UNL     1       4.465   6.115  17.132  0.00  0.00    +0.000 C 
ATOM      2  C   UNL     1       5.667   6.697  17.903  0.00  0.00    +0.000 C 
ATOM      3  C   UNL     1       6.232   5.680  18.913  0.00  0.00    +0.000 C 
ATOM      4  O   UNL     1       6.353   4.330  18.456  0.00  0.00    +0.000 OA
ATOM      5  C   UNL     1       5.323   3.817  17.592  0.00  0.00    +0.000 C 
ATOM      6  C   UNL     1       4.998   4.808  16.461  0.00  0.00    +0.000 C 
ENDROOT
BRANCH   1   9
ATOM      7  C   UNL     1       2.478   6.201  19.034  0.00  0.00    +0.000 C 
ATOM      8  O   UNL     1       1.956   5.168  19.490  0.00  0.00    +0.000 OA
ATOM      9  N   UNL     1       3.416   5.823  18.150  0.00  0.00    +0.000 N 
ATOM     10  H   UNL     1       3.306   4.819  18.241  0.00  0.00    +0.000 HD
BRANCH   7  16
ATOM     11  C   UNL     1       1.901   9.282  17.697  0.00  0.00    +0.000 C 
ATOM     12  N   UNL     1       1.745   8.747  19.031  0.00  0.00    +0.000 N 
ATOM     13  C   UNL     1       1.218   9.554  20.041  0.00  0.00    +0.000 A 
ATOM     14  C   UNL     1       1.148   8.823  21.200  0.00  0.00    +0.000 A 
ATOM     15  C   UNL     1       1.656   7.559  20.886  0.00  0.00    +0.000 A 
ATOM     16  C   UNL     1       2.003   7.480  19.525  0.00  0.00    +0.000 A 
BRANCH  14  17
ATOM     17  C   UNL     1       0.633   9.257  22.456  0.00  0.00    +0.000 C 
ATOM     18  N   UNL     1       0.224   9.601  23.491  0.00  0.00    +0.000 NA
ENDBRANCH  14  17
ENDBRANCH   7  16
ENDBRANCH   1   9
BRANCH   6  19
ATOM     19  O   UNL     1       6.302   4.907  15.860  0.00  0.00    +0.000 OA
BRANCH  19  20
ATOM     20  C   UNL     1       6.525   4.549  14.571  0.00  0.00    +0.000 A 
ATOM     21  C   UNL     1       7.528   5.275  13.933  0.00  0.00    +0.000 A 
ATOM     22  C   UNL     1       7.725   5.081  12.575  0.00  0.00    +0.000 A 
ATOM     23  C   UNL     1       6.915   4.168  11.913  0.00  0.00    +0.000 A 
ATOM     24  C   UNL     1       5.954   3.478  12.647  0.00  0.00    +0.000 A 
ATOM     25  N   UNL     1       5.728   3.650  13.971  0.00  0.00    +0.000 NA
ENDBRANCH  19  20
ENDBRANCH   6  19
TORSDOF 5
ENDMDL
MODEL 8
REMARK VINA RESULT:      -7.0      2.379      8.048
REMARK  Name = 
REMARK  6 active torsions:
REMARK  status: ('A' for Active; 'I' for Inactive)
REMARK    1  A    between atoms: C_1  and  N_2
REMARK    2  A    between atoms: C_4  and  C_5
REMARK    3  A    between atoms: C_8  and  C_9
REMARK    4  A    between atoms: N_11  and  C_12
REMARK    5  A    between atoms: C_17  and  O_18
REMARK    6  A    between atoms: O_18  and  C_19
REMARK                            x       y       z     vdW  Elec       q    Type
REMARK                         _______ _______ _______ _____ _____    ______ ____
ROOT
ATOM      1  C   UNL     1       2.818   5.878  18.963  0.00  0.00    +0.000 C 
ATOM      2  C   UNL     1       1.591   5.181  18.344  0.00  0.00    +0.000 C 
ATOM      3  C   UNL     1       1.211   3.911  19.131  0.00  0.00    +0.000 C 
ATOM      4  O   UNL     1       1.243   4.013  20.557  0.00  0.00    +0.000 OA
ATOM      5  C   UNL     1       2.288   4.804  21.152  0.00  0.00    +0.000 C 
ATOM      6  C   UNL     1       2.427   6.165  20.448  0.00  0.00    +0.000 C 
ENDROOT
BRANCH   1   9
ATOM      7  C   UNL     1       5.037   4.405  18.267  0.00  0.00    +0.000 C 
ATOM      8  O   UNL     1       5.467   3.482  18.983  0.00  0.00    +0.000 OA
ATOM      9  N   UNL     1       3.945   4.906  18.868  0.00  0.00    +0.000 N 
ATOM     10  H   UNL     1       3.926   4.290  19.674  0.00  0.00    +0.000 HD
BRANCH   7  16
ATOM     11  C   UNL     1       7.544   6.513  17.330  0.00  0.00    +0.000 C 
ATOM     12  N   UNL     1       6.764   5.533  16.607  0.00  0.00    +0.000 N 
ATOM     13  C   UNL     1       7.041   5.289  15.261  0.00  0.00    +0.000 A 
ATOM     14  C   UNL     1       6.192   4.312  14.805  0.00  0.00    +0.000 A 
ATOM     15  C   UNL     1       5.379   3.975  15.891  0.00  0.00    +0.000 A 
ATOM     16  C   UNL     1       5.745   4.703  17.039  0.00  0.00    +0.000 A 
BRANCH  14  17
ATOM     17  C   UNL     1       6.167   3.740  13.500  0.00  0.00    +0.000 C 
ATOM     18  N   UNL     1       6.152   3.289  12.426  0.00  0.00    +0.000 NA
ENDBRANCH  14  17
ENDBRANCH   7  16
ENDBRANCH   1   9
BRANCH   6  19
ATOM     19  O   UNL     1       1.094   6.667  20.652  0.00  0.00    +0.000 OA
BRANCH  19  20
ATOM     20  C   UNL     1       0.850   7.984  20.867  0.00  0.00    +0.000 A 
ATOM     21  C   UNL     1       0.056   8.253  21.980  0.00  0.00    +0.000 A 
ATOM     22  C   UNL     1      -0.366   9.555  22.193  0.00  0.00    +0.000 A 
ATOM     23  C   UNL     1       0.025  10.534  21.290  0.00  0.00    +0.000 A 
ATOM     24  C   UNL     1       0.838  10.165  20.221  0.00  0.00    +0.000 A 
ATOM     25  N   UNL     1       1.260   8.902  19.977  0.00  0.00    +0.000 NA
ENDBRANCH  19  20
ENDBRANCH   6  19
TORSDOF 5
ENDMDL
MODEL 9
REMARK VINA RESULT:      -7.0      2.265      3.843
REMARK  Name = 
REMARK  6 active torsions:
REMARK  status: ('A' for Active; 'I' for Inactive)
REMARK    1  A    between atoms: C_1  and  N_2
REMARK    2  A    between atoms: C_4  and  C_5
REMARK    3  A    between atoms: C_8  and  C_9
REMARK    4  A    between atoms: N_11  and  C_12
REMARK    5  A    between atoms: C_17  and  O_18
REMARK    6  A    between atoms: O_18  and  C_19
REMARK                            x       y       z     vdW  Elec       q    Type
REMARK                         _______ _______ _______ _____ _____    ______ ____
ROOT
ATOM      1  C   UNL     1       4.118   4.417  18.958  0.00  0.00    +0.000 C 
ATOM      2  C   UNL     1       4.460   2.962  19.339  0.00  0.00    +0.000 C 
ATOM      3  C   UNL     1       3.286   2.012  19.038  0.00  0.00    +0.000 C 
ATOM      4  O   UNL     1       2.611   2.209  17.792  0.00  0.00    +0.000 OA
ATOM      5  C   UNL     1       2.429   3.560  17.332  0.00  0.00    +0.000 C 
ATOM      6  C   UNL     1       3.734   4.368  17.444  0.00  0.00    +0.000 C 
ENDROOT
BRANCH   1   9
ATOM      7  C   UNL     1       2.068   5.707  20.264  0.00  0.00    +0.000 C 
ATOM      8  O   UNL     1       1.295   5.107  21.033  0.00  0.00    +0.000 OA
ATOM      9  N   UNL     1       2.958   4.811  19.808  0.00  0.00    +0.000 N 
ATOM     10  H   UNL     1       2.619   3.998  20.311  0.00  0.00    +0.000 HD
BRANCH   7  16
ATOM     11  C   UNL     1       2.584   7.915  17.722  0.00  0.00    +0.000 C 
ATOM     12  N   UNL     1       2.041   8.063  19.054  0.00  0.00    +0.000 N 
ATOM     13  C   UNL     1       1.560   9.306  19.470  0.00  0.00    +0.000 A 
ATOM     14  C   UNL     1       1.081   9.188  20.750  0.00  0.00    +0.000 A 
ATOM     15  C   UNL     1       1.291   7.856  21.117  0.00  0.00    +0.000 A 
ATOM     16  C   UNL     1       1.859   7.126  20.056  0.00  0.00    +0.000 A 
BRANCH  14  17
ATOM     17  C   UNL     1       0.466  10.210  21.531  0.00  0.00    +0.000 C 
ATOM     18  N   UNL     1      -0.051  11.044  22.159  0.00  0.00    +0.000 NA
ENDBRANCH  14  17
ENDBRANCH   7  16
ENDBRANCH   1   9
BRANCH   6  19
ATOM     19  O   UNL     1       4.581   3.552  16.615  0.00  0.00    +0.000 OA
BRANCH  19  20
ATOM     20  C   UNL     1       5.472   4.096  15.748  0.00  0.00    +0.000 A 
ATOM     21  C   UNL     1       5.311   3.694  14.424  0.00  0.00    +0.000 A 
ATOM     22  C   UNL     1       6.263   4.081  13.495  0.00  0.00    +0.000 A 
ATOM     23  C   UNL     1       7.332   4.857  13.925  0.00  0.00    +0.000 A 
ATOM     24  C   UNL     1       7.388   5.223  15.266  0.00  0.00    +0.000 A 
ATOM     25  N   UNL     1       6.483   4.854  16.203  0.00  0.00    +0.000 NA
ENDBRANCH  19  20
ENDBRANCH   6  19
TORSDOF 5
ENDMDL
