MODEL 1
REMARK VINA RESULT:      -6.8      0.000      0.000
REMARK  Name = 
REMARK  4 active torsions:
REMARK  status: ('A' for Active; 'I' for Inactive)
REMARK    1  A    between atoms: C_1  and  N_2
REMARK    2  A    between atoms: C_8  and  O_9
REMARK    3  A    between atoms: C_10  and  O_11
REMARK    4  A    between atoms: C_14  and  C_15
REMARK                            x       y       z     vdW  Elec       q    Type
REMARK                         _______ _______ _______ _____ _____    ______ ____
ROOT
ATOM      1  C   UNL     1       2.395   9.216  17.903  0.00  0.00    +0.000 C 
ATOM      2  N   UNL     1       3.086   7.971  18.237  0.00  0.00    +0.000 NA
ATOM      3  C   UNL     1       2.426   7.305  19.372  0.00  0.00    +0.000 C 
ATOM      4  C   UNL     1       3.210   6.126  19.968  0.00  0.00    +0.000 C 
ATOM      5  C   UNL     1       2.997   4.838  19.194  0.00  0.00    +0.000 A 
ATOM      6  C   UNL     1       3.476   4.747  17.857  0.00  0.00    +0.000 A 
ATOM      7  C   UNL     1       3.199   3.587  17.103  0.00  0.00    +0.000 A 
ATOM      8  C   UNL     1       2.462   2.549  17.656  0.00  0.00    +0.000 A 
ATOM      9  C   UNL     1       2.012   2.621  18.970  0.00  0.00    +0.000 A 
ATOM     10  C   UNL     1       2.279   3.751  19.748  0.00  0.00    +0.000 A 
ATOM     11 CL   UNL     1       1.676   3.786  21.375  0.00  0.00    +0.000 Cl
ATOM     12  C   UNL     1       4.206   5.909  17.166  0.00  0.00    +0.000 C 
ATOM     13  C   UNL     1       3.213   7.111  17.044  0.00  0.00    +0.000 C 
ENDROOT
BRANCH  12  14
ATOM     14  C   UNL     1       5.610   6.252  17.689  0.00  0.00    +0.000 A 
ATOM     15  C   UNL     1       6.251   5.458  18.653  0.00  0.00    +0.000 A 
ATOM     16  C   UNL     1       7.516   5.806  19.147  0.00  0.00    +0.000 A 
ATOM     17  C   UNL     1       8.174   6.936  18.668  0.00  0.00    +0.000 A 
ATOM     18  C   UNL     1       7.582   7.706  17.676  0.00  0.00    +0.000 A 
ATOM     19  C   UNL     1       6.325   7.355  17.181  0.00  0.00    +0.000 A 
ENDBRANCH  12  14
BRANCH   8  20
ATOM     20  O   UNL     1       2.127   1.433  16.935  0.00  0.00    +0.000 OA
ATOM     21  H   UNL     1       2.340   0.645  17.464  0.00  0.00    +0.000 HD
ENDBRANCH   8  20
BRANCH   9  22
ATOM     22  O   UNL     1       1.283   1.568  19.462  0.00  0.00    +0.000 OA
ATOM     23  H   UNL     1       1.838   0.779  19.307  0.00  0.00    +0.000 HD
ENDBRANCH   9  22
TORSDOF 3
ENDMDL
MODEL 2
REMARK VINA RESULT:      -6.8      0.039      1.049
REMARK  Name = 
REMARK  4 active torsions:
REMARK  status: ('A' for Active; 'I' for Inactive)
REMARK    1  A    between atoms: C_1  and  N_2
REMARK    2  A    between atoms: C_8  and  O_9
REMARK    3  A    between atoms: C_10  and  O_11
REMARK    4  A    between atoms: C_14  and  C_15
REMARK                            x       y       z     vdW  Elec       q    Type
REMARK                         _______ _______ _______ _____ _____    ______ ____
ROOT
ATOM      1  C   UNL     1       2.359   9.218  17.904  0.00  0.00    +0.000 C 
ATOM      2  N   UNL     1       3.055   7.976  18.241  0.00  0.00    +0.000 NA
ATOM      3  C   UNL     1       2.394   7.307  19.373  0.00  0.00    +0.000 C 
ATOM      4  C   UNL     1       3.182   6.132  19.972  0.00  0.00    +0.000 C 
ATOM      5  C   UNL     1       2.979   4.844  19.198  0.00  0.00    +0.000 A 
ATOM      6  C   UNL     1       3.464   4.754  17.863  0.00  0.00    +0.000 A 
ATOM      7  C   UNL     1       3.196   3.593  17.108  0.00  0.00    +0.000 A 
ATOM      8  C   UNL     1       2.462   2.551  17.659  0.00  0.00    +0.000 A 
ATOM      9  C   UNL     1       2.007   2.621  18.970  0.00  0.00    +0.000 A 
ATOM     10  C   UNL     1       2.265   3.752  19.750  0.00  0.00    +0.000 A 
ATOM     11 CL   UNL     1       1.655   3.784  21.374  0.00  0.00    +0.000 Cl
ATOM     12  C   UNL     1       4.190   5.920  17.175  0.00  0.00    +0.000 C 
ATOM     13  C   UNL     1       3.191   7.117  17.049  0.00  0.00    +0.000 C 
ENDROOT
BRANCH  12  14
ATOM     14  C   UNL     1       5.591   6.270  17.703  0.00  0.00    +0.000 A 
ATOM     15  C   UNL     1       6.298   7.387  17.231  0.00  0.00    +0.000 A 
ATOM     16  C   UNL     1       7.589   7.670  17.695  0.00  0.00    +0.000 A 
ATOM     17  C   UNL     1       8.188   6.859  18.656  0.00  0.00    +0.000 A 
ATOM     18  C   UNL     1       7.486   5.779  19.175  0.00  0.00    +0.000 A 
ATOM     19  C   UNL     1       6.197   5.503  18.717  0.00  0.00    +0.000 A 
ENDBRANCH  12  14
BRANCH   8  20
ATOM     20  O   UNL     1       2.135   1.434  16.937  0.00  0.00    +0.000 OA
ATOM     21  H   UNL     1       2.879   0.808  16.979  0.00  0.00    +0.000 HD
ENDBRANCH   8  20
BRANCH   9  22
ATOM     22  O   UNL     1       1.281   1.564  19.460  0.00  0.00    +0.000 OA
ATOM     23  H   UNL     1       0.719   1.945  20.163  0.00  0.00    +0.000 HD
ENDBRANCH   9  22
TORSDOF 3
ENDMDL
MODEL 3
REMARK VINA RESULT:      -6.5      3.172      5.004
REMARK  Name = 
REMARK  4 active torsions:
REMARK  status: ('A' for Active; 'I' for Inactive)
REMARK    1  A    between atoms: C_1  and  N_2
REMARK    2  A    between atoms: C_8  and  O_9
REMARK    3  A    between atoms: C_10  and  O_11
REMARK    4  A    between atoms: C_14  and  C_15
REMARK                            x       y       z     vdW  Elec       q    Type
REMARK                         _______ _______ _______ _____ _____    ______ ____
ROOT
ATOM      1  C   UNL     1       2.521   2.618  20.844  0.00  0.00    +0.000 C 
ATOM      2  N   UNL     1       3.067   3.723  20.058  0.00  0.00    +0.000 NA
ATOM      3  C   UNL     1       4.538   3.716  20.114  0.00  0.00    +0.000 C 
ATOM      4  C   UNL     1       5.207   4.972  19.536  0.00  0.00    +0.000 C 
ATOM      5  C   UNL     1       5.345   4.914  18.026  0.00  0.00    +0.000 A 
ATOM      6  C   UNL     1       4.171   4.922  17.223  0.00  0.00    +0.000 A 
ATOM      7  C   UNL     1       4.290   4.774  15.825  0.00  0.00    +0.000 A 
ATOM      8  C   UNL     1       5.539   4.616  15.239  0.00  0.00    +0.000 A 
ATOM      9  C   UNL     1       6.692   4.632  16.015  0.00  0.00    +0.000 A 
ATOM     10  C   UNL     1       6.610   4.788  17.402  0.00  0.00    +0.000 A 
ATOM     11 CL   UNL     1       8.086   4.784  18.316  0.00  0.00    +0.000 Cl
ATOM     12  C   UNL     1       2.762   4.989  17.832  0.00  0.00    +0.000 C 
ATOM     13  C   UNL     1       2.530   3.698  18.683  0.00  0.00    +0.000 C 
ENDROOT
BRANCH  12  14
ATOM     14  C   UNL     1       2.361   6.313  18.502  0.00  0.00    +0.000 A 
ATOM     15  C   UNL     1       2.027   6.378  19.864  0.00  0.00    +0.000 A 
ATOM     16  C   UNL     1       1.626   7.586  20.450  0.00  0.00    +0.000 A 
ATOM     17  C   UNL     1       1.578   8.756  19.695  0.00  0.00    +0.000 A 
ATOM     18  C   UNL     1       1.955   8.725  18.359  0.00  0.00    +0.000 A 
ATOM     19  C   UNL     1       2.360   7.522  17.778  0.00  0.00    +0.000 A 
ENDBRANCH  12  14
BRANCH   8  20
ATOM     20  O   UNL     1       5.688   4.414  13.893  0.00  0.00    +0.000 OA
ATOM     21  H   UNL     1       5.868   3.471  13.737  0.00  0.00    +0.000 HD
ENDBRANCH   8  20
BRANCH   9  22
ATOM     22  O   UNL     1       7.899   4.466  15.384  0.00  0.00    +0.000 OA
ATOM     23  H   UNL     1       8.269   3.640  15.754  0.00  0.00    +0.000 HD
ENDBRANCH   9  22
TORSDOF 3
ENDMDL
MODEL 4
REMARK VINA RESULT:      -6.5      3.183      5.115
REMARK  Name = 
REMARK  4 active torsions:
REMARK  status: ('A' for Active; 'I' for Inactive)
REMARK    1  A    between atoms: C_1  and  N_2
REMARK    2  A    between atoms: C_8  and  O_9
REMARK    3  A    between atoms: C_10  and  O_11
REMARK    4  A    between atoms: C_14  and  C_15
REMARK                            x       y       z     vdW  Elec       q    Type
REMARK                         _______ _______ _______ _____ _____    ______ ____
ROOT
ATOM      1  C   UNL     1       2.525   2.510  20.842  0.00  0.00    +0.000 C 
ATOM      2  N   UNL     1       3.065   3.629  20.070  0.00  0.00    +0.000 NA
ATOM      3  C   UNL     1       4.536   3.631  20.128  0.00  0.00    +0.000 C 
ATOM      4  C   UNL     1       5.198   4.899  19.567  0.00  0.00    +0.000 C 
ATOM      5  C   UNL     1       5.337   4.860  18.057  0.00  0.00    +0.000 A 
ATOM      6  C   UNL     1       4.164   4.870  17.252  0.00  0.00    +0.000 A 
ATOM      7  C   UNL     1       4.286   4.741  15.852  0.00  0.00    +0.000 A 
ATOM      8  C   UNL     1       5.536   4.598  15.266  0.00  0.00    +0.000 A 
ATOM      9  C   UNL     1       6.688   4.613  16.044  0.00  0.00    +0.000 A 
ATOM     10  C   UNL     1       6.604   4.751  17.433  0.00  0.00    +0.000 A 
ATOM     11 CL   UNL     1       8.079   4.745  18.348  0.00  0.00    +0.000 Cl
ATOM     12  C   UNL     1       2.754   4.921  17.860  0.00  0.00    +0.000 C 
ATOM     13  C   UNL     1       2.530   3.617  18.695  0.00  0.00    +0.000 C 
ENDROOT
BRANCH  12  14
ATOM     14  C   UNL     1       2.344   6.234  18.546  0.00  0.00    +0.000 A 
ATOM     15  C   UNL     1       2.333   7.455  17.854  0.00  0.00    +0.000 A 
ATOM     16  C   UNL     1       1.994   8.648  18.504  0.00  0.00    +0.000 A 
ATOM     17  C   UNL     1       1.633   8.642  19.850  0.00  0.00    +0.000 A 
ATOM     18  C   UNL     1       1.585   7.438  20.541  0.00  0.00    +0.000 A 
ATOM     19  C   UNL     1       1.918   6.249  19.889  0.00  0.00    +0.000 A 
ENDBRANCH  12  14
BRANCH   8  20
ATOM     20  O   UNL     1       5.688   4.414  13.918  0.00  0.00    +0.000 OA
ATOM     21  H   UNL     1       5.259   5.153  13.453  0.00  0.00    +0.000 HD
ENDBRANCH   8  20
BRANCH   9  22
ATOM     22  O   UNL     1       7.897   4.462  15.412  0.00  0.00    +0.000 OA
ATOM     23  H   UNL     1       7.675   4.265  14.481  0.00  0.00    +0.000 HD
ENDBRANCH   9  22
TORSDOF 3
ENDMDL
MODEL 5
REMARK VINA RESULT:      -6.3      3.131      5.474
REMARK  Name = 
REMARK  4 active torsions:
REMARK  status: ('A' for Active; 'I' for Inactive)
REMARK    1  A    between atoms: C_1  and  N_2
REMARK    2  A    between atoms: C_8  and  O_9
REMARK    3  A    between atoms: C_10  and  O_11
REMARK    4  A    between atoms: C_14  and  C_15
REMARK                            x       y       z     vdW  Elec       q    Type
REMARK                         _______ _______ _______ _____ _____    ______ ____
ROOT
ATOM      1  C   UNL     1       1.394   8.248  20.425  0.00  0.00    +0.000 C 
ATOM      2  N   UNL     1       2.002   7.143  19.685  0.00  0.00    +0.000 NA
ATOM      3  C   UNL     1       2.480   7.605  18.371  0.00  0.00    +0.000 C 
ATOM      4  C   UNL     1       2.905   6.482  17.412  0.00  0.00    +0.000 C 
ATOM      5  C   UNL     1       4.322   6.005  17.670  0.00  0.00    +0.000 A 
ATOM      6  C   UNL     1       4.620   5.349  18.896  0.00  0.00    +0.000 A 
ATOM      7  C   UNL     1       5.954   4.987  19.179  0.00  0.00    +0.000 A 
ATOM      8  C   UNL     1       6.967   5.275  18.273  0.00  0.00    +0.000 A 
ATOM      9  C   UNL     1       6.679   5.893  17.063  0.00  0.00    +0.000 A 
ATOM     10  C   UNL     1       5.366   6.254  16.746  0.00  0.00    +0.000 A 
ATOM     11 CL   UNL     1       5.076   7.038  15.225  0.00  0.00    +0.000 Cl
ATOM     12  C   UNL     1       3.553   5.103  19.974  0.00  0.00    +0.000 C 
ATOM     13  C   UNL     1       3.049   6.489  20.494  0.00  0.00    +0.000 C 
ENDROOT
BRANCH  12  14
ATOM     14  C   UNL     1       2.460   4.074  19.643  0.00  0.00    +0.000 A 
ATOM     15  C   UNL     1       1.243   4.040  20.343  0.00  0.00    +0.000 A 
ATOM     16  C   UNL     1       0.273   3.072  20.054  0.00  0.00    +0.000 A 
ATOM     17  C   UNL     1       0.488   2.136  19.044  0.00  0.00    +0.000 A 
ATOM     18  C   UNL     1       1.661   2.184  18.303  0.00  0.00    +0.000 A 
ATOM     19  C   UNL     1       2.624   3.154  18.588  0.00  0.00    +0.000 A 
ENDBRANCH  12  14
BRANCH   8  20
ATOM     20  O   UNL     1       8.279   4.988  18.540  0.00  0.00    +0.000 OA
ATOM     21  H   UNL     1       8.721   4.748  17.707  0.00  0.00    +0.000 HD
ENDBRANCH   8  20
BRANCH   9  22
ATOM     22  O   UNL     1       7.720   6.158  16.209  0.00  0.00    +0.000 OA
ATOM     23  H   UNL     1       8.086   7.013  16.510  0.00  0.00    +0.000 HD
ENDBRANCH   9  22
TORSDOF 3
ENDMDL
MODEL 6
REMARK VINA RESULT:      -6.3      3.134      5.500
REMARK  Name = 
REMARK  4 active torsions:
REMARK  status: ('A' for Active; 'I' for Inactive)
REMARK    1  A    between atoms: C_1  and  N_2
REMARK    2  A    between atoms: C_8  and  O_9
REMARK    3  A    between atoms: C_10  and  O_11
REMARK    4  A    between atoms: C_14  and  C_15
REMARK                            x       y       z     vdW  Elec       q    Type
REMARK                         _______ _______ _______ _____ _____    ______ ____
ROOT
ATOM      1  C   UNL     1       1.384   8.184  20.482  0.00  0.00    +0.000 C 
ATOM      2  N   UNL     1       1.999   7.092  19.728  0.00  0.00    +0.000 NA
ATOM      3  C   UNL     1       2.474   7.575  18.420  0.00  0.00    +0.000 C 
ATOM      4  C   UNL     1       2.906   6.467  17.447  0.00  0.00    +0.000 C 
ATOM      5  C   UNL     1       4.326   5.996  17.698  0.00  0.00    +0.000 A 
ATOM      6  C   UNL     1       4.628   5.326  18.916  0.00  0.00    +0.000 A 
ATOM      7  C   UNL     1       5.965   4.969  19.195  0.00  0.00    +0.000 A 
ATOM      8  C   UNL     1       6.976   5.275  18.293  0.00  0.00    +0.000 A 
ATOM      9  C   UNL     1       6.684   5.907  17.090  0.00  0.00    +0.000 A 
ATOM     10  C   UNL     1       5.369   6.264  16.778  0.00  0.00    +0.000 A 
ATOM     11 CL   UNL     1       5.074   7.065  15.267  0.00  0.00    +0.000 Cl
ATOM     12  C   UNL     1       3.563   5.059  19.991  0.00  0.00    +0.000 C 
ATOM     13  C   UNL     1       3.050   6.435  20.529  0.00  0.00    +0.000 C 
ENDROOT
BRANCH  12  14
ATOM     14  C   UNL     1       2.477   4.027  19.646  0.00  0.00    +0.000 A 
ATOM     15  C   UNL     1       2.670   3.059  18.648  0.00  0.00    +0.000 A 
ATOM     16  C   UNL     1       1.655   2.151  18.320  0.00  0.00    +0.000 A 
ATOM     17  C   UNL     1       0.439   2.175  18.999  0.00  0.00    +0.000 A 
ATOM     18  C   UNL     1       0.245   3.090  20.026  0.00  0.00    +0.000 A 
ATOM     19  C   UNL     1       1.260   3.990  20.356  0.00  0.00    +0.000 A 
ENDBRANCH  12  14
BRANCH   8  20
ATOM     20  O   UNL     1       8.290   4.994  18.555  0.00  0.00    +0.000 OA
ATOM     21  H   UNL     1       8.389   4.031  18.654  0.00  0.00    +0.000 HD
ENDBRANCH   8  20
BRANCH   9  22
ATOM     22  O   UNL     1       7.723   6.190  16.240  0.00  0.00    +0.000 OA
ATOM     23  H   UNL     1       8.368   5.468  16.375  0.00  0.00    +0.000 HD
ENDBRANCH   9  22
TORSDOF 3
ENDMDL
MODEL 7
REMARK VINA RESULT:      -6.2      2.718      3.820
REMARK  Name = 
REMARK  4 active torsions:
REMARK  status: ('A' for Active; 'I' for Inactive)
REMARK    1  A    between atoms: C_1  and  N_2
REMARK    2  A    between atoms: C_8  and  O_9
REMARK    3  A    between atoms: C_10  and  O_11
REMARK    4  A    between atoms: C_14  and  C_15
REMARK                            x       y       z     vdW  Elec       q    Type
REMARK                         _______ _______ _______ _____ _____    ______ ____
ROOT
ATOM      1  C   UNL     1       7.855   7.667  18.014  0.00  0.00    +0.000 C 
ATOM      2  N   UNL     1       7.080   6.506  17.578  0.00  0.00    +0.000 NA
ATOM      3  C   UNL     1       7.089   5.462  18.615  0.00  0.00    +0.000 C 
ATOM      4  C   UNL     1       6.523   4.106  18.165  0.00  0.00    +0.000 C 
ATOM      5  C   UNL     1       5.008   4.056  18.243  0.00  0.00    +0.000 A 
ATOM      6  C   UNL     1       4.243   4.892  17.383  0.00  0.00    +0.000 A 
ATOM      7  C   UNL     1       2.838   4.917  17.516  0.00  0.00    +0.000 A 
ATOM      8  C   UNL     1       2.210   4.139  18.480  0.00  0.00    +0.000 A 
ATOM      9  C   UNL     1       2.950   3.302  19.306  0.00  0.00    +0.000 A 
ATOM     10  C   UNL     1       4.342   3.244  19.193  0.00  0.00    +0.000 A 
ATOM     11 CL   UNL     1       5.209   2.190  20.265  0.00  0.00    +0.000 Cl
ATOM     12  C   UNL     1       4.897   5.847  16.373  0.00  0.00    +0.000 C 
ATOM     13  C   UNL     1       5.722   6.913  17.166  0.00  0.00    +0.000 C 
ENDROOT
BRANCH  12  14
ATOM     14  C   UNL     1       5.612   5.202  15.175  0.00  0.00    +0.000 A 
ATOM     15  C   UNL     1       6.918   5.567  14.812  0.00  0.00    +0.000 A 
ATOM     16  C   UNL     1       7.541   4.997  13.695  0.00  0.00    +0.000 A 
ATOM     17  C   UNL     1       6.883   4.034  12.934  0.00  0.00    +0.000 A 
ATOM     18  C   UNL     1       5.611   3.619  13.305  0.00  0.00    +0.000 A 
ATOM     19  C   UNL     1       4.994   4.183  14.423  0.00  0.00    +0.000 A 
ENDBRANCH  12  14
BRANCH   8  20
ATOM     20  O   UNL     1       0.855   4.181  18.674  0.00  0.00    +0.000 OA
ATOM     21  H   UNL     1       0.680   4.298  19.624  0.00  0.00    +0.000 HD
ENDBRANCH   8  20
BRANCH   9  22
ATOM     22  O   UNL     1       2.277   2.560  20.245  0.00  0.00    +0.000 OA
ATOM     23  H   UNL     1       1.826   3.216  20.813  0.00  0.00    +0.000 HD
ENDBRANCH   9  22
TORSDOF 3
ENDMDL
MODEL 8
REMARK VINA RESULT:      -6.1      2.706      3.765
REMARK  Name = 
REMARK  4 active torsions:
REMARK  status: ('A' for Active; 'I' for Inactive)
REMARK    1  A    between atoms: C_1  and  N_2
REMARK    2  A    between atoms: C_8  and  O_9
REMARK    3  A    between atoms: C_10  and  O_11
REMARK    4  A    between atoms: C_14  and  C_15
REMARK                            x       y       z     vdW  Elec       q    Type
REMARK                         _______ _______ _______ _____ _____    ______ ____
ROOT
ATOM      1  C   UNL     1       7.880   7.639  18.015  0.00  0.00    +0.000 C 
ATOM      2  N   UNL     1       7.087   6.489  17.582  0.00  0.00    +0.000 NA
ATOM      3  C   UNL     1       7.100   5.439  18.613  0.00  0.00    +0.000 C 
ATOM      4  C   UNL     1       6.513   4.092  18.163  0.00  0.00    +0.000 C 
ATOM      5  C   UNL     1       4.999   4.057  18.261  0.00  0.00    +0.000 A 
ATOM      6  C   UNL     1       4.231   4.905  17.417  0.00  0.00    +0.000 A 
ATOM      7  C   UNL     1       2.829   4.944  17.569  0.00  0.00    +0.000 A 
ATOM      8  C   UNL     1       2.206   4.168  18.537  0.00  0.00    +0.000 A 
ATOM      9  C   UNL     1       2.948   3.318  19.349  0.00  0.00    +0.000 A 
ATOM     10  C   UNL     1       4.338   3.247  19.216  0.00  0.00    +0.000 A 
ATOM     11 CL   UNL     1       5.208   2.178  20.271  0.00  0.00    +0.000 Cl
ATOM     12  C   UNL     1       4.882   5.860  16.403  0.00  0.00    +0.000 C 
ATOM     13  C   UNL     1       5.729   6.912  17.190  0.00  0.00    +0.000 C 
ENDROOT
BRANCH  12  14
ATOM     14  C   UNL     1       5.574   5.214  15.192  0.00  0.00    +0.000 A 
ATOM     15  C   UNL     1       4.938   4.231  14.418  0.00  0.00    +0.000 A 
ATOM     16  C   UNL     1       5.598   3.625  13.340  0.00  0.00    +0.000 A 
ATOM     17  C   UNL     1       6.893   4.007  13.000  0.00  0.00    +0.000 A 
ATOM     18  C   UNL     1       7.522   5.015  13.719  0.00  0.00    +0.000 A 
ATOM     19  C   UNL     1       6.860   5.622  14.789  0.00  0.00    +0.000 A 
ENDBRANCH  12  14
BRANCH   8  20
ATOM     20  O   UNL     1       0.854   4.222  18.750  0.00  0.00    +0.000 OA
ATOM     21  H   UNL     1       0.638   5.076  19.164  0.00  0.00    +0.000 HD
ENDBRANCH   8  20
BRANCH   9  22
ATOM     22  O   UNL     1       2.280   2.579  20.292  0.00  0.00    +0.000 OA
ATOM     23  H   UNL     1       2.072   1.731  19.852  0.00  0.00    +0.000 HD
ENDBRANCH   9  22
TORSDOF 3
ENDMDL
MODEL 9
REMARK VINA RESULT:      -5.8      8.363     10.790
REMARK  Name = 
REMARK  4 active torsions:
REMARK  status: ('A' for Active; 'I' for Inactive)
REMARK    1  A    between atoms: C_1  and  N_2
REMARK    2  A    between atoms: C_8  and  O_9
REMARK    3  A    between atoms: C_10  and  O_11
REMARK    4  A    between atoms: C_14  and  C_15
REMARK                            x       y       z     vdW  Elec       q    Type
REMARK                         _______ _______ _______ _____ _____    ______ ____
ROOT
ATOM      1  C   UNL     1      -0.293  13.901  18.529  0.00  0.00    +0.000 C 
ATOM      2  N   UNL     1      -0.475  13.390  19.887  0.00  0.00    +0.000 NA
ATOM      3  C   UNL     1      -0.226  14.453  20.874  0.00  0.00    +0.000 C 
ATOM      4  C   UNL     1      -0.140  13.969  22.330  0.00  0.00    +0.000 C 
ATOM      5  C   UNL     1      -1.507  13.809  22.969  0.00  0.00    +0.000 A 
ATOM      6  C   UNL     1      -2.390  12.809  22.473  0.00  0.00    +0.000 A 
ATOM      7  C   UNL     1      -3.695  12.718  23.001  0.00  0.00    +0.000 A 
ATOM      8  C   UNL     1      -4.117  13.598  23.989  0.00  0.00    +0.000 A 
ATOM      9  C   UNL     1      -3.251  14.561  24.495  0.00  0.00    +0.000 A 
ATOM     10  C   UNL     1      -1.948  14.671  24.002  0.00  0.00    +0.000 A 
ATOM     11 CL   UNL     1      -0.922  15.904  24.665  0.00  0.00    +0.000 Cl
ATOM     12  C   UNL     1      -2.007  11.881  21.310  0.00  0.00    +0.000 C 
ATOM     13  C   UNL     1      -1.799  12.754  20.030  0.00  0.00    +0.000 C 
ENDROOT
BRANCH  12  14
ATOM     14  C   UNL     1      -0.916  10.835  21.591  0.00  0.00    +0.000 A 
ATOM     15  C   UNL     1      -0.674  10.353  22.887  0.00  0.00    +0.000 A 
ATOM     16  C   UNL     1       0.350   9.428  23.132  0.00  0.00    +0.000 A 
ATOM     17  C   UNL     1       1.133   8.948  22.085  0.00  0.00    +0.000 A 
ATOM     18  C   UNL     1       0.877   9.371  20.787  0.00  0.00    +0.000 A 
ATOM     19  C   UNL     1      -0.148  10.288  20.545  0.00  0.00    +0.000 A 
ENDBRANCH  12  14
BRANCH   8  20
ATOM     20  O   UNL     1      -5.393  13.574  24.485  0.00  0.00    +0.000 OA
ATOM     21  H   UNL     1      -5.359  13.311  25.420  0.00  0.00    +0.000 HD
ENDBRANCH   8  20
BRANCH   9  22
ATOM     22  O   UNL     1      -3.723  15.408  25.466  0.00  0.00    +0.000 OA
ATOM     23  H   UNL     1      -3.678  16.300  25.071  0.00  0.00    +0.000 HD
ENDBRANCH   9  22
TORSDOF 3
ENDMDL
