MODEL 1
REMARK VINA RESULT:      -8.7      0.000      0.000
REMARK  Name = 
REMARK  3 active torsions:
REMARK  status: ('A' for Active; 'I' for Inactive)
REMARK    1  A    between atoms: C_2  and  C_3
REMARK    2  A    between atoms: N_5  and  C_6
REMARK    3  A    between atoms: N_14  and  C_15
REMARK                            x       y       z     vdW  Elec       q    Type
REMARK                         _______ _______ _______ _____ _____    ______ ____
ROOT
ATOM      1  C   UNL     1       4.514   4.088  17.028  0.00  0.00    +0.000 A 
ATOM      2  C   UNL     1       4.383   2.780  17.484  0.00  0.00    +0.000 A 
ATOM      3  C   UNL     1       3.612   2.502  18.616  0.00  0.00    +0.000 A 
ATOM      4  C   UNL     1       2.931   3.495  19.293  0.00  0.00    +0.000 A 
ATOM      5  N   UNL     1       2.156   3.141  20.320  0.00  0.00    +0.000 NA
ATOM      6  C   UNL     1       1.482   4.119  20.924  0.00  0.00    +0.000 A 
ATOM      7  N   UNL     1       1.521   5.412  20.600  0.00  0.00    +0.000 NA
ATOM      8  C   UNL     1       2.307   5.767  19.563  0.00  0.00    +0.000 A 
ATOM      9  N   UNL     1       2.323   7.137  19.157  0.00  0.00    +0.000 N 
ATOM     10  C   UNL     1       3.069   4.822  18.858  0.00  0.00    +0.000 A 
ATOM     11  C   UNL     1       3.913   5.116  17.755  0.00  0.00    +0.000 A 
ATOM     12  H   UNL     1       2.053   7.183  18.178  0.00  0.00    +0.000 HD
ENDROOT
BRANCH   9  13
ATOM     13  C   UNL     1       1.714   8.167  19.914  0.00  0.00    +0.000 A 
ATOM     14  C   UNL     1       1.676   8.086  21.310  0.00  0.00    +0.000 A 
ATOM     15  C   UNL     1       0.974   9.025  22.062  0.00  0.00    +0.000 A 
ATOM     16  C   UNL     1       0.298  10.075  21.433  0.00  0.00    +0.000 A 
ATOM     17  C   UNL     1      -0.469  10.981  22.179  0.00  0.00    +0.000 A 
ATOM     18  C   UNL     1      -1.157  12.018  21.549  0.00  0.00    +0.000 A 
ATOM     19  C   UNL     1      -1.069  12.170  20.168  0.00  0.00    +0.000 A 
ATOM     20  C   UNL     1      -0.305  11.275  19.412  0.00  0.00    +0.000 A 
ATOM     21  C   UNL     1       0.372  10.211  20.029  0.00  0.00    +0.000 A 
ATOM     22  C   UNL     1       1.098   9.258  19.283  0.00  0.00    +0.000 A 
ENDBRANCH   9  13
BRANCH   1  25
ATOM     23  C   UNL     1       6.545   4.581  15.702  0.00  0.00    +0.000 C 
ATOM     24  O   UNL     1       7.379   4.494  16.593  0.00  0.00    +0.000 OA
ATOM     25  N   UNL     1       5.177   4.429  15.831  0.00  0.00    +0.000 N 
ATOM     26  H   UNL     1       4.632   4.371  14.981  0.00  0.00    +0.000 HD
BRANCH  23  28
ATOM     27  C   UNL     1       6.443   4.024  13.322  0.00  0.00    +0.000 C 
ATOM     28  C   UNL     1       6.958   4.797  14.287  0.00  0.00    +0.000 C 
ENDBRANCH  23  28
ENDBRANCH   1  25
TORSDOF 3
ENDMDL
MODEL 2
REMARK VINA RESULT:      -8.7      1.753      2.110
REMARK  Name = 
REMARK  3 active torsions:
REMARK  status: ('A' for Active; 'I' for Inactive)
REMARK    1  A    between atoms: C_2  and  C_3
REMARK    2  A    between atoms: N_5  and  C_6
REMARK    3  A    between atoms: N_14  and  C_15
REMARK                            x       y       z     vdW  Elec       q    Type
REMARK                         _______ _______ _______ _____ _____    ______ ____
ROOT
ATOM      1  C   UNL     1       4.801   4.715  16.809  0.00  0.00    +0.000 A 
ATOM      2  C   UNL     1       4.892   3.751  17.809  0.00  0.00    +0.000 A 
ATOM      3  C   UNL     1       4.244   3.941  19.032  0.00  0.00    +0.000 A 
ATOM      4  C   UNL     1       3.470   5.059  19.279  0.00  0.00    +0.000 A 
ATOM      5  N   UNL     1       2.824   5.134  20.444  0.00  0.00    +0.000 NA
ATOM      6  C   UNL     1       2.055   6.207  20.631  0.00  0.00    +0.000 A 
ATOM      7  N   UNL     1       1.884   7.208  19.767  0.00  0.00    +0.000 NA
ATOM      8  C   UNL     1       2.541   7.130  18.592  0.00  0.00    +0.000 A 
ATOM      9  N   UNL     1       2.332   8.160  17.624  0.00  0.00    +0.000 N 
ATOM     10  C   UNL     1       3.386   6.051  18.289  0.00  0.00    +0.000 A 
ATOM     11  C   UNL     1       4.105   5.894  17.075  0.00  0.00    +0.000 A 
ATOM     12  H   UNL     1       1.995   7.729  16.766  0.00  0.00    +0.000 HD
ENDROOT
BRANCH   9  13
ATOM     13  C   UNL     1       1.629   9.354  17.916  0.00  0.00    +0.000 A 
ATOM     14  C   UNL     1       2.327  10.518  18.250  0.00  0.00    +0.000 A 
ATOM     15  C   UNL     1       1.652  11.666  18.660  0.00  0.00    +0.000 A 
ATOM     16  C   UNL     1       0.256  11.676  18.737  0.00  0.00    +0.000 A 
ATOM     17  C   UNL     1      -0.425  12.804  19.217  0.00  0.00    +0.000 A 
ATOM     18  C   UNL     1      -1.817  12.808  19.310  0.00  0.00    +0.000 A 
ATOM     19  C   UNL     1      -2.541  11.691  18.905  0.00  0.00    +0.000 A 
ATOM     20  C   UNL     1      -1.876  10.560  18.421  0.00  0.00    +0.000 A 
ATOM     21  C   UNL     1      -0.473  10.532  18.347  0.00  0.00    +0.000 A 
ATOM     22  C   UNL     1       0.226   9.382  17.922  0.00  0.00    +0.000 A 
ENDBRANCH   9  13
BRANCH   1  25
ATOM     23  C   UNL     1       6.546   5.032  15.083  0.00  0.00    +0.000 C 
ATOM     24  O   UNL     1       7.325   5.725  15.726  0.00  0.00    +0.000 OA
ATOM     25  N   UNL     1       5.329   4.540  15.513  0.00  0.00    +0.000 N 
ATOM     26  H   UNL     1       4.870   3.853  14.929  0.00  0.00    +0.000 HD
BRANCH  23  28
ATOM     27  C   UNL     1       6.049   3.756  13.057  0.00  0.00    +0.000 C 
ATOM     28  C   UNL     1       6.894   4.560  13.714  0.00  0.00    +0.000 C 
ENDBRANCH  23  28
ENDBRANCH   1  25
TORSDOF 3
ENDMDL
MODEL 3
REMARK VINA RESULT:      -8.6      0.752      1.509
REMARK  Name = 
REMARK  3 active torsions:
REMARK  status: ('A' for Active; 'I' for Inactive)
REMARK    1  A    between atoms: C_2  and  C_3
REMARK    2  A    between atoms: N_5  and  C_6
REMARK    3  A    between atoms: N_14  and  C_15
REMARK                            x       y       z     vdW  Elec       q    Type
REMARK                         _______ _______ _______ _____ _____    ______ ____
ROOT
ATOM      1  C   UNL     1       4.768   4.286  17.073  0.00  0.00    +0.000 A 
ATOM      2  C   UNL     1       4.835   3.096  17.792  0.00  0.00    +0.000 A 
ATOM      3  C   UNL     1       4.156   2.967  19.006  0.00  0.00    +0.000 A 
ATOM      4  C   UNL     1       3.374   3.987  19.514  0.00  0.00    +0.000 A 
ATOM      5  N   UNL     1       2.698   3.762  20.642  0.00  0.00    +0.000 NA
ATOM      6  C   UNL     1       1.922   4.753  21.080  0.00  0.00    +0.000 A 
ATOM      7  N   UNL     1       1.771   5.944  20.500  0.00  0.00    +0.000 NA
ATOM      8  C   UNL     1       2.459   6.170  19.361  0.00  0.00    +0.000 A 
ATOM      9  N   UNL     1       2.272   7.415  18.687  0.00  0.00    +0.000 N 
ATOM     10  C   UNL     1       3.313   5.201  18.812  0.00  0.00    +0.000 A 
ATOM     11  C   UNL     1       4.063   5.360  17.617  0.00  0.00    +0.000 A 
ATOM     12  H   UNL     1       1.958   7.222  17.739  0.00  0.00    +0.000 HD
ENDROOT
BRANCH   9  13
ATOM     13  C   UNL     1       1.559   8.496  19.260  0.00  0.00    +0.000 A 
ATOM     14  C   UNL     1       1.473   9.719  18.586  0.00  0.00    +0.000 A 
ATOM     15  C   UNL     1       0.884  10.828  19.187  0.00  0.00    +0.000 A 
ATOM     16  C   UNL     1       0.357  10.737  20.479  0.00  0.00    +0.000 A 
ATOM     17  C   UNL     1      -0.173  11.867  21.117  0.00  0.00    +0.000 A 
ATOM     18  C   UNL     1      -0.683  11.780  22.412  0.00  0.00    +0.000 A 
ATOM     19  C   UNL     1      -0.685  10.556  23.075  0.00  0.00    +0.000 A 
ATOM     20  C   UNL     1      -0.163   9.419  22.450  0.00  0.00    +0.000 A 
ATOM     21  C   UNL     1       0.378   9.498  21.156  0.00  0.00    +0.000 A 
ATOM     22  C   UNL     1       0.968   8.381  20.527  0.00  0.00    +0.000 A 
ENDBRANCH   9  13
BRANCH   1  25
ATOM     23  C   UNL     1       6.673   4.652  15.535  0.00  0.00    +0.000 C 
ATOM     24  O   UNL     1       7.566   4.769  16.364  0.00  0.00    +0.000 OA
ATOM     25  N   UNL     1       5.329   4.449  15.789  0.00  0.00    +0.000 N 
ATOM     26  H   UNL     1       4.736   4.213  15.005  0.00  0.00    +0.000 HD
BRANCH  23  28
ATOM     27  C   UNL     1       6.221   3.912  13.248  0.00  0.00    +0.000 C 
ATOM     28  C   UNL     1       6.979   4.640  14.078  0.00  0.00    +0.000 C 
ENDBRANCH  23  28
ENDBRANCH   1  25
TORSDOF 3
ENDMDL
MODEL 4
REMARK VINA RESULT:      -8.5      1.822      2.447
REMARK  Name = 
REMARK  3 active torsions:
REMARK  status: ('A' for Active; 'I' for Inactive)
REMARK    1  A    between atoms: C_2  and  C_3
REMARK    2  A    between atoms: N_5  and  C_6
REMARK    3  A    between atoms: N_14  and  C_15
REMARK                            x       y       z     vdW  Elec       q    Type
REMARK                         _______ _______ _______ _____ _____    ______ ____
ROOT
ATOM      1  C   UNL     1       4.721   4.960  17.043  0.00  0.00    +0.000 A 
ATOM      2  C   UNL     1       4.760   3.967  18.017  0.00  0.00    +0.000 A 
ATOM      3  C   UNL     1       4.065   4.130  19.218  0.00  0.00    +0.000 A 
ATOM      4  C   UNL     1       3.295   5.251  19.466  0.00  0.00    +0.000 A 
ATOM      5  N   UNL     1       2.603   5.301  20.606  0.00  0.00    +0.000 NA
ATOM      6  C   UNL     1       1.840   6.377  20.794  0.00  0.00    +0.000 A 
ATOM      7  N   UNL     1       1.717   7.405  19.953  0.00  0.00    +0.000 NA
ATOM      8  C   UNL     1       2.421   7.353  18.804  0.00  0.00    +0.000 A 
ATOM      9  N   UNL     1       2.263   8.413  17.859  0.00  0.00    +0.000 N 
ATOM     10  C   UNL     1       3.263   6.271  18.504  0.00  0.00    +0.000 A 
ATOM     11  C   UNL     1       4.029   6.140  17.316  0.00  0.00    +0.000 A 
ATOM     12  H   UNL     1       1.956   8.011  16.976  0.00  0.00    +0.000 HD
ENDROOT
BRANCH   9  13
ATOM     13  C   UNL     1       1.563   9.607  18.158  0.00  0.00    +0.000 A 
ATOM     14  C   UNL     1       0.165   9.614  18.188  0.00  0.00    +0.000 A 
ATOM     15  C   UNL     1      -0.542  10.803  18.358  0.00  0.00    +0.000 A 
ATOM     16  C   UNL     1       0.139  12.015  18.510  0.00  0.00    +0.000 A 
ATOM     17  C   UNL     1      -0.566  13.223  18.609  0.00  0.00    +0.000 A 
ATOM     18  C   UNL     1       0.113  14.434  18.743  0.00  0.00    +0.000 A 
ATOM     19  C   UNL     1       1.503  14.446  18.800  0.00  0.00    +0.000 A 
ATOM     20  C   UNL     1       2.219  13.249  18.705  0.00  0.00    +0.000 A 
ATOM     21  C   UNL     1       1.550  12.024  18.543  0.00  0.00    +0.000 A 
ATOM     22  C   UNL     1       2.250  10.809  18.382  0.00  0.00    +0.000 A 
ENDBRANCH   9  13
BRANCH   1  25
ATOM     23  C   UNL     1       6.615   5.102  15.456  0.00  0.00    +0.000 C 
ATOM     24  O   UNL     1       7.462   5.561  16.212  0.00  0.00    +0.000 OA
ATOM     25  N   UNL     1       5.299   4.815  15.764  0.00  0.00    +0.000 N 
ATOM     26  H   UNL     1       4.763   4.293  15.084  0.00  0.00    +0.000 HD
BRANCH  23  28
ATOM     27  C   UNL     1       6.175   3.860  13.395  0.00  0.00    +0.000 C 
ATOM     28  C   UNL     1       6.967   4.710  14.063  0.00  0.00    +0.000 C 
ENDBRANCH  23  28
ENDBRANCH   1  25
TORSDOF 3
ENDMDL
MODEL 5
REMARK VINA RESULT:      -8.4      0.946      1.138
REMARK  Name = 
REMARK  3 active torsions:
REMARK  status: ('A' for Active; 'I' for Inactive)
REMARK    1  A    between atoms: C_2  and  C_3
REMARK    2  A    between atoms: N_5  and  C_6
REMARK    3  A    between atoms: N_14  and  C_15
REMARK                            x       y       z     vdW  Elec       q    Type
REMARK                         _______ _______ _______ _____ _____    ______ ____
ROOT
ATOM      1  C   UNL     1       4.857   4.675  16.920  0.00  0.00    +0.000 A 
ATOM      2  C   UNL     1       4.962   3.496  17.652  0.00  0.00    +0.000 A 
ATOM      3  C   UNL     1       4.272   3.351  18.859  0.00  0.00    +0.000 A 
ATOM      4  C   UNL     1       3.444   4.345  19.347  0.00  0.00    +0.000 A 
ATOM      5  N   UNL     1       2.763   4.104  20.468  0.00  0.00    +0.000 NA
ATOM      6  C   UNL     1       1.943   5.068  20.887  0.00  0.00    +0.000 A 
ATOM      7  N   UNL     1       1.753   6.246  20.292  0.00  0.00    +0.000 NA
ATOM      8  C   UNL     1       2.446   6.487  19.161  0.00  0.00    +0.000 A 
ATOM      9  N   UNL     1       2.219   7.718  18.471  0.00  0.00    +0.000 N 
ATOM     10  C   UNL     1       3.345   5.548  18.631  0.00  0.00    +0.000 A 
ATOM     11  C   UNL     1       4.103   5.725  17.445  0.00  0.00    +0.000 A 
ATOM     12  H   UNL     1       1.925   7.503  17.521  0.00  0.00    +0.000 HD
ENDROOT
BRANCH   9  13
ATOM     13  C   UNL     1       1.456   8.776  19.024  0.00  0.00    +0.000 A 
ATOM     14  C   UNL     1       1.591   9.108  20.376  0.00  0.00    +0.000 A 
ATOM     15  C   UNL     1       0.762  10.061  20.965  0.00  0.00    +0.000 A 
ATOM     16  C   UNL     1      -0.218  10.710  20.209  0.00  0.00    +0.000 A 
ATOM     17  C   UNL     1      -1.102  11.617  20.812  0.00  0.00    +0.000 A 
ATOM     18  C   UNL     1      -2.091  12.252  20.061  0.00  0.00    +0.000 A 
ATOM     19  C   UNL     1      -2.193  12.001  18.696  0.00  0.00    +0.000 A 
ATOM     20  C   UNL     1      -1.317  11.102  18.081  0.00  0.00    +0.000 A 
ATOM     21  C   UNL     1      -0.332  10.435  18.829  0.00  0.00    +0.000 A 
ATOM     22  C   UNL     1       0.523   9.476  18.245  0.00  0.00    +0.000 A 
ENDBRANCH   9  13
BRANCH   1  25
ATOM     23  C   UNL     1       6.776   4.737  15.359  0.00  0.00    +0.000 C 
ATOM     24  O   UNL     1       7.678   4.524  16.158  0.00  0.00    +0.000 OA
ATOM     25  N   UNL     1       5.428   4.847  15.642  0.00  0.00    +0.000 N 
ATOM     26  H   UNL     1       4.786   4.865  14.861  0.00  0.00    +0.000 HD
BRANCH  23  28
ATOM     27  C   UNL     1       6.485   3.951  13.061  0.00  0.00    +0.000 C 
ATOM     28  C   UNL     1       7.055   4.827  13.899  0.00  0.00    +0.000 C 
ENDBRANCH  23  28
ENDBRANCH   1  25
TORSDOF 3
ENDMDL
MODEL 6
REMARK VINA RESULT:      -8.4      2.244      8.307
REMARK  Name = 
REMARK  3 active torsions:
REMARK  status: ('A' for Active; 'I' for Inactive)
REMARK    1  A    between atoms: C_2  and  C_3
REMARK    2  A    between atoms: N_5  and  C_6
REMARK    3  A    between atoms: N_14  and  C_15
REMARK                            x       y       z     vdW  Elec       q    Type
REMARK                         _______ _______ _______ _____ _____    ______ ____
ROOT
ATOM      1  C   UNL     1       1.750   5.664  20.609  0.00  0.00    +0.000 A 
ATOM      2  C   UNL     1       1.063   4.539  21.057  0.00  0.00    +0.000 A 
ATOM      3  C   UNL     1       1.275   3.297  20.455  0.00  0.00    +0.000 A 
ATOM      4  C   UNL     1       2.188   3.132  19.430  0.00  0.00    +0.000 A 
ATOM      5  N   UNL     1       2.389   1.901  18.956  0.00  0.00    +0.000 NA
ATOM      6  C   UNL     1       3.305   1.773  17.997  0.00  0.00    +0.000 A 
ATOM      7  N   UNL     1       4.027   2.762  17.468  0.00  0.00    +0.000 NA
ATOM      8  C   UNL     1       3.820   4.005  17.948  0.00  0.00    +0.000 A 
ATOM      9  N   UNL     1       4.620   5.074  17.440  0.00  0.00    +0.000 N 
ATOM     10  C   UNL     1       2.873   4.260  18.952  0.00  0.00    +0.000 A 
ATOM     11  C   UNL     1       2.602   5.535  19.512  0.00  0.00    +0.000 A 
ATOM     12  H   UNL     1       5.102   5.513  18.222  0.00  0.00    +0.000 HD
ENDROOT
BRANCH   9  13
ATOM     13  C   UNL     1       5.475   4.926  16.321  0.00  0.00    +0.000 A 
ATOM     14  C   UNL     1       6.721   5.560  16.298  0.00  0.00    +0.000 A 
ATOM     15  C   UNL     1       7.521   5.527  15.158  0.00  0.00    +0.000 A 
ATOM     16  C   UNL     1       7.092   4.849  14.013  0.00  0.00    +0.000 A 
ATOM     17  C   UNL     1       7.859   4.872  12.839  0.00  0.00    +0.000 A 
ATOM     18  C   UNL     1       7.423   4.211  11.691  0.00  0.00    +0.000 A 
ATOM     19  C   UNL     1       6.226   3.502  11.712  0.00  0.00    +0.000 A 
ATOM     20  C   UNL     1       5.452   3.468  12.876  0.00  0.00    +0.000 A 
ATOM     21  C   UNL     1       5.865   4.151  14.032  0.00  0.00    +0.000 A 
ATOM     22  C   UNL     1       5.073   4.185  15.200  0.00  0.00    +0.000 A 
ENDBRANCH   9  13
BRANCH   1  25
ATOM     23  C   UNL     1       1.566   8.132  20.582  0.00  0.00    +0.000 C 
ATOM     24  O   UNL     1       1.567   8.309  19.371  0.00  0.00    +0.000 OA
ATOM     25  N   UNL     1       1.674   6.922  21.241  0.00  0.00    +0.000 N 
ATOM     26  H   UNL     1       1.499   6.915  22.237  0.00  0.00    +0.000 HD
BRANCH  23  28
ATOM     27  C   UNL     1       0.322   9.247  22.369  0.00  0.00    +0.000 C 
ATOM     28  C   UNL     1       1.359   9.269  21.521  0.00  0.00    +0.000 C 
ENDBRANCH  23  28
ENDBRANCH   1  25
TORSDOF 3
ENDMDL
MODEL 7
REMARK VINA RESULT:      -8.3      2.150      3.452
REMARK  Name = 
REMARK  3 active torsions:
REMARK  status: ('A' for Active; 'I' for Inactive)
REMARK    1  A    between atoms: C_2  and  C_3
REMARK    2  A    between atoms: N_5  and  C_6
REMARK    3  A    between atoms: N_14  and  C_15
REMARK                            x       y       z     vdW  Elec       q    Type
REMARK                         _______ _______ _______ _____ _____    ______ ____
ROOT
ATOM      1  C   UNL     1       5.573   4.308  14.540  0.00  0.00    +0.000 A 
ATOM      2  C   UNL     1       6.916   4.023  14.768  0.00  0.00    +0.000 A 
ATOM      3  C   UNL     1       7.506   4.341  15.994  0.00  0.00    +0.000 A 
ATOM      4  C   UNL     1       6.780   4.909  17.024  0.00  0.00    +0.000 A 
ATOM      5  N   UNL     1       7.396   5.116  18.190  0.00  0.00    +0.000 NA
ATOM      6  C   UNL     1       6.655   5.628  19.173  0.00  0.00    +0.000 A 
ATOM      7  N   UNL     1       5.365   5.956  19.091  0.00  0.00    +0.000 NA
ATOM      8  C   UNL     1       4.747   5.748  17.910  0.00  0.00    +0.000 A 
ATOM      9  N   UNL     1       3.351   6.037  17.811  0.00  0.00    +0.000 N 
ATOM     10  C   UNL     1       5.430   5.223  16.803  0.00  0.00    +0.000 A 
ATOM     11  C   UNL     1       4.850   4.970  15.532  0.00  0.00    +0.000 A 
ATOM     12  H   UNL     1       2.869   5.191  17.518  0.00  0.00    +0.000 HD
ENDROOT
BRANCH   9  13
ATOM     13  C   UNL     1       2.636   6.717  18.827  0.00  0.00    +0.000 A 
ATOM     14  C   UNL     1       2.247   6.040  19.987  0.00  0.00    +0.000 A 
ATOM     15  C   UNL     1       1.439   6.656  20.940  0.00  0.00    +0.000 A 
ATOM     16  C   UNL     1       1.007   7.973  20.755  0.00  0.00    +0.000 A 
ATOM     17  C   UNL     1       0.135   8.575  21.674  0.00  0.00    +0.000 A 
ATOM     18  C   UNL     1      -0.310   9.882  21.481  0.00  0.00    +0.000 A 
ATOM     19  C   UNL     1       0.128  10.608  20.377  0.00  0.00    +0.000 A 
ATOM     20  C   UNL     1       1.000  10.022  19.454  0.00  0.00    +0.000 A 
ATOM     21  C   UNL     1       1.436   8.697  19.621  0.00  0.00    +0.000 A 
ATOM     22  C   UNL     1       2.265   8.061  18.672  0.00  0.00    +0.000 A 
ENDBRANCH   9  13
BRANCH   1  25
ATOM     23  C   UNL     1       5.482   3.400  12.239  0.00  0.00    +0.000 C 
ATOM     24  O   UNL     1       6.681   3.256  12.044  0.00  0.00    +0.000 OA
ATOM     25  N   UNL     1       4.883   3.912  13.375  0.00  0.00    +0.000 N 
ATOM     26  H   UNL     1       3.879   3.823  13.455  0.00  0.00    +0.000 HD
BRANCH  23  28
ATOM     27  C   UNL     1       3.664   3.826  10.658  0.00  0.00    +0.000 C 
ATOM     28  C   UNL     1       4.483   2.937  11.235  0.00  0.00    +0.000 C 
ENDBRANCH  23  28
ENDBRANCH   1  25
TORSDOF 3
ENDMDL
MODEL 8
REMARK VINA RESULT:      -8.1      2.007      2.486
REMARK  Name = 
REMARK  3 active torsions:
REMARK  status: ('A' for Active; 'I' for Inactive)
REMARK    1  A    between atoms: C_2  and  C_3
REMARK    2  A    between atoms: N_5  and  C_6
REMARK    3  A    between atoms: N_14  and  C_15
REMARK                            x       y       z     vdW  Elec       q    Type
REMARK                         _______ _______ _______ _____ _____    ______ ____
ROOT
ATOM      1  C   UNL     1       5.695   5.579  16.457  0.00  0.00    +0.000 A 
ATOM      2  C   UNL     1       5.907   4.523  17.338  0.00  0.00    +0.000 A 
ATOM      3  C   UNL     1       5.151   4.419  18.509  0.00  0.00    +0.000 A 
ATOM      4  C   UNL     1       4.154   5.327  18.813  0.00  0.00    +0.000 A 
ATOM      5  N   UNL     1       3.426   5.119  19.912  0.00  0.00    +0.000 NA
ATOM      6  C   UNL     1       2.447   5.991  20.152  0.00  0.00    +0.000 A 
ATOM      7  N   UNL     1       2.140   7.050  19.402  0.00  0.00    +0.000 NA
ATOM      8  C   UNL     1       2.880   7.258  18.294  0.00  0.00    +0.000 A 
ATOM      9  N   UNL     1       2.536   8.352  17.440  0.00  0.00    +0.000 N 
ATOM     10  C   UNL     1       3.942   6.409  17.945  0.00  0.00    +0.000 A 
ATOM     11  C   UNL     1       4.760   6.558  16.795  0.00  0.00    +0.000 A 
ATOM     12  H   UNL     1       2.353   7.985  16.509  0.00  0.00    +0.000 HD
ENDROOT
BRANCH   9  13
ATOM     13  C   UNL     1       1.590   9.340  17.805  0.00  0.00    +0.000 A 
ATOM     14  C   UNL     1       1.981  10.435  18.581  0.00  0.00    +0.000 A 
ATOM     15  C   UNL     1       1.042  11.350  19.053  0.00  0.00    +0.000 A 
ATOM     16  C   UNL     1      -0.313  11.193  18.750  0.00  0.00    +0.000 A 
ATOM     17  C   UNL     1      -1.272  12.069  19.280  0.00  0.00    +0.000 A 
ATOM     18  C   UNL     1      -2.626  11.901  18.992  0.00  0.00    +0.000 A 
ATOM     19  C   UNL     1      -3.033  10.867  18.155  0.00  0.00    +0.000 A 
ATOM     20  C   UNL     1      -2.089   9.988  17.616  0.00  0.00    +0.000 A 
ATOM     21  C   UNL     1      -0.724  10.128  17.918  0.00  0.00    +0.000 A 
ATOM     22  C   UNL     1       0.241   9.217  17.439  0.00  0.00    +0.000 A 
ENDBRANCH   9  13
BRANCH   1  25
ATOM     23  C   UNL     1       6.514   4.639  14.319  0.00  0.00    +0.000 C 
ATOM     24  O   UNL     1       6.196   3.470  14.491  0.00  0.00    +0.000 OA
ATOM     25  N   UNL     1       6.336   5.685  15.205  0.00  0.00    +0.000 N 
ATOM     26  H   UNL     1       6.503   6.621  14.862  0.00  0.00    +0.000 HD
BRANCH  23  28
ATOM     27  C   UNL     1       8.334   5.592  12.991  0.00  0.00    +0.000 C 
ATOM     28  C   UNL     1       7.092   5.091  13.022  0.00  0.00    +0.000 C 
ENDBRANCH  23  28
ENDBRANCH   1  25
TORSDOF 3
ENDMDL
MODEL 9
REMARK VINA RESULT:      -8.1      3.537      8.288
REMARK  Name = 
REMARK  3 active torsions:
REMARK  status: ('A' for Active; 'I' for Inactive)
REMARK    1  A    between atoms: C_2  and  C_3
REMARK    2  A    between atoms: N_5  and  C_6
REMARK    3  A    between atoms: N_14  and  C_15
REMARK                            x       y       z     vdW  Elec       q    Type
REMARK                         _______ _______ _______ _____ _____    ______ ____
ROOT
ATOM      1  C   UNL     1      -1.428  11.098  18.711  0.00  0.00    +0.000 A 
ATOM      2  C   UNL     1      -1.677  11.929  19.799  0.00  0.00    +0.000 A 
ATOM      3  C   UNL     1      -1.059  11.685  21.028  0.00  0.00    +0.000 A 
ATOM      4  C   UNL     1      -0.162  10.648  21.198  0.00  0.00    +0.000 A 
ATOM      5  N   UNL     1       0.442  10.524  22.381  0.00  0.00    +0.000 NA
ATOM      6  C   UNL     1       1.331   9.538  22.496  0.00  0.00    +0.000 A 
ATOM      7  N   UNL     1       1.659   8.664  21.543  0.00  0.00    +0.000 NA
ATOM      8  C   UNL     1       1.043   8.790  20.350  0.00  0.00    +0.000 A 
ATOM      9  N   UNL     1       1.417   7.905  19.293  0.00  0.00    +0.000 N 
ATOM     10  C   UNL     1       0.083   9.788  20.117  0.00  0.00    +0.000 A 
ATOM     11  C   UNL     1      -0.601   9.988  18.890  0.00  0.00    +0.000 A 
ATOM     12  H   UNL     1       1.731   8.464  18.503  0.00  0.00    +0.000 HD
ENDROOT
BRANCH   9  13
ATOM     13  C   UNL     1       2.252   6.779  19.496  0.00  0.00    +0.000 A 
ATOM     14  C   UNL     1       3.453   6.657  18.791  0.00  0.00    +0.000 A 
ATOM     15  C   UNL     1       4.225   5.501  18.885  0.00  0.00    +0.000 A 
ATOM     16  C   UNL     1       3.814   4.441  19.698  0.00  0.00    +0.000 A 
ATOM     17  C   UNL     1       4.548   3.246  19.743  0.00  0.00    +0.000 A 
ATOM     18  C   UNL     1       4.129   2.182  20.540  0.00  0.00    +0.000 A 
ATOM     19  C   UNL     1       2.982   2.309  21.317  0.00  0.00    +0.000 A 
ATOM     20  C   UNL     1       2.241   3.495  21.286  0.00  0.00    +0.000 A 
ATOM     21  C   UNL     1       2.636   4.565  20.467  0.00  0.00    +0.000 A 
ATOM     22  C   UNL     1       1.872   5.748  20.369  0.00  0.00    +0.000 A 
ENDBRANCH   9  13
BRANCH   1  25
ATOM     23  C   UNL     1      -2.842  10.556  16.753  0.00  0.00    +0.000 C 
ATOM     24  O   UNL     1      -3.328   9.507  17.154  0.00  0.00    +0.000 OA
ATOM     25  N   UNL     1      -1.923  11.349  17.414  0.00  0.00    +0.000 N 
ATOM     26  H   UNL     1      -1.732  12.264  17.029  0.00  0.00    +0.000 HD
BRANCH  23  28
ATOM     27  C   UNL     1      -3.389  10.382  14.375  0.00  0.00    +0.000 C 
ATOM     28  C   UNL     1      -3.279  11.157  15.462  0.00  0.00    +0.000 C 
ENDBRANCH  23  28
ENDBRANCH   1  25
TORSDOF 3
ENDMDL
