MODEL 1
REMARK VINA RESULT:      -7.5      0.000      0.000
REMARK  Name = 
REMARK  12 active torsions:
REMARK  status: ('A' for Active; 'I' for Inactive)
REMARK    1  A    between atoms: C_1  and  C_2
REMARK    2  A    between atoms: C_2  and  C_3
REMARK    3  A    between atoms: C_3  and  C_4
REMARK    4  A    between atoms: C_3  and  C_5
REMARK    5  A    between atoms: C_5  and  N_6
REMARK    6  A    between atoms: C_5  and  C_7
REMARK    7  A    between atoms: C_7  and  O_9
REMARK    8  A    between atoms: O_9  and  C_10
REMARK    9  A    between atoms: C_10  and  C_11
REMARK   10  A    between atoms: C_13  and  N_14
REMARK   11  A    between atoms: C_24  and  O_25
REMARK   12  A    between atoms: C_26  and  O_27
REMARK                            x       y       z     vdW  Elec       q    Type
REMARK                         _______ _______ _______ _____ _____    ______ ____
ROOT
ATOM      1  C   UNL     1       3.871   4.102  18.573  0.00  0.00    +0.000 C 
ATOM      2  O   UNL     1       4.256   5.376  19.148  0.00  0.00    +0.000 OA
ATOM      3  C   UNL     1       3.169   5.867  19.975  0.00  0.00    +0.000 C 
ATOM      4  C   UNL     1       2.194   4.688  20.127  0.00  0.00    +0.000 C 
ATOM      5  C   UNL     1       2.366   3.956  18.802  0.00  0.00    +0.000 C 
ENDROOT
BRANCH   3   6
ATOM      6  N   UNL     1       2.618   7.054  19.348  0.00  0.00    +0.000 N 
ATOM      7  C   UNL     1       2.854   7.503  18.074  0.00  0.00    +0.000 A 
ATOM      8  N   UNL     1       2.159   8.577  17.783  0.00  0.00    +0.000 NA
ATOM      9  C   UNL     1       1.478   8.874  18.942  0.00  0.00    +0.000 A 
ATOM     10  C   UNL     1       0.593   9.911  19.268  0.00  0.00    +0.000 A 
ATOM     11  N   UNL     1       0.207  10.880  18.351  0.00  0.00    +0.000 N 
ATOM     12  N   UNL     1       0.107   9.968  20.528  0.00  0.00    +0.000 NA
ATOM     13  C   UNL     1       0.473   9.001  21.400  0.00  0.00    +0.000 A 
ATOM     14  N   UNL     1       1.298   7.951  21.194  0.00  0.00    +0.000 NA
ATOM     15  C   UNL     1       1.765   7.951  19.937  0.00  0.00    +0.000 A 
ATOM     16  H   UNL     1       0.843  10.962  17.565  0.00  0.00    +0.000 HD
ATOM     17  H   UNL     1      -0.112  11.731  18.792  0.00  0.00    +0.000 HD
ENDBRANCH   3   6
BRANCH   4  18
ATOM     18  O   UNL     1       0.850   5.011  20.445  0.00  0.00    +0.000 OA
ATOM     19  H   UNL     1       0.558   4.493  21.216  0.00  0.00    +0.000 HD
ENDBRANCH   4  18
BRANCH   5  20
ATOM     20  O   UNL     1       1.925   2.608  18.853  0.00  0.00    +0.000 OA
ATOM     21  H   UNL     1       1.545   2.352  17.997  0.00  0.00    +0.000 HD
ENDBRANCH   5  20
BRANCH   1  22
ATOM     22  C   UNL     1       4.283   4.057  17.093  0.00  0.00    +0.000 C 
BRANCH  22  23
ATOM     23  O   UNL     1       4.880   5.271  16.621  0.00  0.00    +0.000 OA
BRANCH  23  24
ATOM     24  C   UNL     1       5.942   5.097  15.785  0.00  0.00    +0.000 C 
ATOM     25  O   UNL     1       5.838   4.772  14.608  0.00  0.00    +0.000 OA
BRANCH  24  26
ATOM     26  C   UNL     1       7.271   5.442  16.487  0.00  0.00    +0.000 C 
BRANCH  26  27
ATOM     27  N   UNL     1       7.876   4.175  16.948  0.00  0.00    +0.000 NA
ATOM     28  H   UNL     1       7.905   3.522  16.166  0.00  0.00    +0.000 HD
ATOM     29  H   UNL     1       7.294   3.754  17.668  0.00  0.00    +0.000 HD
ENDBRANCH  26  27
BRANCH  26  30
ATOM     30  C   UNL     1       7.086   6.493  17.618  0.00  0.00    +0.000 C 
ATOM     31  C   UNL     1       7.729   6.083  18.953  0.00  0.00    +0.000 C 
BRANCH  30  33
ATOM     32  C   UNL     1       8.389   8.595  18.376  0.00  0.00    +0.000 C 
ATOM     33  C   UNL     1       7.624   7.901  17.260  0.00  0.00    +0.000 C 
ENDBRANCH  30  33
ENDBRANCH  26  30
ENDBRANCH  24  26
ENDBRANCH  23  24
ENDBRANCH  22  23
ENDBRANCH   1  22
TORSDOF 10
ENDMDL
MODEL 2
REMARK VINA RESULT:      -7.5      1.884      3.091
REMARK  Name = 
REMARK  12 active torsions:
REMARK  status: ('A' for Active; 'I' for Inactive)
REMARK    1  A    between atoms: C_1  and  C_2
REMARK    2  A    between atoms: C_2  and  C_3
REMARK    3  A    between atoms: C_3  and  C_4
REMARK    4  A    between atoms: C_3  and  C_5
REMARK    5  A    between atoms: C_5  and  N_6
REMARK    6  A    between atoms: C_5  and  C_7
REMARK    7  A    between atoms: C_7  and  O_9
REMARK    8  A    between atoms: O_9  and  C_10
REMARK    9  A    between atoms: C_10  and  C_11
REMARK   10  A    between atoms: C_13  and  N_14
REMARK   11  A    between atoms: C_24  and  O_25
REMARK   12  A    between atoms: C_26  and  O_27
REMARK                            x       y       z     vdW  Elec       q    Type
REMARK                         _______ _______ _______ _____ _____    ______ ____
ROOT
ATOM      1  C   UNL     1       4.819   4.044  18.530  0.00  0.00    +0.000 C 
ATOM      2  O   UNL     1       4.756   5.214  19.383  0.00  0.00    +0.000 OA
ATOM      3  C   UNL     1       3.377   5.434  19.778  0.00  0.00    +0.000 C 
ATOM      4  C   UNL     1       2.617   4.163  19.369  0.00  0.00    +0.000 C 
ATOM      5  C   UNL     1       3.380   3.717  18.129  0.00  0.00    +0.000 C 
ENDROOT
BRANCH   3   6
ATOM      6  N   UNL     1       2.915   6.663  19.159  0.00  0.00    +0.000 N 
ATOM      7  C   UNL     1       3.248   7.142  17.919  0.00  0.00    +0.000 A 
ATOM      8  N   UNL     1       2.617   8.253  17.622  0.00  0.00    +0.000 NA
ATOM      9  C   UNL     1       1.876   8.541  18.746  0.00  0.00    +0.000 A 
ATOM     10  C   UNL     1       1.013   9.603  19.052  0.00  0.00    +0.000 A 
ATOM     11  N   UNL     1       0.725  10.616  18.146  0.00  0.00    +0.000 N 
ATOM     12  N   UNL     1       0.450   9.640  20.280  0.00  0.00    +0.000 NA
ATOM     13  C   UNL     1       0.722   8.632  21.140  0.00  0.00    +0.000 A 
ATOM     14  N   UNL     1       1.516   7.555  20.949  0.00  0.00    +0.000 NA
ATOM     15  C   UNL     1       2.062   7.576  19.725  0.00  0.00    +0.000 A 
ATOM     16  H   UNL     1       1.412  10.697  17.405  0.00  0.00    +0.000 HD
ATOM     17  H   UNL     1       0.413  11.466  18.596  0.00  0.00    +0.000 HD
ENDBRANCH   3   6
BRANCH   4  18
ATOM     18  O   UNL     1       1.217   4.292  19.178  0.00  0.00    +0.000 OA
ATOM     19  H   UNL     1       1.002   5.200  18.902  0.00  0.00    +0.000 HD
ENDBRANCH   4  18
BRANCH   5  20
ATOM     20  O   UNL     1       3.172   2.348  17.813  0.00  0.00    +0.000 OA
ATOM     21  H   UNL     1       3.007   1.844  18.626  0.00  0.00    +0.000 HD
ENDBRANCH   5  20
BRANCH   1  22
ATOM     22  C   UNL     1       5.750   4.322  17.339  0.00  0.00    +0.000 C 
BRANCH  22  23
ATOM     23  O   UNL     1       5.085   4.308  16.070  0.00  0.00    +0.000 OA
BRANCH  23  24
ATOM     24  C   UNL     1       5.566   5.207  15.165  0.00  0.00    +0.000 C 
ATOM     25  O   UNL     1       5.211   6.379  15.113  0.00  0.00    +0.000 OA
BRANCH  24  26
ATOM     26  C   UNL     1       6.664   4.581  14.282  0.00  0.00    +0.000 C 
BRANCH  26  27
ATOM     27  N   UNL     1       7.890   5.389  14.454  0.00  0.00    +0.000 NA
ATOM     28  H   UNL     1       8.698   4.810  14.227  0.00  0.00    +0.000 HD
ATOM     29  H   UNL     1       7.988   5.670  15.426  0.00  0.00    +0.000 HD
ENDBRANCH  26  27
BRANCH  26  30
ATOM     30  C   UNL     1       6.217   4.433  12.799  0.00  0.00    +0.000 C 
ATOM     31  C   UNL     1       7.375   4.537  11.793  0.00  0.00    +0.000 C 
BRANCH  30  33
ATOM     32  C   UNL     1       4.344   3.234  11.480  0.00  0.00    +0.000 C 
ATOM     33  C   UNL     1       5.464   3.112  12.502  0.00  0.00    +0.000 C 
ENDBRANCH  30  33
ENDBRANCH  26  30
ENDBRANCH  24  26
ENDBRANCH  23  24
ENDBRANCH  22  23
ENDBRANCH   1  22
TORSDOF 10
ENDMDL
MODEL 3
REMARK VINA RESULT:      -7.5      1.812      2.980
REMARK  Name = 
REMARK  12 active torsions:
REMARK  status: ('A' for Active; 'I' for Inactive)
REMARK    1  A    between atoms: C_1  and  C_2
REMARK    2  A    between atoms: C_2  and  C_3
REMARK    3  A    between atoms: C_3  and  C_4
REMARK    4  A    between atoms: C_3  and  C_5
REMARK    5  A    between atoms: C_5  and  N_6
REMARK    6  A    between atoms: C_5  and  C_7
REMARK    7  A    between atoms: C_7  and  O_9
REMARK    8  A    between atoms: O_9  and  C_10
REMARK    9  A    between atoms: C_10  and  C_11
REMARK   10  A    between atoms: C_13  and  N_14
REMARK   11  A    between atoms: C_24  and  O_25
REMARK   12  A    between atoms: C_26  and  O_27
REMARK                            x       y       z     vdW  Elec       q    Type
REMARK                         _______ _______ _______ _____ _____    ______ ____
ROOT
ATOM      1  C   UNL     1       5.246   4.343  18.942  0.00  0.00    +0.000 C 
ATOM      2  O   UNL     1       4.682   5.324  19.846  0.00  0.00    +0.000 OA
ATOM      3  C   UNL     1       3.240   5.341  19.683  0.00  0.00    +0.000 C 
ATOM      4  C   UNL     1       2.901   4.103  18.838  0.00  0.00    +0.000 C 
ATOM      5  C   UNL     1       4.137   3.965  17.959  0.00  0.00    +0.000 C 
ENDROOT
BRANCH   3   6
ATOM      6  N   UNL     1       2.860   6.615  19.102  0.00  0.00    +0.000 N 
ATOM      7  C   UNL     1       3.248   7.120  17.888  0.00  0.00    +0.000 A 
ATOM      8  N   UNL     1       2.685   8.275  17.620  0.00  0.00    +0.000 NA
ATOM      9  C   UNL     1       1.936   8.563  18.738  0.00  0.00    +0.000 A 
ATOM     10  C   UNL     1       1.127   9.659  19.067  0.00  0.00    +0.000 A 
ATOM     11  N   UNL     1       0.916  10.719  18.194  0.00  0.00    +0.000 N 
ATOM     12  N   UNL     1       0.539   9.683  20.284  0.00  0.00    +0.000 NA
ATOM     13  C   UNL     1       0.736   8.630  21.110  0.00  0.00    +0.000 A 
ATOM     14  N   UNL     1       1.473   7.518  20.895  0.00  0.00    +0.000 NA
ATOM     15  C   UNL     1       2.047   7.553  19.684  0.00  0.00    +0.000 A 
ATOM     16  H   UNL     1       1.623  10.788  17.470  0.00  0.00    +0.000 HD
ATOM     17  H   UNL     1       0.641  11.568  18.669  0.00  0.00    +0.000 HD
ENDBRANCH   3   6
BRANCH   4  18
ATOM     18  O   UNL     1       1.676   4.136  18.123  0.00  0.00    +0.000 OA
ATOM     19  H   UNL     1       1.522   3.278  17.689  0.00  0.00    +0.000 HD
ENDBRANCH   4  18
BRANCH   5  20
ATOM     20  O   UNL     1       4.281   2.665  17.406  0.00  0.00    +0.000 OA
ATOM     21  H   UNL     1       5.204   2.375  17.484  0.00  0.00    +0.000 HD
ENDBRANCH   5  20
BRANCH   1  22
ATOM     22  C   UNL     1       6.503   4.919  18.270  0.00  0.00    +0.000 C 
BRANCH  22  23
ATOM     23  O   UNL     1       6.787   4.348  16.988  0.00  0.00    +0.000 OA
BRANCH  23  24
ATOM     24  C   UNL     1       7.191   5.242  16.042  0.00  0.00    +0.000 C 
ATOM     25  O   UNL     1       7.426   6.422  16.274  0.00  0.00    +0.000 OA
BRANCH  24  26
ATOM     26  C   UNL     1       7.392   4.559  14.674  0.00  0.00    +0.000 C 
BRANCH  26  27
ATOM     27  N   UNL     1       7.850   5.592  13.721  0.00  0.00    +0.000 NA
ATOM     28  H   UNL     1       7.069   5.853  13.121  0.00  0.00    +0.000 HD
ATOM     29  H   UNL     1       8.575   5.211  13.117  0.00  0.00    +0.000 HD
ENDBRANCH  26  27
BRANCH  26  30
ATOM     30  C   UNL     1       6.122   3.794  14.203  0.00  0.00    +0.000 C 
ATOM     31  C   UNL     1       4.817   4.584  14.405  0.00  0.00    +0.000 C 
BRANCH  30  33
ATOM     32  C   UNL     1       4.850   3.474  11.974  0.00  0.00    +0.000 C 
ATOM     33  C   UNL     1       6.170   3.353  12.719  0.00  0.00    +0.000 C 
ENDBRANCH  30  33
ENDBRANCH  26  30
ENDBRANCH  24  26
ENDBRANCH  23  24
ENDBRANCH  22  23
ENDBRANCH   1  22
TORSDOF 10
ENDMDL
MODEL 4
REMARK VINA RESULT:      -7.4      1.210      1.513
REMARK  Name = 
REMARK  12 active torsions:
REMARK  status: ('A' for Active; 'I' for Inactive)
REMARK    1  A    between atoms: C_1  and  C_2
REMARK    2  A    between atoms: C_2  and  C_3
REMARK    3  A    between atoms: C_3  and  C_4
REMARK    4  A    between atoms: C_3  and  C_5
REMARK    5  A    between atoms: C_5  and  N_6
REMARK    6  A    between atoms: C_5  and  C_7
REMARK    7  A    between atoms: C_7  and  O_9
REMARK    8  A    between atoms: O_9  and  C_10
REMARK    9  A    between atoms: C_10  and  C_11
REMARK   10  A    between atoms: C_13  and  N_14
REMARK   11  A    between atoms: C_24  and  O_25
REMARK   12  A    between atoms: C_26  and  O_27
REMARK                            x       y       z     vdW  Elec       q    Type
REMARK                         _______ _______ _______ _____ _____    ______ ____
ROOT
ATOM      1  C   UNL     1       3.730   3.091  19.030  0.00  0.00    +0.000 C 
ATOM      2  O   UNL     1       4.162   4.328  19.651  0.00  0.00    +0.000 OA
ATOM      3  C   UNL     1       3.011   4.983  20.244  0.00  0.00    +0.000 C 
ATOM      4  C   UNL     1       1.880   3.943  20.220  0.00  0.00    +0.000 C 
ATOM      5  C   UNL     1       2.204   3.145  18.964  0.00  0.00    +0.000 C 
ENDROOT
BRANCH   3   6
ATOM      6  N   UNL     1       2.750   6.205  19.506  0.00  0.00    +0.000 N 
ATOM      7  C   UNL     1       3.211   6.532  18.258  0.00  0.00    +0.000 A 
ATOM      8  N   UNL     1       2.749   7.687  17.838  0.00  0.00    +0.000 NA
ATOM      9  C   UNL     1       1.993   8.159  18.886  0.00  0.00    +0.000 A 
ATOM     10  C   UNL     1       1.263   9.344  19.055  0.00  0.00    +0.000 A 
ATOM     11  N   UNL     1       1.161  10.307  18.059  0.00  0.00    +0.000 N 
ATOM     12  N   UNL     1       0.644   9.554  20.238  0.00  0.00    +0.000 NA
ATOM     13  C   UNL     1       0.732   8.595  21.187  0.00  0.00    +0.000 A 
ATOM     14  N   UNL     1       1.386   7.413  21.130  0.00  0.00    +0.000 NA
ATOM     15  C   UNL     1       1.996   7.262  19.945  0.00  0.00    +0.000 A 
ATOM     16  H   UNL     1       1.892  10.238  17.360  0.00  0.00    +0.000 HD
ATOM     17  H   UNL     1       0.940  11.224  18.423  0.00  0.00    +0.000 HD
ENDBRANCH   3   6
BRANCH   4  18
ATOM     18  O   UNL     1       0.553   4.444  20.268  0.00  0.00    +0.000 OA
ATOM     19  H   UNL     1       0.477   5.235  19.706  0.00  0.00    +0.000 HD
ENDBRANCH   4  18
BRANCH   5  20
ATOM     20  O   UNL     1       1.588   1.865  18.948  0.00  0.00    +0.000 OA
ATOM     21  H   UNL     1       0.735   1.915  18.484  0.00  0.00    +0.000 HD
ENDBRANCH   5  20
BRANCH   1  22
ATOM     22  C   UNL     1       4.407   2.938  17.658  0.00  0.00    +0.000 C 
BRANCH  22  23
ATOM     23  O   UNL     1       4.193   4.048  16.780  0.00  0.00    +0.000 OA
BRANCH  23  24
ATOM     24  C   UNL     1       5.294   4.444  16.080  0.00  0.00    +0.000 C 
ATOM     25  O   UNL     1       5.856   3.749  15.242  0.00  0.00    +0.000 OA
BRANCH  24  26
ATOM     26  C   UNL     1       5.683   5.897  16.420  0.00  0.00    +0.000 C 
BRANCH  26  27
ATOM     27  N   UNL     1       5.404   6.725  15.228  0.00  0.00    +0.000 NA
ATOM     28  H   UNL     1       5.275   7.692  15.523  0.00  0.00    +0.000 HD
ATOM     29  H   UNL     1       4.534   6.427  14.793  0.00  0.00    +0.000 HD
ENDBRANCH  26  27
BRANCH  26  30
ATOM     30  C   UNL     1       7.147   6.013  16.932  0.00  0.00    +0.000 C 
ATOM     31  C   UNL     1       7.517   7.421  17.426  0.00  0.00    +0.000 C 
BRANCH  30  33
ATOM     32  C   UNL     1       7.734   5.660  19.426  0.00  0.00    +0.000 C 
ATOM     33  C   UNL     1       7.493   5.018  18.069  0.00  0.00    +0.000 C 
ENDBRANCH  30  33
ENDBRANCH  26  30
ENDBRANCH  24  26
ENDBRANCH  23  24
ENDBRANCH  22  23
ENDBRANCH   1  22
TORSDOF 10
ENDMDL
MODEL 5
REMARK VINA RESULT:      -7.1      1.616      2.564
REMARK  Name = 
REMARK  12 active torsions:
REMARK  status: ('A' for Active; 'I' for Inactive)
REMARK    1  A    between atoms: C_1  and  C_2
REMARK    2  A    between atoms: C_2  and  C_3
REMARK    3  A    between atoms: C_3  and  C_4
REMARK    4  A    between atoms: C_3  and  C_5
REMARK    5  A    between atoms: C_5  and  N_6
REMARK    6  A    between atoms: C_5  and  C_7
REMARK    7  A    between atoms: C_7  and  O_9
REMARK    8  A    between atoms: O_9  and  C_10
REMARK    9  A    between atoms: C_10  and  C_11
REMARK   10  A    between atoms: C_13  and  N_14
REMARK   11  A    between atoms: C_24  and  O_25
REMARK   12  A    between atoms: C_26  and  O_27
REMARK                            x       y       z     vdW  Elec       q    Type
REMARK                         _______ _______ _______ _____ _____    ______ ____
ROOT
ATOM      1  C   UNL     1       4.356   3.725  19.082  0.00  0.00    +0.000 C 
ATOM      2  O   UNL     1       4.448   4.993  19.779  0.00  0.00    +0.000 OA
ATOM      3  C   UNL     1       3.118   5.398  20.195  0.00  0.00    +0.000 C 
ATOM      4  C   UNL     1       2.221   4.169  19.983  0.00  0.00    +0.000 C 
ATOM      5  C   UNL     1       2.874   3.497  18.782  0.00  0.00    +0.000 C 
ENDROOT
BRANCH   3   6
ATOM      6  N   UNL     1       2.744   6.581  19.441  0.00  0.00    +0.000 N 
ATOM      7  C   UNL     1       3.122   6.902  18.163  0.00  0.00    +0.000 A 
ATOM      8  N   UNL     1       2.567   8.013  17.739  0.00  0.00    +0.000 NA
ATOM      9  C   UNL     1       1.834   8.466  18.812  0.00  0.00    +0.000 A 
ATOM     10  C   UNL     1       1.040   9.607  18.988  0.00  0.00    +0.000 A 
ATOM     11  N   UNL     1       0.828  10.534  17.975  0.00  0.00    +0.000 N 
ATOM     12  N   UNL     1       0.467   9.811  20.195  0.00  0.00    +0.000 NA
ATOM     13  C   UNL     1       0.663   8.886  21.162  0.00  0.00    +0.000 A 
ATOM     14  N   UNL     1       1.387   7.746  21.101  0.00  0.00    +0.000 NA
ATOM     15  C   UNL     1       1.947   7.601  19.891  0.00  0.00    +0.000 A 
ATOM     16  H   UNL     1       1.527  10.491  17.242  0.00  0.00    +0.000 HD
ATOM     17  H   UNL     1       0.567  11.445  18.327  0.00  0.00    +0.000 HD
ENDBRANCH   3   6
BRANCH   4  18
ATOM     18  O   UNL     1       0.831   4.413  19.830  0.00  0.00    +0.000 OA
ATOM     19  H   UNL     1       0.326   3.840  20.433  0.00  0.00    +0.000 HD
ENDBRANCH   4  18
BRANCH   5  20
ATOM     20  O   UNL     1       2.521   2.128  18.654  0.00  0.00    +0.000 OA
ATOM     21  H   UNL     1       2.407   1.903  17.716  0.00  0.00    +0.000 HD
ENDBRANCH   5  20
BRANCH   1  22
ATOM     22  C   UNL     1       5.247   3.757  17.830  0.00  0.00    +0.000 C 
BRANCH  22  23
ATOM     23  O   UNL     1       6.030   4.950  17.708  0.00  0.00    +0.000 OA
BRANCH  23  24
ATOM     24  C   UNL     1       7.145   4.823  16.933  0.00  0.00    +0.000 C 
ATOM     25  O   UNL     1       8.145   4.202  17.271  0.00  0.00    +0.000 OA
BRANCH  24  26
ATOM     26  C   UNL     1       6.948   5.487  15.554  0.00  0.00    +0.000 C 
BRANCH  26  27
ATOM     27  N   UNL     1       5.783   6.392  15.656  0.00  0.00    +0.000 NA
ATOM     28  H   UNL     1       5.008   5.989  15.132  0.00  0.00    +0.000 HD
ATOM     29  H   UNL     1       6.001   7.288  15.226  0.00  0.00    +0.000 HD
ENDBRANCH  26  27
BRANCH  26  30
ATOM     30  C   UNL     1       6.828   4.443  14.408  0.00  0.00    +0.000 C 
ATOM     31  C   UNL     1       5.378   4.042  14.088  0.00  0.00    +0.000 C 
BRANCH  30  33
ATOM     32  C   UNL     1       7.091   4.073  11.862  0.00  0.00    +0.000 C 
ATOM     33  C   UNL     1       7.486   4.894  13.079  0.00  0.00    +0.000 C 
ENDBRANCH  30  33
ENDBRANCH  26  30
ENDBRANCH  24  26
ENDBRANCH  23  24
ENDBRANCH  22  23
ENDBRANCH   1  22
TORSDOF 10
ENDMDL
MODEL 6
REMARK VINA RESULT:      -7.1      2.380      6.160
REMARK  Name = 
REMARK  12 active torsions:
REMARK  status: ('A' for Active; 'I' for Inactive)
REMARK    1  A    between atoms: C_1  and  C_2
REMARK    2  A    between atoms: C_2  and  C_3
REMARK    3  A    between atoms: C_3  and  C_4
REMARK    4  A    between atoms: C_3  and  C_5
REMARK    5  A    between atoms: C_5  and  N_6
REMARK    6  A    between atoms: C_5  and  C_7
REMARK    7  A    between atoms: C_7  and  O_9
REMARK    8  A    between atoms: O_9  and  C_10
REMARK    9  A    between atoms: C_10  and  C_11
REMARK   10  A    between atoms: C_13  and  N_14
REMARK   11  A    between atoms: C_24  and  O_25
REMARK   12  A    between atoms: C_26  and  O_27
REMARK                            x       y       z     vdW  Elec       q    Type
REMARK                         _______ _______ _______ _____ _____    ______ ____
ROOT
ATOM      1  C   UNL     1       1.767   3.478  19.841  0.00  0.00    +0.000 C 
ATOM      2  O   UNL     1       2.355   3.596  18.522  0.00  0.00    +0.000 OA
ATOM      3  C   UNL     1       3.679   3.001  18.542  0.00  0.00    +0.000 C 
ATOM      4  C   UNL     1       3.773   2.236  19.872  0.00  0.00    +0.000 C 
ATOM      5  C   UNL     1       2.898   3.079  20.790  0.00  0.00    +0.000 C 
ENDROOT
BRANCH   3   6
ATOM      6  N   UNL     1       4.657   4.058  18.360  0.00  0.00    +0.000 N 
ATOM      7  C   UNL     1       5.220   4.841  19.334  0.00  0.00    +0.000 A 
ATOM      8  N   UNL     1       6.118   5.670  18.856  0.00  0.00    +0.000 NA
ATOM      9  C   UNL     1       6.102   5.452  17.497  0.00  0.00    +0.000 A 
ATOM     10  C   UNL     1       6.818   6.041  16.445  0.00  0.00    +0.000 A 
ATOM     11  N   UNL     1       7.783   7.018  16.654  0.00  0.00    +0.000 N 
ATOM     12  N   UNL     1       6.548   5.643  15.182  0.00  0.00    +0.000 NA
ATOM     13  C   UNL     1       5.624   4.673  15.000  0.00  0.00    +0.000 A 
ATOM     14  N   UNL     1       4.891   4.024  15.932  0.00  0.00    +0.000 NA
ATOM     15  C   UNL     1       5.183   4.467  17.163  0.00  0.00    +0.000 A 
ATOM     16  H   UNL     1       7.695   7.482  17.552  0.00  0.00    +0.000 HD
ATOM     17  H   UNL     1       7.940   7.593  15.838  0.00  0.00    +0.000 HD
ENDBRANCH   3   6
BRANCH   4  18
ATOM     18  O   UNL     1       5.077   1.989  20.374  0.00  0.00    +0.000 OA
ATOM     19  H   UNL     1       5.164   2.363  21.269  0.00  0.00    +0.000 HD
ENDBRANCH   4  18
BRANCH   5  20
ATOM     20  O   UNL     1       2.456   2.370  21.938  0.00  0.00    +0.000 OA
ATOM     21  H   UNL     1       3.161   2.351  22.606  0.00  0.00    +0.000 HD
ENDBRANCH   5  20
BRANCH   1  22
ATOM     22  C   UNL     1       1.074   4.798  20.219  0.00  0.00    +0.000 C 
BRANCH  22  23
ATOM     23  O   UNL     1       1.983   5.847  20.572  0.00  0.00    +0.000 OA
BRANCH  23  24
ATOM     24  C   UNL     1       2.071   6.857  19.661  0.00  0.00    +0.000 C 
ATOM     25  O   UNL     1       2.233   6.680  18.459  0.00  0.00    +0.000 OA
BRANCH  24  26
ATOM     26  C   UNL     1       1.855   8.232  20.325  0.00  0.00    +0.000 C 
BRANCH  26  27
ATOM     27  N   UNL     1       1.728   8.011  21.781  0.00  0.00    +0.000 NA
ATOM     28  H   UNL     1       0.987   8.611  22.141  0.00  0.00    +0.000 HD
ATOM     29  H   UNL     1       2.588   8.284  22.250  0.00  0.00    +0.000 HD
ENDBRANCH  26  27
BRANCH  26  30
ATOM     30  C   UNL     1       0.657   9.007  19.705  0.00  0.00    +0.000 C 
ATOM     31  C   UNL     1      -0.373   9.482  20.743  0.00  0.00    +0.000 C 
BRANCH  30  33
ATOM     32  C   UNL     1       2.151   9.973  17.829  0.00  0.00    +0.000 C 
ATOM     33  C   UNL     1       1.075  10.242  18.868  0.00  0.00    +0.000 C 
ENDBRANCH  30  33
ENDBRANCH  26  30
ENDBRANCH  24  26
ENDBRANCH  23  24
ENDBRANCH  22  23
ENDBRANCH   1  22
TORSDOF 10
ENDMDL
MODEL 7
REMARK VINA RESULT:      -7.0      3.616      5.604
REMARK  Name = 
REMARK  12 active torsions:
REMARK  status: ('A' for Active; 'I' for Inactive)
REMARK    1  A    between atoms: C_1  and  C_2
REMARK    2  A    between atoms: C_2  and  C_3
REMARK    3  A    between atoms: C_3  and  C_4
REMARK    4  A    between atoms: C_3  and  C_5
REMARK    5  A    between atoms: C_5  and  N_6
REMARK    6  A    between atoms: C_5  and  C_7
REMARK    7  A    between atoms: C_7  and  O_9
REMARK    8  A    between atoms: O_9  and  C_10
REMARK    9  A    between atoms: C_10  and  C_11
REMARK   10  A    between atoms: C_13  and  N_14
REMARK   11  A    between atoms: C_24  and  O_25
REMARK   12  A    between atoms: C_26  and  O_27
REMARK                            x       y       z     vdW  Elec       q    Type
REMARK                         _______ _______ _______ _____ _____    ______ ____
ROOT
ATOM      1  C   UNL     1       6.221   5.989  16.496  0.00  0.00    +0.000 C 
ATOM      2  O   UNL     1       4.967   6.374  17.113  0.00  0.00    +0.000 OA
ATOM      3  C   UNL     1       4.800   5.626  18.345  0.00  0.00    +0.000 C 
ATOM      4  C   UNL     1       6.161   4.967  18.622  0.00  0.00    +0.000 C 
ATOM      5  C   UNL     1       6.693   4.725  17.215  0.00  0.00    +0.000 C 
ENDROOT
BRANCH   3   6
ATOM      6  N   UNL     1       3.687   4.710  18.177  0.00  0.00    +0.000 N 
ATOM      7  C   UNL     1       3.200   4.207  16.999  0.00  0.00    +0.000 A 
ATOM      8  N   UNL     1       2.220   3.353  17.183  0.00  0.00    +0.000 NA
ATOM      9  C   UNL     1       2.025   3.339  18.546  0.00  0.00    +0.000 A 
ATOM     10  C   UNL     1       1.114   2.645  19.354  0.00  0.00    +0.000 A 
ATOM     11  N   UNL     1       0.193   1.743  18.837  0.00  0.00    +0.000 N 
ATOM     12  N   UNL     1       1.133   2.874  20.686  0.00  0.00    +0.000 NA
ATOM     13  C   UNL     1       2.053   3.737  21.175  0.00  0.00    +0.000 A 
ATOM     14  N   UNL     1       2.986   4.443  20.499  0.00  0.00    +0.000 NA
ATOM     15  C   UNL     1       2.913   4.193  19.184  0.00  0.00    +0.000 A 
ATOM     16  H   UNL     1       0.022   1.870  17.845  0.00  0.00    +0.000 HD
ATOM     17  H   UNL     1      -0.606   1.609  19.441  0.00  0.00    +0.000 HD
ENDBRANCH   3   6
BRANCH   4  18
ATOM     18  O   UNL     1       6.154   3.816  19.450  0.00  0.00    +0.000 OA
ATOM     19  H   UNL     1       6.957   3.288  19.291  0.00  0.00    +0.000 HD
ENDBRANCH   4  18
BRANCH   5  20
ATOM     20  O   UNL     1       8.100   4.539  17.180  0.00  0.00    +0.000 OA
ATOM     21  H   UNL     1       8.490   4.813  18.027  0.00  0.00    +0.000 HD
ENDBRANCH   5  20
BRANCH   1  22
ATOM     22  C   UNL     1       6.019   5.805  14.983  0.00  0.00    +0.000 C 
BRANCH  22  23
ATOM     23  O   UNL     1       7.196   5.374  14.290  0.00  0.00    +0.000 OA
BRANCH  23  24
ATOM     24  C   UNL     1       6.962   4.761  13.095  0.00  0.00    +0.000 C 
ATOM     25  O   UNL     1       7.718   4.831  12.133  0.00  0.00    +0.000 OA
BRANCH  24  26
ATOM     26  C   UNL     1       5.677   3.909  13.143  0.00  0.00    +0.000 C 
BRANCH  26  27
ATOM     27  N   UNL     1       5.863   2.878  14.185  0.00  0.00    +0.000 NA
ATOM     28  H   UNL     1       5.995   1.974  13.732  0.00  0.00    +0.000 HD
ATOM     29  H   UNL     1       5.024   2.805  14.756  0.00  0.00    +0.000 HD
ENDBRANCH  26  27
BRANCH  26  30
ATOM     30  C   UNL     1       5.301   3.329  11.750  0.00  0.00    +0.000 C 
ATOM     31  C   UNL     1       5.821   1.901  11.516  0.00  0.00    +0.000 C 
BRANCH  30  33
ATOM     32  C   UNL     1       3.387   3.782  10.071  0.00  0.00    +0.000 C 
ATOM     33  C   UNL     1       3.778   3.319  11.465  0.00  0.00    +0.000 C 
ENDBRANCH  30  33
ENDBRANCH  26  30
ENDBRANCH  24  26
ENDBRANCH  23  24
ENDBRANCH  22  23
ENDBRANCH   1  22
TORSDOF 10
ENDMDL
MODEL 8
REMARK VINA RESULT:      -7.0      1.859      3.061
REMARK  Name = 
REMARK  12 active torsions:
REMARK  status: ('A' for Active; 'I' for Inactive)
REMARK    1  A    between atoms: C_1  and  C_2
REMARK    2  A    between atoms: C_2  and  C_3
REMARK    3  A    between atoms: C_3  and  C_4
REMARK    4  A    between atoms: C_3  and  C_5
REMARK    5  A    between atoms: C_5  and  N_6
REMARK    6  A    between atoms: C_5  and  C_7
REMARK    7  A    between atoms: C_7  and  O_9
REMARK    8  A    between atoms: O_9  and  C_10
REMARK    9  A    between atoms: C_10  and  C_11
REMARK   10  A    between atoms: C_13  and  N_14
REMARK   11  A    between atoms: C_24  and  O_25
REMARK   12  A    between atoms: C_26  and  O_27
REMARK                            x       y       z     vdW  Elec       q    Type
REMARK                         _______ _______ _______ _____ _____    ______ ____
ROOT
ATOM      1  C   UNL     1       5.436   4.586  18.911  0.00  0.00    +0.000 C 
ATOM      2  O   UNL     1       4.903   5.625  19.770  0.00  0.00    +0.000 OA
ATOM      3  C   UNL     1       3.453   5.568  19.733  0.00  0.00    +0.000 C 
ATOM      4  C   UNL     1       3.104   4.244  19.035  0.00  0.00    +0.000 C 
ATOM      5  C   UNL     1       4.268   4.075  18.067  0.00  0.00    +0.000 C 
ENDROOT
BRANCH   3   6
ATOM      6  N   UNL     1       2.966   6.767  19.075  0.00  0.00    +0.000 N 
ATOM      7  C   UNL     1       3.298   7.218  17.824  0.00  0.00    +0.000 A 
ATOM      8  N   UNL     1       2.642   8.304  17.490  0.00  0.00    +0.000 NA
ATOM      9  C   UNL     1       1.884   8.605  18.599  0.00  0.00    +0.000 A 
ATOM     10  C   UNL     1       0.992   9.653  18.868  0.00  0.00    +0.000 A 
ATOM     11  N   UNL     1       0.687  10.633  17.931  0.00  0.00    +0.000 N 
ATOM     12  N   UNL     1       0.418   9.711  20.090  0.00  0.00    +0.000 NA
ATOM     13  C   UNL     1       0.707   8.735  20.980  0.00  0.00    +0.000 A 
ATOM     14  N   UNL     1       1.530   7.674  20.827  0.00  0.00    +0.000 NA
ATOM     15  C   UNL     1       2.086   7.673  19.607  0.00  0.00    +0.000 A 
ATOM     16  H   UNL     1       1.378  10.709  17.193  0.00  0.00    +0.000 HD
ATOM     17  H   UNL     1       0.350  11.486  18.353  0.00  0.00    +0.000 HD
ENDBRANCH   3   6
BRANCH   4  18
ATOM     18  O   UNL     1       1.824   4.161  18.429  0.00  0.00    +0.000 OA
ATOM     19  H   UNL     1       1.245   4.860  18.781  0.00  0.00    +0.000 HD
ENDBRANCH   4  18
BRANCH   5  20
ATOM     20  O   UNL     1       4.428   2.736  17.622  0.00  0.00    +0.000 OA
ATOM     21  H   UNL     1       3.659   2.206  17.888  0.00  0.00    +0.000 HD
ENDBRANCH   5  20
BRANCH   1  22
ATOM     22  C   UNL     1       6.603   5.148  18.083  0.00  0.00    +0.000 C 
BRANCH  22  23
ATOM     23  O   UNL     1       6.760   4.520  16.805  0.00  0.00    +0.000 OA
BRANCH  23  24
ATOM     24  C   UNL     1       6.168   5.180  15.769  0.00  0.00    +0.000 C 
ATOM     25  O   UNL     1       6.137   6.401  15.666  0.00  0.00    +0.000 OA
BRANCH  24  26
ATOM     26  C   UNL     1       5.624   4.195  14.715  0.00  0.00    +0.000 C 
BRANCH  26  27
ATOM     27  N   UNL     1       5.941   2.827  15.175  0.00  0.00    +0.000 NA
ATOM     28  H   UNL     1       5.329   2.169  14.694  0.00  0.00    +0.000 HD
ATOM     29  H   UNL     1       5.748   2.741  16.170  0.00  0.00    +0.000 HD
ENDBRANCH  26  27
BRANCH  26  30
ATOM     30  C   UNL     1       6.150   4.510  13.285  0.00  0.00    +0.000 C 
ATOM     31  C   UNL     1       7.632   4.916  13.249  0.00  0.00    +0.000 C 
BRANCH  30  33
ATOM     32  C   UNL     1       4.584   3.261  11.649  0.00  0.00    +0.000 C 
ATOM     33  C   UNL     1       5.965   3.346  12.279  0.00  0.00    +0.000 C 
ENDBRANCH  30  33
ENDBRANCH  26  30
ENDBRANCH  24  26
ENDBRANCH  23  24
ENDBRANCH  22  23
ENDBRANCH   1  22
TORSDOF 10
ENDMDL
MODEL 9
REMARK VINA RESULT:      -7.0      3.501      5.837
REMARK  Name = 
REMARK  12 active torsions:
REMARK  status: ('A' for Active; 'I' for Inactive)
REMARK    1  A    between atoms: C_1  and  C_2
REMARK    2  A    between atoms: C_2  and  C_3
REMARK    3  A    between atoms: C_3  and  C_4
REMARK    4  A    between atoms: C_3  and  C_5
REMARK    5  A    between atoms: C_5  and  N_6
REMARK    6  A    between atoms: C_5  and  C_7
REMARK    7  A    between atoms: C_7  and  O_9
REMARK    8  A    between atoms: O_9  and  C_10
REMARK    9  A    between atoms: C_10  and  C_11
REMARK   10  A    between atoms: C_13  and  N_14
REMARK   11  A    between atoms: C_24  and  O_25
REMARK   12  A    between atoms: C_26  and  O_27
REMARK                            x       y       z     vdW  Elec       q    Type
REMARK                         _______ _______ _______ _____ _____    ______ ____
ROOT
ATOM      1  C   UNL     1       7.823   6.426  17.595  0.00  0.00    +0.000 C 
ATOM      2  O   UNL     1       7.392   5.799  18.828  0.00  0.00    +0.000 OA
ATOM      3  C   UNL     1       6.610   4.619  18.508  0.00  0.00    +0.000 C 
ATOM      4  C   UNL     1       6.825   4.371  17.007  0.00  0.00    +0.000 C 
ATOM      5  C   UNL     1       7.011   5.784  16.470  0.00  0.00    +0.000 C 
ENDROOT
BRANCH   3   6
ATOM      6  N   UNL     1       5.236   4.858  18.910  0.00  0.00    +0.000 N 
ATOM      7  C   UNL     1       4.509   6.006  18.732  0.00  0.00    +0.000 A 
ATOM      8  N   UNL     1       3.272   5.888  19.153  0.00  0.00    +0.000 NA
ATOM      9  C   UNL     1       3.205   4.618  19.680  0.00  0.00    +0.000 A 
ATOM     10  C   UNL     1       2.161   3.914  20.296  0.00  0.00    +0.000 A 
ATOM     11  N   UNL     1       0.889   4.449  20.452  0.00  0.00    +0.000 N 
ATOM     12  N   UNL     1       2.412   2.670  20.762  0.00  0.00    +0.000 NA
ATOM     13  C   UNL     1       3.649   2.156  20.579  0.00  0.00    +0.000 A 
ATOM     14  N   UNL     1       4.720   2.729  19.986  0.00  0.00    +0.000 NA
ATOM     15  C   UNL     1       4.423   3.965  19.559  0.00  0.00    +0.000 A 
ATOM     16  H   UNL     1       0.869   5.461  20.384  0.00  0.00    +0.000 HD
ATOM     17  H   UNL     1       0.372   4.016  21.204  0.00  0.00    +0.000 HD
ENDBRANCH   3   6
BRANCH   4  18
ATOM     18  O   UNL     1       5.826   3.619  16.336  0.00  0.00    +0.000 OA
ATOM     19  H   UNL     1       5.858   3.803  15.380  0.00  0.00    +0.000 HD
ENDBRANCH   4  18
BRANCH   5  20
ATOM     20  O   UNL     1       7.659   5.817  15.207  0.00  0.00    +0.000 OA
ATOM     21  H   UNL     1       7.902   4.916  14.938  0.00  0.00    +0.000 HD
ENDBRANCH   5  20
BRANCH   1  22
ATOM     22  C   UNL     1       7.647   7.950  17.700  0.00  0.00    +0.000 C 
BRANCH  22  23
ATOM     23  O   UNL     1       8.538   8.573  18.632  0.00  0.00    +0.000 OA
BRANCH  23  24
ATOM     24  C   UNL     1       8.692   9.917  18.463  0.00  0.00    +0.000 C 
ATOM     25  O   UNL     1       7.995  10.596  17.718  0.00  0.00    +0.000 OA
BRANCH  24  26
ATOM     26  C   UNL     1       9.791  10.476  19.390  0.00  0.00    +0.000 C 
BRANCH  26  27
ATOM     27  N   UNL     1       9.254  10.485  20.767  0.00  0.00    +0.000 NA
ATOM     28  H   UNL     1      10.027  10.601  21.420  0.00  0.00    +0.000 HD
ATOM     29  H   UNL     1       8.818   9.590  20.976  0.00  0.00    +0.000 HD
ENDBRANCH  26  27
BRANCH  26  30
ATOM     30  C   UNL     1      10.315  11.861  18.915  0.00  0.00    +0.000 C 
ATOM     31  C   UNL     1      10.983  12.683  20.030  0.00  0.00    +0.000 C 
BRANCH  30  33
ATOM     32  C   UNL     1      11.682  13.122  17.117  0.00  0.00    +0.000 C 
ATOM     33  C   UNL     1      11.318  11.781  17.736  0.00  0.00    +0.000 C 
ENDBRANCH  30  33
ENDBRANCH  26  30
ENDBRANCH  24  26
ENDBRANCH  23  24
ENDBRANCH  22  23
ENDBRANCH   1  22
TORSDOF 10
ENDMDL
