MODEL 1
REMARK VINA RESULT:      -7.9      0.000      0.000
REMARK  Name = 
REMARK  3 active torsions:
REMARK  status: ('A' for Active; 'I' for Inactive)
REMARK    1  A    between atoms: N_9  and  C_10
REMARK    2  A    between atoms: C_10  and  C_11
REMARK    3  A    between atoms: C_13  and  C_14
REMARK                            x       y       z     vdW  Elec       q    Type
REMARK                         _______ _______ _______ _____ _____    ______ ____
ROOT
ATOM      1  F   UNL     1      -0.226  11.164  21.446  0.00  0.00    +0.000 F 
ATOM      2  C   UNL     1       0.408  10.057  21.051  0.00  0.00    +0.000 A 
ATOM      3  C   UNL     1       0.488   8.940  21.840  0.00  0.00    +0.000 A 
ATOM      4  N   UNL     1       1.123   7.815  21.463  0.00  0.00    +0.000 NA
ATOM      5  C   UNL     1       1.726   7.802  20.258  0.00  0.00    +0.000 A 
ATOM      6  N   UNL     1       2.427   6.683  19.885  0.00  0.00    +0.000 N 
ATOM      7  C   UNL     1       2.090   5.392  20.491  0.00  0.00    +0.000 C 
ATOM      8  C   UNL     1       1.648   4.361  19.419  0.00  0.00    +0.000 C 
ATOM      9  N   UNL     1       2.521   4.260  18.221  0.00  0.00    +0.000 NA
ATOM     10  C   UNL     1       2.628   5.638  17.660  0.00  0.00    +0.000 C 
ATOM     11  C   UNL     1       3.199   6.680  18.643  0.00  0.00    +0.000 C 
ATOM     12  N   UNL     1       1.688   8.861  19.427  0.00  0.00    +0.000 NA
ATOM     13  C   UNL     1       1.026   9.962  19.835  0.00  0.00    +0.000 A 
ENDROOT
BRANCH   9  14
ATOM     14  C   UNL     1       3.830   3.685  18.601  0.00  0.00    +0.000 C 
BRANCH  14  15
ATOM     15  C   UNL     1       4.915   4.141  17.673  0.00  0.00    +0.000 C 
ATOM     16  N   UNL     1       4.897   3.993  16.388  0.00  0.00    +0.000 NA
ATOM     17  C   UNL     1       6.113   4.485  15.974  0.00  0.00    +0.000 C 
ATOM     18  N   UNL     1       6.905   4.960  16.894  0.00  0.00    +0.000 NA
ATOM     19  C   UNL     1       6.155   4.810  18.153  0.00  0.00    +0.000 C 
BRANCH  17  20
ATOM     20  C   UNL     1       6.469   4.430  14.540  0.00  0.00    +0.000 A 
ATOM     21  C   UNL     1       5.797   3.567  13.667  0.00  0.00    +0.000 A 
ATOM     22  C   UNL     1       6.161   3.516  12.319  0.00  0.00    +0.000 A 
ATOM     23  C   UNL     1       7.194   4.326  11.843  0.00  0.00    +0.000 A 
ATOM     24  C   UNL     1       7.861   5.191  12.709  0.00  0.00    +0.000 A 
ATOM     25  C   UNL     1       7.499   5.246  14.057  0.00  0.00    +0.000 A 
ENDBRANCH  17  20
ENDBRANCH  14  15
ENDBRANCH   9  14
TORSDOF 3
ENDMDL
MODEL 2
REMARK VINA RESULT:      -7.9      0.646      1.157
REMARK  Name = 
REMARK  3 active torsions:
REMARK  status: ('A' for Active; 'I' for Inactive)
REMARK    1  A    between atoms: N_9  and  C_10
REMARK    2  A    between atoms: C_10  and  C_11
REMARK    3  A    between atoms: C_13  and  C_14
REMARK                            x       y       z     vdW  Elec       q    Type
REMARK                         _______ _______ _______ _____ _____    ______ ____
ROOT
ATOM      1  F   UNL     1      -1.159  11.180  21.442  0.00  0.00    +0.000 F 
ATOM      2  C   UNL     1      -0.335  10.199  21.063  0.00  0.00    +0.000 A 
ATOM      3  C   UNL     1      -0.013   9.156  21.890  0.00  0.00    +0.000 A 
ATOM      4  N   UNL     1       0.816   8.158  21.530  0.00  0.00    +0.000 NA
ATOM      5  C   UNL     1       1.367   8.206  20.302  0.00  0.00    +0.000 A 
ATOM      6  N   UNL     1       2.260   7.228  19.943  0.00  0.00    +0.000 N 
ATOM      7  C   UNL     1       2.201   5.926  20.612  0.00  0.00    +0.000 C 
ATOM      8  C   UNL     1       1.932   4.780  19.601  0.00  0.00    +0.000 C 
ATOM      9  N   UNL     1       2.766   4.794  18.371  0.00  0.00    +0.000 NA
ATOM     10  C   UNL     1       2.584   6.139  17.754  0.00  0.00    +0.000 C 
ATOM     11  C   UNL     1       2.974   7.317  18.670  0.00  0.00    +0.000 C 
ATOM     12  N   UNL     1       1.096   9.199  19.433  0.00  0.00    +0.000 NA
ATOM     13  C   UNL     1       0.247  10.169  19.827  0.00  0.00    +0.000 A 
ENDROOT
BRANCH   9  14
ATOM     14  C   UNL     1       4.174   4.501  18.718  0.00  0.00    +0.000 C 
BRANCH  14  15
ATOM     15  C   UNL     1       5.103   4.916  17.617  0.00  0.00    +0.000 C 
ATOM     16  N   UNL     1       5.090   4.429  16.418  0.00  0.00    +0.000 NA
ATOM     17  C   UNL     1       6.151   5.044  15.793  0.00  0.00    +0.000 C 
ATOM     18  N   UNL     1       6.831   5.907  16.492  0.00  0.00    +0.000 NA
ATOM     19  C   UNL     1       6.165   5.941  17.806  0.00  0.00    +0.000 C 
BRANCH  17  20
ATOM     20  C   UNL     1       6.476   4.686  14.395  0.00  0.00    +0.000 A 
ATOM     21  C   UNL     1       7.527   5.317  13.720  0.00  0.00    +0.000 A 
ATOM     22  C   UNL     1       7.807   4.978  12.394  0.00  0.00    +0.000 A 
ATOM     23  C   UNL     1       7.038   4.012  11.742  0.00  0.00    +0.000 A 
ATOM     24  C   UNL     1       5.994   3.378  12.415  0.00  0.00    +0.000 A 
ATOM     25  C   UNL     1       5.713   3.713  13.741  0.00  0.00    +0.000 A 
ENDBRANCH  17  20
ENDBRANCH  14  15
ENDBRANCH   9  14
TORSDOF 3
ENDMDL
MODEL 3
REMARK VINA RESULT:      -7.3      4.662      6.470
REMARK  Name = 
REMARK  3 active torsions:
REMARK  status: ('A' for Active; 'I' for Inactive)
REMARK    1  A    between atoms: N_9  and  C_10
REMARK    2  A    between atoms: C_10  and  C_11
REMARK    3  A    between atoms: C_13  and  C_14
REMARK                            x       y       z     vdW  Elec       q    Type
REMARK                         _______ _______ _______ _____ _____    ______ ____
ROOT
ATOM      1  F   UNL     1      -0.152   2.406  20.110  0.00  0.00    +0.000 F 
ATOM      2  C   UNL     1       0.952   2.946  19.586  0.00  0.00    +0.000 A 
ATOM      3  C   UNL     1       1.723   2.284  18.668  0.00  0.00    +0.000 A 
ATOM      4  N   UNL     1       2.840   2.807  18.129  0.00  0.00    +0.000 NA
ATOM      5  C   UNL     1       3.223   4.034  18.534  0.00  0.00    +0.000 A 
ATOM      6  N   UNL     1       4.391   4.556  18.038  0.00  0.00    +0.000 N 
ATOM      7  C   UNL     1       4.900   4.075  16.751  0.00  0.00    +0.000 C 
ATOM      8  C   UNL     1       5.011   5.227  15.718  0.00  0.00    +0.000 C 
ATOM      9  N   UNL     1       5.666   6.469  16.205  0.00  0.00    +0.000 NA
ATOM     10  C   UNL     1       4.925   6.886  17.430  0.00  0.00    +0.000 C 
ATOM     11  C   UNL     1       4.904   5.826  18.550  0.00  0.00    +0.000 C 
ATOM     12  N   UNL     1       2.515   4.746  19.432  0.00  0.00    +0.000 NA
ATOM     13  C   UNL     1       1.393   4.192  19.933  0.00  0.00    +0.000 A 
ENDROOT
BRANCH   9  14
ATOM     14  C   UNL     1       7.102   6.214  16.455  0.00  0.00    +0.000 C 
BRANCH  14  15
ATOM     15  C   UNL     1       7.684   7.241  17.378  0.00  0.00    +0.000 C 
ATOM     16  N   UNL     1       7.833   8.494  17.088  0.00  0.00    +0.000 NA
ATOM     17  C   UNL     1       8.467   9.022  18.189  0.00  0.00    +0.000 C 
ATOM     18  N   UNL     1       8.717   8.209  19.176  0.00  0.00    +0.000 NA
ATOM     19  C   UNL     1       8.175   6.909  18.743  0.00  0.00    +0.000 C 
BRANCH  17  20
ATOM     20  C   UNL     1       8.848  10.450  18.191  0.00  0.00    +0.000 A 
ATOM     21  C   UNL     1       8.048  11.408  17.557  0.00  0.00    +0.000 A 
ATOM     22  C   UNL     1       8.436  12.750  17.555  0.00  0.00    +0.000 A 
ATOM     23  C   UNL     1       9.622  13.136  18.182  0.00  0.00    +0.000 A 
ATOM     24  C   UNL     1      10.418  12.185  18.819  0.00  0.00    +0.000 A 
ATOM     25  C   UNL     1      10.033  10.843  18.826  0.00  0.00    +0.000 A 
ENDBRANCH  17  20
ENDBRANCH  14  15
ENDBRANCH   9  14
TORSDOF 3
ENDMDL
MODEL 4
REMARK VINA RESULT:      -6.9      2.533      4.832
REMARK  Name = 
REMARK  3 active torsions:
REMARK  status: ('A' for Active; 'I' for Inactive)
REMARK    1  A    between atoms: N_9  and  C_10
REMARK    2  A    between atoms: C_10  and  C_11
REMARK    3  A    between atoms: C_13  and  C_14
REMARK                            x       y       z     vdW  Elec       q    Type
REMARK                         _______ _______ _______ _____ _____    ______ ____
ROOT
ATOM      1  F   UNL     1      -2.506  15.286  21.128  0.00  0.00    +0.000 F 
ATOM      2  C   UNL     1      -2.008  14.048  21.076  0.00  0.00    +0.000 A 
ATOM      3  C   UNL     1      -1.933  13.339  19.907  0.00  0.00    +0.000 A 
ATOM      4  N   UNL     1      -1.438  12.090  19.831  0.00  0.00    +0.000 NA
ATOM      5  C   UNL     1      -1.017  11.507  20.971  0.00  0.00    +0.000 A 
ATOM      6  N   UNL     1      -0.564  10.212  20.919  0.00  0.00    +0.000 N 
ATOM      7  C   UNL     1      -0.047   9.685  19.654  0.00  0.00    +0.000 C 
ATOM      8  C   UNL     1       1.432   9.236  19.789  0.00  0.00    +0.000 C 
ATOM      9  N   UNL     1       1.746   8.393  20.972  0.00  0.00    +0.000 NA
ATOM     10  C   UNL     1       1.281   9.154  22.167  0.00  0.00    +0.000 C 
ATOM     11  C   UNL     1      -0.220   9.505  22.152  0.00  0.00    +0.000 C 
ATOM     12  N   UNL     1      -1.057  12.141  22.158  0.00  0.00    +0.000 NA
ATOM     13  C   UNL     1      -1.544  13.399  22.186  0.00  0.00    +0.000 A 
ENDROOT
BRANCH   9  14
ATOM     14  C   UNL     1       1.091   7.073  20.835  0.00  0.00    +0.000 C 
BRANCH  14  15
ATOM     15  C   UNL     1       2.064   6.029  20.375  0.00  0.00    +0.000 C 
ATOM     16  N   UNL     1       2.986   6.221  19.487  0.00  0.00    +0.000 NA
ATOM     17  C   UNL     1       3.570   4.984  19.336  0.00  0.00    +0.000 C 
ATOM     18  N   UNL     1       3.109   4.016  20.076  0.00  0.00    +0.000 NA
ATOM     19  C   UNL     1       2.052   4.635  20.894  0.00  0.00    +0.000 C 
BRANCH  17  20
ATOM     20  C   UNL     1       4.654   4.809  18.345  0.00  0.00    +0.000 A 
ATOM     21  C   UNL     1       4.365   4.459  17.021  0.00  0.00    +0.000 A 
ATOM     22  C   UNL     1       5.405   4.280  16.105  0.00  0.00    +0.000 A 
ATOM     23  C   UNL     1       6.730   4.450  16.510  0.00  0.00    +0.000 A 
ATOM     24  C   UNL     1       7.020   4.805  17.826  0.00  0.00    +0.000 A 
ATOM     25  C   UNL     1       5.984   4.986  18.744  0.00  0.00    +0.000 A 
ENDBRANCH  17  20
ENDBRANCH  14  15
ENDBRANCH   9  14
TORSDOF 3
ENDMDL
MODEL 5
REMARK VINA RESULT:      -6.9      1.347      2.052
REMARK  Name = 
REMARK  3 active torsions:
REMARK  status: ('A' for Active; 'I' for Inactive)
REMARK    1  A    between atoms: N_9  and  C_10
REMARK    2  A    between atoms: C_10  and  C_11
REMARK    3  A    between atoms: C_13  and  C_14
REMARK                            x       y       z     vdW  Elec       q    Type
REMARK                         _______ _______ _______ _____ _____    ______ ____
ROOT
ATOM      1  F   UNL     1      -1.931  12.483  19.912  0.00  0.00    +0.000 F 
ATOM      2  C   UNL     1      -1.024  11.516  19.747  0.00  0.00    +0.000 A 
ATOM      3  C   UNL     1      -0.336  10.974  20.799  0.00  0.00    +0.000 A 
ATOM      4  N   UNL     1       0.584  10.001  20.657  0.00  0.00    +0.000 NA
ATOM      5  C   UNL     1       0.849   9.560  19.412  0.00  0.00    +0.000 A 
ATOM      6  N   UNL     1       1.827   8.611  19.244  0.00  0.00    +0.000 N 
ATOM      7  C   UNL     1       2.169   7.732  20.365  0.00  0.00    +0.000 C 
ATOM      8  C   UNL     1       1.932   6.240  20.009  0.00  0.00    +0.000 C 
ATOM      9  N   UNL     1       2.475   5.795  18.699  0.00  0.00    +0.000 NA
ATOM     10  C   UNL     1       1.905   6.713  17.672  0.00  0.00    +0.000 C 
ATOM     11  C   UNL     1       2.231   8.203  17.900  0.00  0.00    +0.000 C 
ATOM     12  N   UNL     1       0.212  10.044  18.329  0.00  0.00    +0.000 NA
ATOM     13  C   UNL     1      -0.715  11.005  18.518  0.00  0.00    +0.000 A 
ENDROOT
BRANCH   9  14
ATOM     14  C   UNL     1       3.954   5.815  18.737  0.00  0.00    +0.000 C 
BRANCH  14  15
ATOM     15  C   UNL     1       4.537   4.927  17.679  0.00  0.00    +0.000 C 
ATOM     16  N   UNL     1       5.145   5.346  16.617  0.00  0.00    +0.000 NA
ATOM     17  C   UNL     1       5.432   4.197  15.917  0.00  0.00    +0.000 C 
ATOM     18  N   UNL     1       5.076   3.067  16.460  0.00  0.00    +0.000 NA
ATOM     19  C   UNL     1       4.457   3.442  17.744  0.00  0.00    +0.000 C 
BRANCH  17  20
ATOM     20  C   UNL     1       6.096   4.295  14.599  0.00  0.00    +0.000 A 
ATOM     21  C   UNL     1       7.208   5.124  14.417  0.00  0.00    +0.000 A 
ATOM     22  C   UNL     1       7.809   5.218  13.159  0.00  0.00    +0.000 A 
ATOM     23  C   UNL     1       7.299   4.487  12.084  0.00  0.00    +0.000 A 
ATOM     24  C   UNL     1       6.195   3.657  12.265  0.00  0.00    +0.000 A 
ATOM     25  C   UNL     1       5.593   3.558  13.521  0.00  0.00    +0.000 A 
ENDBRANCH  17  20
ENDBRANCH  14  15
ENDBRANCH   9  14
TORSDOF 3
ENDMDL
MODEL 6
REMARK VINA RESULT:      -6.9      4.602      9.824
REMARK  Name = 
REMARK  3 active torsions:
REMARK  status: ('A' for Active; 'I' for Inactive)
REMARK    1  A    between atoms: N_9  and  C_10
REMARK    2  A    between atoms: C_10  and  C_11
REMARK    3  A    between atoms: C_13  and  C_14
REMARK                            x       y       z     vdW  Elec       q    Type
REMARK                         _______ _______ _______ _____ _____    ______ ____
ROOT
ATOM      1  F   UNL     1       2.982   2.859  18.868  0.00  0.00    +0.000 F 
ATOM      2  C   UNL     1       2.676   4.126  19.162  0.00  0.00    +0.000 A 
ATOM      3  C   UNL     1       2.981   5.164  18.322  0.00  0.00    +0.000 A 
ATOM      4  N   UNL     1       2.685   6.448  18.599  0.00  0.00    +0.000 NA
ATOM      5  C   UNL     1       2.076   6.718  19.770  0.00  0.00    +0.000 A 
ATOM      6  N   UNL     1       1.821   8.027  20.092  0.00  0.00    +0.000 N 
ATOM      7  C   UNL     1       1.701   9.017  19.018  0.00  0.00    +0.000 C 
ATOM      8  C   UNL     1       0.305   9.694  19.023  0.00  0.00    +0.000 C 
ATOM      9  N   UNL     1      -0.178  10.169  20.346  0.00  0.00    +0.000 NA
ATOM     10  C   UNL     1      -0.122   8.995  21.263  0.00  0.00    +0.000 C 
ATOM     11  C   UNL     1       1.279   8.368  21.407  0.00  0.00    +0.000 C 
ATOM     12  N   UNL     1       1.743   5.750  20.645  0.00  0.00    +0.000 NA
ATOM     13  C   UNL     1       2.042   4.475  20.321  0.00  0.00    +0.000 A 
ENDROOT
BRANCH   9  14
ATOM     14  C   UNL     1       0.655  11.304  20.805  0.00  0.00    +0.000 C 
BRANCH  14  15
ATOM     15  C   UNL     1       0.127  12.609  20.290  0.00  0.00    +0.000 C 
ATOM     16  N   UNL     1       0.815  13.464  19.606  0.00  0.00    +0.000 NA
ATOM     17  C   UNL     1      -0.046  14.523  19.426  0.00  0.00    +0.000 C 
ATOM     18  N   UNL     1      -1.244  14.404  19.923  0.00  0.00    +0.000 NA
ATOM     19  C   UNL     1      -1.268  13.065  20.537  0.00  0.00    +0.000 C 
BRANCH  17  20
ATOM     20  C   UNL     1       0.427  15.729  18.713  0.00  0.00    +0.000 A 
ATOM     21  C   UNL     1       1.792  15.940  18.486  0.00  0.00    +0.000 A 
ATOM     22  C   UNL     1       2.219  17.096  17.828  0.00  0.00    +0.000 A 
ATOM     23  C   UNL     1       1.285  18.041  17.398  0.00  0.00    +0.000 A 
ATOM     24  C   UNL     1      -0.075  17.831  17.618  0.00  0.00    +0.000 A 
ATOM     25  C   UNL     1      -0.506  16.676  18.274  0.00  0.00    +0.000 A 
ENDBRANCH  17  20
ENDBRANCH  14  15
ENDBRANCH   9  14
TORSDOF 3
ENDMDL
MODEL 7
REMARK VINA RESULT:      -6.7      5.120      7.035
REMARK  Name = 
REMARK  3 active torsions:
REMARK  status: ('A' for Active; 'I' for Inactive)
REMARK    1  A    between atoms: N_9  and  C_10
REMARK    2  A    between atoms: C_10  and  C_11
REMARK    3  A    between atoms: C_13  and  C_14
REMARK                            x       y       z     vdW  Elec       q    Type
REMARK                         _______ _______ _______ _____ _____    ______ ____
ROOT
ATOM      1  F   UNL     1       0.287   1.790  18.932  0.00  0.00    +0.000 F 
ATOM      2  C   UNL     1       1.376   2.503  18.632  0.00  0.00    +0.000 A 
ATOM      3  C   UNL     1       2.260   2.113  17.661  0.00  0.00    +0.000 A 
ATOM      4  N   UNL     1       3.364   2.814  17.343  0.00  0.00    +0.000 NA
ATOM      5  C   UNL     1       3.617   3.942  18.035  0.00  0.00    +0.000 A 
ATOM      6  N   UNL     1       4.769   4.636  17.764  0.00  0.00    +0.000 N 
ATOM      7  C   UNL     1       5.401   4.487  16.450  0.00  0.00    +0.000 C 
ATOM      8  C   UNL     1       5.487   5.845  15.704  0.00  0.00    +0.000 C 
ATOM      9  N   UNL     1       6.004   6.988  16.502  0.00  0.00    +0.000 NA
ATOM     10  C   UNL     1       5.150   7.073  17.721  0.00  0.00    +0.000 C 
ATOM     11  C   UNL     1       5.140   5.792  18.580  0.00  0.00    +0.000 C 
ATOM     12  N   UNL     1       2.794   4.390  19.003  0.00  0.00    +0.000 NA
ATOM     13  C   UNL     1       1.689   3.667  19.276  0.00  0.00    +0.000 A 
ENDROOT
BRANCH   9  14
ATOM     14  C   UNL     1       7.436   6.777  16.810  0.00  0.00    +0.000 C 
BRANCH  14  15
ATOM     15  C   UNL     1       7.989   7.908  17.624  0.00  0.00    +0.000 C 
ATOM     16  N   UNL     1       8.230   9.095  17.168  0.00  0.00    +0.000 NA
ATOM     17  C   UNL     1       8.792   9.758  18.235  0.00  0.00    +0.000 C 
ATOM     18  N   UNL     1       8.910   9.094  19.350  0.00  0.00    +0.000 NA
ATOM     19  C   UNL     1       8.339   7.766  19.063  0.00  0.00    +0.000 C 
BRANCH  17  20
ATOM     20  C   UNL     1       9.247  11.154  18.064  0.00  0.00    +0.000 A 
ATOM     21  C   UNL     1      10.491  11.437  17.489  0.00  0.00    +0.000 A 
ATOM     22  C   UNL     1      10.912  12.763  17.353  0.00  0.00    +0.000 A 
ATOM     23  C   UNL     1      10.092  13.804  17.793  0.00  0.00    +0.000 A 
ATOM     24  C   UNL     1       8.850  13.525  18.361  0.00  0.00    +0.000 A 
ATOM     25  C   UNL     1       8.426  12.202  18.496  0.00  0.00    +0.000 A 
ENDBRANCH  17  20
ENDBRANCH  14  15
ENDBRANCH   9  14
TORSDOF 3
ENDMDL
MODEL 8
REMARK VINA RESULT:      -6.7      4.246     10.463
REMARK  Name = 
REMARK  3 active torsions:
REMARK  status: ('A' for Active; 'I' for Inactive)
REMARK    1  A    between atoms: N_9  and  C_10
REMARK    2  A    between atoms: C_10  and  C_11
REMARK    3  A    between atoms: C_13  and  C_14
REMARK                            x       y       z     vdW  Elec       q    Type
REMARK                         _______ _______ _______ _____ _____    ______ ____
ROOT
ATOM      1  F   UNL     1       2.981   2.610  19.943  0.00  0.00    +0.000 F 
ATOM      2  C   UNL     1       2.755   3.923  19.841  0.00  0.00    +0.000 A 
ATOM      3  C   UNL     1       3.230   4.667  18.794  0.00  0.00    +0.000 A 
ATOM      4  N   UNL     1       3.016   5.991  18.673  0.00  0.00    +0.000 NA
ATOM      5  C   UNL     1       2.317   6.610  19.644  0.00  0.00    +0.000 A 
ATOM      6  N   UNL     1       2.142   7.969  19.564  0.00  0.00    +0.000 N 
ATOM      7  C   UNL     1       2.215   8.624  18.256  0.00  0.00    +0.000 C 
ATOM      8  C   UNL     1       0.888   9.347  17.907  0.00  0.00    +0.000 C 
ATOM      9  N   UNL     1       0.316  10.199  18.983  0.00  0.00    +0.000 NA
ATOM     10  C   UNL     1       0.179   9.327  20.184  0.00  0.00    +0.000 C 
ATOM     11  C   UNL     1       1.501   8.692  20.662  0.00  0.00    +0.000 C 
ATOM     12  N   UNL     1       1.817   5.944  20.702  0.00  0.00    +0.000 NA
ATOM     13  C   UNL     1       2.038   4.617  20.776  0.00  0.00    +0.000 A 
ENDROOT
BRANCH   9  14
ATOM     14  C   UNL     1       1.190  11.371  19.212  0.00  0.00    +0.000 C 
BRANCH  14  15
ATOM     15  C   UNL     1       0.731  12.168  20.396  0.00  0.00    +0.000 C 
ATOM     16  N   UNL     1      -0.431  12.057  20.954  0.00  0.00    +0.000 NA
ATOM     17  C   UNL     1      -0.429  13.024  21.933  0.00  0.00    +0.000 C 
ATOM     18  N   UNL     1       0.656  13.734  22.062  0.00  0.00    +0.000 NA
ATOM     19  C   UNL     1       1.582  13.200  21.048  0.00  0.00    +0.000 C 
BRANCH  17  20
ATOM     20  C   UNL     1      -1.640  13.225  22.758  0.00  0.00    +0.000 A 
ATOM     21  C   UNL     1      -2.007  14.503  23.193  0.00  0.00    +0.000 A 
ATOM     22  C   UNL     1      -3.144  14.669  23.988  0.00  0.00    +0.000 A 
ATOM     23  C   UNL     1      -3.912  13.560  24.348  0.00  0.00    +0.000 A 
ATOM     24  C   UNL     1      -3.551  12.287  23.912  0.00  0.00    +0.000 A 
ATOM     25  C   UNL     1      -2.417  12.117  23.116  0.00  0.00    +0.000 A 
ENDBRANCH  17  20
ENDBRANCH  14  15
ENDBRANCH   9  14
TORSDOF 3
ENDMDL
MODEL 9
REMARK VINA RESULT:      -6.6      3.750      6.517
REMARK  Name = 
REMARK  3 active torsions:
REMARK  status: ('A' for Active; 'I' for Inactive)
REMARK    1  A    between atoms: N_9  and  C_10
REMARK    2  A    between atoms: C_10  and  C_11
REMARK    3  A    between atoms: C_13  and  C_14
REMARK                            x       y       z     vdW  Elec       q    Type
REMARK                         _______ _______ _______ _____ _____    ______ ____
ROOT
ATOM      1  F   UNL     1      -3.867  16.197  23.944  0.00  0.00    +0.000 F 
ATOM      2  C   UNL     1      -3.256  15.287  23.181  0.00  0.00    +0.000 A 
ATOM      3  C   UNL     1      -3.292  15.337  21.812  0.00  0.00    +0.000 A 
ATOM      4  N   UNL     1      -2.686  14.430  21.024  0.00  0.00    +0.000 NA
ATOM      5  C   UNL     1      -2.031  13.414  21.618  0.00  0.00    +0.000 A 
ATOM      6  N   UNL     1      -1.459  12.449  20.827  0.00  0.00    +0.000 N 
ATOM      7  C   UNL     1      -1.095  12.778  19.447  0.00  0.00    +0.000 C 
ATOM      8  C   UNL     1       0.425  12.594  19.200  0.00  0.00    +0.000 C 
ATOM      9  N   UNL     1       1.009  11.320  19.695  0.00  0.00    +0.000 NA
ATOM     10  C   UNL     1       0.662  11.230  21.143  0.00  0.00    +0.000 C 
ATOM     11  C   UNL     1      -0.852  11.266  21.436  0.00  0.00    +0.000 C 
ATOM     12  N   UNL     1      -1.950  13.298  22.957  0.00  0.00    +0.000 NA
ATOM     13  C   UNL     1      -2.556  14.239  23.710  0.00  0.00    +0.000 A 
ENDROOT
BRANCH   9  14
ATOM     14  C   UNL     1       0.484  10.186  18.902  0.00  0.00    +0.000 C 
BRANCH  14  15
ATOM     15  C   UNL     1       1.349   8.971  19.051  0.00  0.00    +0.000 C 
ATOM     16  N   UNL     1       2.036   8.433  18.095  0.00  0.00    +0.000 NA
ATOM     17  C   UNL     1       2.600   7.318  18.672  0.00  0.00    +0.000 C 
ATOM     18  N   UNL     1       2.346   7.109  19.932  0.00  0.00    +0.000 NA
ATOM     19  C   UNL     1       1.492   8.239  20.339  0.00  0.00    +0.000 C 
BRANCH  17  20
ATOM     20  C   UNL     1       3.429   6.414  17.845  0.00  0.00    +0.000 A 
ATOM     21  C   UNL     1       4.457   6.919  17.042  0.00  0.00    +0.000 A 
ATOM     22  C   UNL     1       5.217   6.050  16.254  0.00  0.00    +0.000 A 
ATOM     23  C   UNL     1       4.949   4.680  16.268  0.00  0.00    +0.000 A 
ATOM     24  C   UNL     1       3.929   4.174  17.071  0.00  0.00    +0.000 A 
ATOM     25  C   UNL     1       3.169   5.039  17.862  0.00  0.00    +0.000 A 
ENDBRANCH  17  20
ENDBRANCH  14  15
ENDBRANCH   9  14
TORSDOF 3
ENDMDL
