MODEL 1
REMARK VINA RESULT:      -6.6      0.000      0.000
REMARK  Name = 
REMARK  2 active torsions:
REMARK  status: ('A' for Active; 'I' for Inactive)
REMARK    1  A    between atoms: C_2  and  N_3
REMARK    2  A    between atoms: C_2  and  C_12
REMARK                            x       y       z     vdW  Elec       q    Type
REMARK                         _______ _______ _______ _____ _____    ______ ____
ROOT
ATOM      1  N   UNL     1       3.500   5.389  17.447  0.00  0.00    +0.000 NA
ATOM      2  C   UNL     1       4.783   5.243  17.571  0.00  0.00    +0.000 C 
ATOM      3  S   UNL     1       5.717   5.313  19.098  0.00  0.00    +0.000 S 
ATOM      4  S   UNL     1       7.591   5.018  18.260  0.00  0.00    +0.000 S 
ATOM      5  C   UNL     1       6.986   4.864  16.642  0.00  0.00    +0.000 C 
ATOM      6  N   UNL     1       7.705   4.666  15.579  0.00  0.00    +0.000 NA
ATOM      7  C   UNL     1       6.673   4.628  14.493  0.00  0.00    +0.000 C 
ATOM      8  C   UNL     1       5.293   4.895  15.137  0.00  0.00    +0.000 C 
ATOM      9  N   UNL     1       5.637   4.981  16.530  0.00  0.00    +0.000 N 
ENDROOT
BRANCH   1  11
ATOM     10  O   UNL     1       2.540   6.910  18.876  0.00  0.00    +0.000 OA
ATOM     11  C   UNL     1       2.741   5.749  18.533  0.00  0.00    +0.000 C 
BRANCH  11  12
ATOM     12  C   UNL     1       2.082   4.626  19.200  0.00  0.00    +0.000 A 
ATOM     13  C   UNL     1       1.328   3.644  18.571  0.00  0.00    +0.000 A 
ATOM     14  C   UNL     1       0.820   2.669  19.475  0.00  0.00    +0.000 A 
ATOM     15  C   UNL     1       1.199   2.929  20.771  0.00  0.00    +0.000 A 
ATOM     16  S   UNL     1       2.159   4.342  20.888  0.00  0.00    +0.000 S 
ENDBRANCH  11  12
ENDBRANCH   1  11
TORSDOF 2
ENDMDL
MODEL 2
REMARK VINA RESULT:      -6.6      2.586      2.924
REMARK  Name = 
REMARK  2 active torsions:
REMARK  status: ('A' for Active; 'I' for Inactive)
REMARK    1  A    between atoms: C_2  and  N_3
REMARK    2  A    between atoms: C_2  and  C_12
REMARK                            x       y       z     vdW  Elec       q    Type
REMARK                         _______ _______ _______ _____ _____    ______ ____
ROOT
ATOM      1  N   UNL     1       5.293   3.840  19.539  0.00  0.00    +0.000 NA
ATOM      2  C   UNL     1       5.473   4.307  18.342  0.00  0.00    +0.000 C 
ATOM      3  S   UNL     1       4.646   3.754  16.852  0.00  0.00    +0.000 S 
ATOM      4  S   UNL     1       5.613   5.034  15.538  0.00  0.00    +0.000 S 
ATOM      5  C   UNL     1       6.548   5.808  16.777  0.00  0.00    +0.000 C 
ATOM      6  N   UNL     1       7.417   6.756  16.592  0.00  0.00    +0.000 NA
ATOM      7  C   UNL     1       7.908   7.020  17.982  0.00  0.00    +0.000 C 
ATOM      8  C   UNL     1       7.206   6.024  18.934  0.00  0.00    +0.000 C 
ATOM      9  N   UNL     1       6.324   5.336  18.032  0.00  0.00    +0.000 N 
ENDROOT
BRANCH   1  11
ATOM     10  O   UNL     1       4.924   1.606  19.922  0.00  0.00    +0.000 OA
ATOM     11  C   UNL     1       4.495   2.741  19.736  0.00  0.00    +0.000 C 
BRANCH  11  12
ATOM     12  C   UNL     1       3.068   3.046  19.823  0.00  0.00    +0.000 A 
ATOM     13  C   UNL     1       2.047   2.305  19.243  0.00  0.00    +0.000 A 
ATOM     14  C   UNL     1       0.753   2.836  19.509  0.00  0.00    +0.000 A 
ATOM     15  C   UNL     1       0.818   3.968  20.286  0.00  0.00    +0.000 A 
ATOM     16  S   UNL     1       2.430   4.382  20.686  0.00  0.00    +0.000 S 
ENDBRANCH  11  12
ENDBRANCH   1  11
TORSDOF 2
ENDMDL
MODEL 3
REMARK VINA RESULT:      -6.6      2.696      3.077
REMARK  Name = 
REMARK  2 active torsions:
REMARK  status: ('A' for Active; 'I' for Inactive)
REMARK    1  A    between atoms: C_2  and  N_3
REMARK    2  A    between atoms: C_2  and  C_12
REMARK                            x       y       z     vdW  Elec       q    Type
REMARK                         _______ _______ _______ _____ _____    ______ ____
ROOT
ATOM      1  N   UNL     1       5.299   3.855  19.554  0.00  0.00    +0.000 NA
ATOM      2  C   UNL     1       5.480   4.324  18.358  0.00  0.00    +0.000 C 
ATOM      3  S   UNL     1       4.652   3.776  16.867  0.00  0.00    +0.000 S 
ATOM      4  S   UNL     1       5.621   5.058  15.556  0.00  0.00    +0.000 S 
ATOM      5  C   UNL     1       6.557   5.828  16.797  0.00  0.00    +0.000 C 
ATOM      6  N   UNL     1       7.427   6.774  16.614  0.00  0.00    +0.000 NA
ATOM      7  C   UNL     1       7.920   7.034  18.005  0.00  0.00    +0.000 C 
ATOM      8  C   UNL     1       7.216   6.037  18.954  0.00  0.00    +0.000 C 
ATOM      9  N   UNL     1       6.332   5.353  18.050  0.00  0.00    +0.000 N 
ENDROOT
BRANCH   1  11
ATOM     10  O   UNL     1       4.926   1.615  19.901  0.00  0.00    +0.000 OA
ATOM     11  C   UNL     1       4.500   2.756  19.749  0.00  0.00    +0.000 C 
BRANCH  11  12
ATOM     12  C   UNL     1       3.077   3.068  19.876  0.00  0.00    +0.000 A 
ATOM     13  C   UNL     1       2.543   4.121  20.606  0.00  0.00    +0.000 A 
ATOM     14  C   UNL     1       1.123   4.184  20.535  0.00  0.00    +0.000 A 
ATOM     15  C   UNL     1       0.607   3.179  19.751  0.00  0.00    +0.000 A 
ATOM     16  S   UNL     1       1.833   2.171  19.111  0.00  0.00    +0.000 S 
ENDBRANCH  11  12
ENDBRANCH   1  11
TORSDOF 2
ENDMDL
MODEL 4
REMARK VINA RESULT:      -6.6      1.799      1.914
REMARK  Name = 
REMARK  2 active torsions:
REMARK  status: ('A' for Active; 'I' for Inactive)
REMARK    1  A    between atoms: C_2  and  N_3
REMARK    2  A    between atoms: C_2  and  C_12
REMARK                            x       y       z     vdW  Elec       q    Type
REMARK                         _______ _______ _______ _____ _____    ______ ____
ROOT
ATOM      1  N   UNL     1       3.271   3.704  17.183  0.00  0.00    +0.000 NA
ATOM      2  C   UNL     1       4.074   4.722  17.125  0.00  0.00    +0.000 C 
ATOM      3  S   UNL     1       3.858   6.294  17.955  0.00  0.00    +0.000 S 
ATOM      4  S   UNL     1       5.571   7.203  17.222  0.00  0.00    +0.000 S 
ATOM      5  C   UNL     1       6.083   5.810  16.325  0.00  0.00    +0.000 C 
ATOM      6  N   UNL     1       7.150   5.731  15.589  0.00  0.00    +0.000 NA
ATOM      7  C   UNL     1       7.076   4.331  15.061  0.00  0.00    +0.000 C 
ATOM      8  C   UNL     1       5.769   3.692  15.585  0.00  0.00    +0.000 C 
ATOM      9  N   UNL     1       5.252   4.739  16.424  0.00  0.00    +0.000 N 
ENDROOT
BRANCH   1  11
ATOM     10  O   UNL     1       1.020   4.155  17.280  0.00  0.00    +0.000 OA
ATOM     11  C   UNL     1       2.065   3.817  17.829  0.00  0.00    +0.000 C 
BRANCH  11  12
ATOM     12  C   UNL     1       2.093   3.386  19.227  0.00  0.00    +0.000 A 
ATOM     13  C   UNL     1       1.019   3.424  20.105  0.00  0.00    +0.000 A 
ATOM     14  C   UNL     1       1.340   2.925  21.399  0.00  0.00    +0.000 A 
ATOM     15  C   UNL     1       2.651   2.517  21.477  0.00  0.00    +0.000 A 
ATOM     16  S   UNL     1       3.481   2.739  19.996  0.00  0.00    +0.000 S 
ENDBRANCH  11  12
ENDBRANCH   1  11
TORSDOF 2
ENDMDL
MODEL 5
REMARK VINA RESULT:      -6.6      0.812      1.037
REMARK  Name = 
REMARK  2 active torsions:
REMARK  status: ('A' for Active; 'I' for Inactive)
REMARK    1  A    between atoms: C_2  and  N_3
REMARK    2  A    between atoms: C_2  and  C_12
REMARK                            x       y       z     vdW  Elec       q    Type
REMARK                         _______ _______ _______ _____ _____    ______ ____
ROOT
ATOM      1  N   UNL     1       3.541   5.559  17.474  0.00  0.00    +0.000 NA
ATOM      2  C   UNL     1       4.818   5.350  17.578  0.00  0.00    +0.000 C 
ATOM      3  S   UNL     1       5.768   5.318  19.096  0.00  0.00    +0.000 S 
ATOM      4  S   UNL     1       7.618   4.970  18.228  0.00  0.00    +0.000 S 
ATOM      5  C   UNL     1       6.992   4.906  16.612  0.00  0.00    +0.000 C 
ATOM      6  N   UNL     1       7.691   4.717  15.534  0.00  0.00    +0.000 NA
ATOM      7  C   UNL     1       6.649   4.769  14.459  0.00  0.00    +0.000 C 
ATOM      8  C   UNL     1       5.289   5.073  15.128  0.00  0.00    +0.000 C 
ATOM      9  N   UNL     1       5.649   5.090  16.519  0.00  0.00    +0.000 N 
ENDROOT
BRANCH   1  11
ATOM     10  O   UNL     1       2.631   7.069  18.946  0.00  0.00    +0.000 OA
ATOM     11  C   UNL     1       2.810   5.911  18.581  0.00  0.00    +0.000 C 
BRANCH  11  12
ATOM     12  C   UNL     1       2.150   4.787  19.243  0.00  0.00    +0.000 A 
ATOM     13  C   UNL     1       1.962   4.654  20.612  0.00  0.00    +0.000 A 
ATOM     14  C   UNL     1       1.274   3.459  20.966  0.00  0.00    +0.000 A 
ATOM     15  C   UNL     1       0.952   2.710  19.859  0.00  0.00    +0.000 A 
ATOM     16  S   UNL     1       1.480   3.449  18.408  0.00  0.00    +0.000 S 
ENDBRANCH  11  12
ENDBRANCH   1  11
TORSDOF 2
ENDMDL
MODEL 6
REMARK VINA RESULT:      -6.3      1.752      1.915
REMARK  Name = 
REMARK  2 active torsions:
REMARK  status: ('A' for Active; 'I' for Inactive)
REMARK    1  A    between atoms: C_2  and  N_3
REMARK    2  A    between atoms: C_2  and  C_12
REMARK                            x       y       z     vdW  Elec       q    Type
REMARK                         _______ _______ _______ _____ _____    ______ ____
ROOT
ATOM      1  N   UNL     1       3.326   3.719  17.142  0.00  0.00    +0.000 NA
ATOM      2  C   UNL     1       4.144   4.725  17.100  0.00  0.00    +0.000 C 
ATOM      3  S   UNL     1       3.963   6.277  17.976  0.00  0.00    +0.000 S 
ATOM      4  S   UNL     1       5.679   7.181  17.244  0.00  0.00    +0.000 S 
ATOM      5  C   UNL     1       6.157   5.806  16.301  0.00  0.00    +0.000 C 
ATOM      6  N   UNL     1       7.213   5.732  15.548  0.00  0.00    +0.000 NA
ATOM      7  C   UNL     1       7.110   4.349  14.982  0.00  0.00    +0.000 C 
ATOM      8  C   UNL     1       5.801   3.715  15.508  0.00  0.00    +0.000 C 
ATOM      9  N   UNL     1       5.312   4.745  16.382  0.00  0.00    +0.000 N 
ENDROOT
BRANCH   1  11
ATOM     10  O   UNL     1       1.066   4.110  17.266  0.00  0.00    +0.000 OA
ATOM     11  C   UNL     1       2.131   3.831  17.808  0.00  0.00    +0.000 C 
BRANCH  11  12
ATOM     12  C   UNL     1       2.202   3.474  19.225  0.00  0.00    +0.000 A 
ATOM     13  C   UNL     1       3.133   2.619  19.796  0.00  0.00    +0.000 A 
ATOM     14  C   UNL     1       2.965   2.471  21.202  0.00  0.00    +0.000 A 
ATOM     15  C   UNL     1       1.910   3.218  21.669  0.00  0.00    +0.000 A 
ATOM     16  S   UNL     1       1.133   4.087  20.415  0.00  0.00    +0.000 S 
ENDBRANCH  11  12
ENDBRANCH   1  11
TORSDOF 2
ENDMDL
MODEL 7
REMARK VINA RESULT:      -6.2      2.081      2.273
REMARK  Name = 
REMARK  2 active torsions:
REMARK  status: ('A' for Active; 'I' for Inactive)
REMARK    1  A    between atoms: C_2  and  N_3
REMARK    2  A    between atoms: C_2  and  C_12
REMARK                            x       y       z     vdW  Elec       q    Type
REMARK                         _______ _______ _______ _____ _____    ______ ____
ROOT
ATOM      1  N   UNL     1       4.887   3.067  18.327  0.00  0.00    +0.000 NA
ATOM      2  C   UNL     1       5.669   4.071  18.074  0.00  0.00    +0.000 C 
ATOM      3  S   UNL     1       6.376   5.195  19.276  0.00  0.00    +0.000 S 
ATOM      4  S   UNL     1       7.383   6.406  17.927  0.00  0.00    +0.000 S 
ATOM      5  C   UNL     1       6.892   5.489  16.539  0.00  0.00    +0.000 C 
ATOM      6  N   UNL     1       7.202   5.754  15.306  0.00  0.00    +0.000 NA
ATOM      7  C   UNL     1       6.508   4.659  14.556  0.00  0.00    +0.000 C 
ATOM      8  C   UNL     1       5.729   3.799  15.579  0.00  0.00    +0.000 C 
ATOM      9  N   UNL     1       6.104   4.418  16.820  0.00  0.00    +0.000 N 
ENDROOT
BRANCH   1  11
ATOM     10  O   UNL     1       5.084   2.337  20.496  0.00  0.00    +0.000 OA
ATOM     11  C   UNL     1       4.425   2.860  19.602  0.00  0.00    +0.000 C 
BRANCH  11  12
ATOM     12  C   UNL     1       3.098   3.422  19.855  0.00  0.00    +0.000 A 
ATOM     13  C   UNL     1       2.842   4.688  20.364  0.00  0.00    +0.000 A 
ATOM     14  C   UNL     1       1.452   4.966  20.490  0.00  0.00    +0.000 A 
ATOM     15  C   UNL     1       0.681   3.907  20.073  0.00  0.00    +0.000 A 
ATOM     16  S   UNL     1       1.634   2.590  19.536  0.00  0.00    +0.000 S 
ENDBRANCH  11  12
ENDBRANCH   1  11
TORSDOF 2
ENDMDL
MODEL 8
REMARK VINA RESULT:      -6.2      1.997      2.094
REMARK  Name = 
REMARK  2 active torsions:
REMARK  status: ('A' for Active; 'I' for Inactive)
REMARK    1  A    between atoms: C_2  and  N_3
REMARK    2  A    between atoms: C_2  and  C_12
REMARK                            x       y       z     vdW  Elec       q    Type
REMARK                         _______ _______ _______ _____ _____    ______ ____
ROOT
ATOM      1  N   UNL     1       4.889   3.027  18.307  0.00  0.00    +0.000 NA
ATOM      2  C   UNL     1       5.663   4.043  18.073  0.00  0.00    +0.000 C 
ATOM      3  S   UNL     1       6.342   5.163  19.294  0.00  0.00    +0.000 S 
ATOM      4  S   UNL     1       7.353   6.397  17.969  0.00  0.00    +0.000 S 
ATOM      5  C   UNL     1       6.889   5.487  16.567  0.00  0.00    +0.000 C 
ATOM      6  N   UNL     1       7.212   5.767  15.340  0.00  0.00    +0.000 NA
ATOM      7  C   UNL     1       6.539   4.671  14.572  0.00  0.00    +0.000 C 
ATOM      8  C   UNL     1       5.757   3.793  15.577  0.00  0.00    +0.000 C 
ATOM      9  N   UNL     1       6.110   4.405  16.829  0.00  0.00    +0.000 N 
ENDROOT
BRANCH   1  11
ATOM     10  O   UNL     1       5.088   2.343  20.491  0.00  0.00    +0.000 OA
ATOM     11  C   UNL     1       4.413   2.804  19.575  0.00  0.00    +0.000 C 
BRANCH  11  12
ATOM     12  C   UNL     1       3.043   3.270  19.789  0.00  0.00    +0.000 A 
ATOM     13  C   UNL     1       1.899   2.494  19.667  0.00  0.00    +0.000 A 
ATOM     14  C   UNL     1       0.705   3.216  19.950  0.00  0.00    +0.000 A 
ATOM     15  C   UNL     1       0.967   4.524  20.283  0.00  0.00    +0.000 A 
ATOM     16  S   UNL     1       2.643   4.871  20.251  0.00  0.00    +0.000 S 
ENDBRANCH  11  12
ENDBRANCH   1  11
TORSDOF 2
ENDMDL
MODEL 9
REMARK VINA RESULT:      -6.0      1.957      2.301
REMARK  Name = 
REMARK  2 active torsions:
REMARK  status: ('A' for Active; 'I' for Inactive)
REMARK    1  A    between atoms: C_2  and  N_3
REMARK    2  A    between atoms: C_2  and  C_12
REMARK                            x       y       z     vdW  Elec       q    Type
REMARK                         _______ _______ _______ _____ _____    ______ ____
ROOT
ATOM      1  N   UNL     1       3.154   5.421  17.970  0.00  0.00    +0.000 NA
ATOM      2  C   UNL     1       4.196   5.087  17.273  0.00  0.00    +0.000 C 
ATOM      3  S   UNL     1       4.402   3.577  16.330  0.00  0.00    +0.000 S 
ATOM      4  S   UNL     1       6.324   3.962  15.654  0.00  0.00    +0.000 S 
ATOM      5  C   UNL     1       6.425   5.511  16.429  0.00  0.00    +0.000 C 
ATOM      6  N   UNL     1       7.449   6.309  16.399  0.00  0.00    +0.000 NA
ATOM      7  C   UNL     1       6.983   7.464  17.231  0.00  0.00    +0.000 C 
ATOM      8  C   UNL     1       5.568   7.133  17.758  0.00  0.00    +0.000 C 
ATOM      9  N   UNL     1       5.314   5.867  17.126  0.00  0.00    +0.000 N 
ENDROOT
BRANCH   1  11
ATOM     10  O   UNL     1       1.317   4.238  17.263  0.00  0.00    +0.000 OA
ATOM     11  C   UNL     1       2.125   4.530  18.140  0.00  0.00    +0.000 C 
BRANCH  11  12
ATOM     12  C   UNL     1       2.128   3.853  19.437  0.00  0.00    +0.000 A 
ATOM     13  C   UNL     1       1.081   3.850  20.348  0.00  0.00    +0.000 A 
ATOM     14  C   UNL     1       1.366   3.095  21.520  0.00  0.00    +0.000 A 
ATOM     15  C   UNL     1       2.623   2.538  21.475  0.00  0.00    +0.000 A 
ATOM     16  S   UNL     1       3.447   2.931  20.026  0.00  0.00    +0.000 S 
ENDBRANCH  11  12
ENDBRANCH   1  11
TORSDOF 2
ENDMDL
