MODEL 1
REMARK VINA RESULT:      -7.6      0.000      0.000
REMARK  Name = 
REMARK  10 active torsions:
REMARK  status: ('A' for Active; 'I' for Inactive)
REMARK    1  A    between atoms: C_1  and  C_2
REMARK    2  A    between atoms: C_2  and  C_3
REMARK    3  A    between atoms: C_3  and  N_4
REMARK    4  A    between atoms: C_10  and  C_11
REMARK    5  A    between atoms: C_11  and  C_12
REMARK    6  A    between atoms: C_13  and  C_14
REMARK    7  A    between atoms: N_20  and  C_21
REMARK    8  A    between atoms: N_22  and  C_23
REMARK    9  A    between atoms: C_23  and  C_24
REMARK   10  A    between atoms: C_24  and  C_25
REMARK                            x       y       z     vdW  Elec       q    Type
REMARK                         _______ _______ _______ _____ _____    ______ ____
ROOT
ATOM      1  N   UNL     1       3.374   3.919  19.060  0.00  0.00    +0.000 N 
ATOM      2  C   UNL     1       4.773   3.915  18.947  0.00  0.00    +0.000 A 
ATOM      3  O   UNL     1       5.487   2.983  19.311  0.00  0.00    +0.000 OA
ATOM      4  C   UNL     1       5.291   5.104  18.362  0.00  0.00    +0.000 A 
ATOM      5  C   UNL     1       4.493   6.122  17.936  0.00  0.00    +0.000 A 
ATOM      6  N   UNL     1       5.213   7.147  17.416  0.00  0.00    +0.000 NA
ATOM      7  C   UNL     1       6.481   6.774  17.515  0.00  0.00    +0.000 A 
ATOM      8  N   UNL     1       6.572   5.521  18.095  0.00  0.00    +0.000 N 
ATOM      9  C   UNL     1       7.768   4.766  18.386  0.00  0.00    +0.000 C 
ATOM     10  N   UNL     1       3.126   6.078  18.049  0.00  0.00    +0.000 N 
ATOM     11  C   UNL     1       2.523   4.953  18.618  0.00  0.00    +0.000 A 
ATOM     12  O   UNL     1       1.297   4.865  18.729  0.00  0.00    +0.000 OA
ENDROOT
BRANCH   1  13
ATOM     13  C   UNL     1       2.731   2.742  19.641  0.00  0.00    +0.000 C 
BRANCH  13  15
ATOM     14  C   UNL     1       1.257   2.744  21.694  0.00  0.00    +0.000 C 
ATOM     15  C   UNL     1       2.684   2.809  21.170  0.00  0.00    +0.000 C 
ENDBRANCH  13  15
ENDBRANCH   1  13
BRANCH   7  16
ATOM     16  C   UNL     1       7.636   7.599  17.024  0.00  0.00    +0.000 C 
BRANCH  16  17
ATOM     17  C   UNL     1       7.994   8.722  17.958  0.00  0.00    +0.000 C 
ATOM     18  C   UNL     1       8.766   9.782  17.667  0.00  0.00    +0.000 C 
BRANCH  18  19
ATOM     19  C   UNL     1       9.045  10.859  18.632  0.00  0.00    +0.000 A 
ATOM     20  C   UNL     1       9.367  10.538  19.957  0.00  0.00    +0.000 A 
ATOM     21  C   UNL     1       9.657  11.546  20.885  0.00  0.00    +0.000 A 
ATOM     22  C   UNL     1       9.633  12.884  20.496  0.00  0.00    +0.000 A 
ATOM     23  C   UNL     1       9.331  13.217  19.179  0.00  0.00    +0.000 A 
ATOM     24  C   UNL     1       9.049  12.210  18.253  0.00  0.00    +0.000 A 
ENDBRANCH  18  19
ENDBRANCH  16  17
ENDBRANCH   7  16
BRANCH  10  25
ATOM     25  C   UNL     1       2.306   7.192  17.581  0.00  0.00    +0.000 C 
BRANCH  25  26
ATOM     26  C   UNL     1       2.088   8.281  18.636  0.00  0.00    +0.000 C 
ATOM     27  C   UNL     1       1.774   9.648  18.048  0.00  0.00    +0.000 C 
ENDBRANCH  25  26
ENDBRANCH  10  25
TORSDOF 7
ENDMDL
MODEL 2
REMARK VINA RESULT:      -7.4      1.038      1.468
REMARK  Name = 
REMARK  10 active torsions:
REMARK  status: ('A' for Active; 'I' for Inactive)
REMARK    1  A    between atoms: C_1  and  C_2
REMARK    2  A    between atoms: C_2  and  C_3
REMARK    3  A    between atoms: C_3  and  N_4
REMARK    4  A    between atoms: C_10  and  C_11
REMARK    5  A    between atoms: C_11  and  C_12
REMARK    6  A    between atoms: C_13  and  C_14
REMARK    7  A    between atoms: N_20  and  C_21
REMARK    8  A    between atoms: N_22  and  C_23
REMARK    9  A    between atoms: C_23  and  C_24
REMARK   10  A    between atoms: C_24  and  C_25
REMARK                            x       y       z     vdW  Elec       q    Type
REMARK                         _______ _______ _______ _____ _____    ______ ____
ROOT
ATOM      1  N   UNL     1       3.286   4.087  20.053  0.00  0.00    +0.000 N 
ATOM      2  C   UNL     1       4.537   3.920  19.439  0.00  0.00    +0.000 A 
ATOM      3  O   UNL     1       5.165   2.864  19.440  0.00  0.00    +0.000 OA
ATOM      4  C   UNL     1       5.011   5.102  18.804  0.00  0.00    +0.000 A 
ATOM      5  C   UNL     1       4.298   6.262  18.782  0.00  0.00    +0.000 A 
ATOM      6  N   UNL     1       4.954   7.248  18.120  0.00  0.00    +0.000 NA
ATOM      7  C   UNL     1       6.095   6.706  17.720  0.00  0.00    +0.000 A 
ATOM      8  N   UNL     1       6.171   5.385  18.123  0.00  0.00    +0.000 N 
ATOM      9  C   UNL     1       7.248   4.451  17.896  0.00  0.00    +0.000 C 
ATOM     10  N   UNL     1       3.068   6.377  19.381  0.00  0.00    +0.000 N 
ATOM     11  C   UNL     1       2.521   5.272  20.038  0.00  0.00    +0.000 A 
ATOM     12  O   UNL     1       1.414   5.327  20.579  0.00  0.00    +0.000 OA
ENDROOT
BRANCH   1  13
ATOM     13  C   UNL     1       2.698   2.933  20.730  0.00  0.00    +0.000 C 
BRANCH  13  15
ATOM     14  C   UNL     1       1.607   2.074  18.618  0.00  0.00    +0.000 C 
ATOM     15  C   UNL     1       1.392   2.483  20.068  0.00  0.00    +0.000 C 
ENDBRANCH  13  15
ENDBRANCH   1  13
BRANCH   7  16
ATOM     16  C   UNL     1       7.128   7.436  16.911  0.00  0.00    +0.000 C 
BRANCH  16  17
ATOM     17  C   UNL     1       8.050   8.274  17.754  0.00  0.00    +0.000 C 
ATOM     18  C   UNL     1       8.230   9.601  17.656  0.00  0.00    +0.000 C 
BRANCH  18  19
ATOM     19  C   UNL     1       9.133  10.355  18.543  0.00  0.00    +0.000 A 
ATOM     20  C   UNL     1      10.167  11.123  17.992  0.00  0.00    +0.000 A 
ATOM     21  C   UNL     1      11.022  11.864  18.817  0.00  0.00    +0.000 A 
ATOM     22  C   UNL     1      10.850  11.848  20.200  0.00  0.00    +0.000 A 
ATOM     23  C   UNL     1       9.817  11.102  20.760  0.00  0.00    +0.000 A 
ATOM     24  C   UNL     1       8.960  10.369  19.935  0.00  0.00    +0.000 A 
ENDBRANCH  18  19
ENDBRANCH  16  17
ENDBRANCH   7  16
BRANCH  10  25
ATOM     25  C   UNL     1       2.337   7.641  19.336  0.00  0.00    +0.000 C 
BRANCH  25  26
ATOM     26  C   UNL     1       1.937   8.071  17.922  0.00  0.00    +0.000 C 
ATOM     27  C   UNL     1       1.833   9.578  17.748  0.00  0.00    +0.000 C 
ENDBRANCH  25  26
ENDBRANCH  10  25
TORSDOF 7
ENDMDL
MODEL 3
REMARK VINA RESULT:      -7.4      0.949      1.117
REMARK  Name = 
REMARK  10 active torsions:
REMARK  status: ('A' for Active; 'I' for Inactive)
REMARK    1  A    between atoms: C_1  and  C_2
REMARK    2  A    between atoms: C_2  and  C_3
REMARK    3  A    between atoms: C_3  and  N_4
REMARK    4  A    between atoms: C_10  and  C_11
REMARK    5  A    between atoms: C_11  and  C_12
REMARK    6  A    between atoms: C_13  and  C_14
REMARK    7  A    between atoms: N_20  and  C_21
REMARK    8  A    between atoms: N_22  and  C_23
REMARK    9  A    between atoms: C_23  and  C_24
REMARK   10  A    between atoms: C_24  and  C_25
REMARK                            x       y       z     vdW  Elec       q    Type
REMARK                         _______ _______ _______ _____ _____    ______ ____
ROOT
ATOM      1  N   UNL     1       3.324   4.052  19.637  0.00  0.00    +0.000 N 
ATOM      2  C   UNL     1       4.601   3.904  19.074  0.00  0.00    +0.000 A 
ATOM      3  O   UNL     1       5.206   2.837  19.019  0.00  0.00    +0.000 OA
ATOM      4  C   UNL     1       5.132   5.122  18.564  0.00  0.00    +0.000 A 
ATOM      5  C   UNL     1       4.445   6.297  18.602  0.00  0.00    +0.000 A 
ATOM      6  N   UNL     1       5.154   7.317  18.058  0.00  0.00    +0.000 NA
ATOM      7  C   UNL     1       6.304   6.782  17.672  0.00  0.00    +0.000 A 
ATOM      8  N   UNL     1       6.331   5.430  17.968  0.00  0.00    +0.000 N 
ATOM      9  C   UNL     1       7.398   4.492  17.718  0.00  0.00    +0.000 C 
ATOM     10  N   UNL     1       3.188   6.394  19.146  0.00  0.00    +0.000 N 
ATOM     11  C   UNL     1       2.585   5.252  19.681  0.00  0.00    +0.000 A 
ATOM     12  O   UNL     1       1.453   5.291  20.169  0.00  0.00    +0.000 OA
ENDROOT
BRANCH   1  13
ATOM     13  C   UNL     1       2.677   2.862  20.186  0.00  0.00    +0.000 C 
BRANCH  13  15
ATOM     14  C   UNL     1       0.589   2.202  18.923  0.00  0.00    +0.000 C 
ATOM     15  C   UNL     1       2.084   1.973  19.088  0.00  0.00    +0.000 C 
ENDBRANCH  13  15
ENDBRANCH   1  13
BRANCH   7  16
ATOM     16  C   UNL     1       7.392   7.550  16.979  0.00  0.00    +0.000 C 
BRANCH  16  17
ATOM     17  C   UNL     1       8.153   8.456  17.906  0.00  0.00    +0.000 C 
ATOM     18  C   UNL     1       8.602   9.689  17.620  0.00  0.00    +0.000 C 
BRANCH  18  19
ATOM     19  C   UNL     1       9.316  10.529  18.598  0.00  0.00    +0.000 A 
ATOM     20  C   UNL     1       9.057  10.376  19.966  0.00  0.00    +0.000 A 
ATOM     21  C   UNL     1       9.740  11.149  20.913  0.00  0.00    +0.000 A 
ATOM     22  C   UNL     1      10.692  12.079  20.502  0.00  0.00    +0.000 A 
ATOM     23  C   UNL     1      10.972  12.231  19.147  0.00  0.00    +0.000 A 
ATOM     24  C   UNL     1      10.294  11.454  18.204  0.00  0.00    +0.000 A 
ENDBRANCH  18  19
ENDBRANCH  16  17
ENDBRANCH   7  16
BRANCH  10  25
ATOM     25  C   UNL     1       2.486   7.675  19.170  0.00  0.00    +0.000 C 
BRANCH  25  26
ATOM     26  C   UNL     1       1.967   8.117  17.798  0.00  0.00    +0.000 C 
ATOM     27  C   UNL     1       1.083   9.354  17.850  0.00  0.00    +0.000 C 
ENDBRANCH  25  26
ENDBRANCH  10  25
TORSDOF 7
ENDMDL
MODEL 4
REMARK VINA RESULT:      -7.3      3.804      7.351
REMARK  Name = 
REMARK  10 active torsions:
REMARK  status: ('A' for Active; 'I' for Inactive)
REMARK    1  A    between atoms: C_1  and  C_2
REMARK    2  A    between atoms: C_2  and  C_3
REMARK    3  A    between atoms: C_3  and  N_4
REMARK    4  A    between atoms: C_10  and  C_11
REMARK    5  A    between atoms: C_11  and  C_12
REMARK    6  A    between atoms: C_13  and  C_14
REMARK    7  A    between atoms: N_20  and  C_21
REMARK    8  A    between atoms: N_22  and  C_23
REMARK    9  A    between atoms: C_23  and  C_24
REMARK   10  A    between atoms: C_24  and  C_25
REMARK                            x       y       z     vdW  Elec       q    Type
REMARK                         _______ _______ _______ _____ _____    ______ ____
ROOT
ATOM      1  N   UNL     1       3.253   4.177  19.597  0.00  0.00    +0.000 N 
ATOM      2  C   UNL     1       2.515   5.198  20.215  0.00  0.00    +0.000 A 
ATOM      3  O   UNL     1       1.925   5.066  21.285  0.00  0.00    +0.000 OA
ATOM      4  C   UNL     1       2.517   6.415  19.478  0.00  0.00    +0.000 A 
ATOM      5  C   UNL     1       3.195   6.565  18.307  0.00  0.00    +0.000 A 
ATOM      6  N   UNL     1       3.047   7.810  17.791  0.00  0.00    +0.000 NA
ATOM      7  C   UNL     1       2.266   8.456  18.644  0.00  0.00    +0.000 A 
ATOM      8  N   UNL     1       1.915   7.631  19.698  0.00  0.00    +0.000 N 
ATOM      9  C   UNL     1       1.075   7.948  20.828  0.00  0.00    +0.000 C 
ATOM     10  N   UNL     1       3.921   5.544  17.745  0.00  0.00    +0.000 N 
ATOM     11  C   UNL     1       3.973   4.306  18.391  0.00  0.00    +0.000 A 
ATOM     12  O   UNL     1       4.623   3.365  17.929  0.00  0.00    +0.000 OA
ENDROOT
BRANCH   1  13
ATOM     13  C   UNL     1       3.327   2.882  20.271  0.00  0.00    +0.000 C 
BRANCH  13  15
ATOM     14  C   UNL     1       1.358   2.111  18.886  0.00  0.00    +0.000 C 
ATOM     15  C   UNL     1       1.976   2.160  20.275  0.00  0.00    +0.000 C 
ENDBRANCH  13  15
ENDBRANCH   1  13
BRANCH   7  16
ATOM     16  C   UNL     1       1.864   9.894  18.486  0.00  0.00    +0.000 C 
BRANCH  16  17
ATOM     17  C   UNL     1       0.489  10.059  17.901  0.00  0.00    +0.000 C 
ATOM     18  C   UNL     1      -0.594  10.535  18.536  0.00  0.00    +0.000 C 
BRANCH  18  19
ATOM     19  C   UNL     1      -1.903  10.694  17.881  0.00  0.00    +0.000 A 
ATOM     20  C   UNL     1      -2.914  11.428  18.515  0.00  0.00    +0.000 A 
ATOM     21  C   UNL     1      -4.158  11.608  17.899  0.00  0.00    +0.000 A 
ATOM     22  C   UNL     1      -4.403  11.061  16.640  0.00  0.00    +0.000 A 
ATOM     23  C   UNL     1      -3.403  10.344  15.992  0.00  0.00    +0.000 A 
ATOM     24  C   UNL     1      -2.159  10.170  16.604  0.00  0.00    +0.000 A 
ENDBRANCH  18  19
ENDBRANCH  16  17
ENDBRANCH   7  16
BRANCH  10  25
ATOM     25  C   UNL     1       4.632   5.745  16.485  0.00  0.00    +0.000 C 
BRANCH  25  26
ATOM     26  C   UNL     1       6.032   6.343  16.657  0.00  0.00    +0.000 C 
ATOM     27  C   UNL     1       7.149   5.312  16.587  0.00  0.00    +0.000 C 
ENDBRANCH  25  26
ENDBRANCH  10  25
TORSDOF 7
ENDMDL
MODEL 5
REMARK VINA RESULT:      -7.2      3.985      7.683
REMARK  Name = 
REMARK  10 active torsions:
REMARK  status: ('A' for Active; 'I' for Inactive)
REMARK    1  A    between atoms: C_1  and  C_2
REMARK    2  A    between atoms: C_2  and  C_3
REMARK    3  A    between atoms: C_3  and  N_4
REMARK    4  A    between atoms: C_10  and  C_11
REMARK    5  A    between atoms: C_11  and  C_12
REMARK    6  A    between atoms: C_13  and  C_14
REMARK    7  A    between atoms: N_20  and  C_21
REMARK    8  A    between atoms: N_22  and  C_23
REMARK    9  A    between atoms: C_23  and  C_24
REMARK   10  A    between atoms: C_24  and  C_25
REMARK                            x       y       z     vdW  Elec       q    Type
REMARK                         _______ _______ _______ _____ _____    ______ ____
ROOT
ATOM      1  N   UNL     1       4.288   4.996  17.652  0.00  0.00    +0.000 N 
ATOM      2  C   UNL     1       3.905   6.332  17.462  0.00  0.00    +0.000 A 
ATOM      3  O   UNL     1       4.250   7.014  16.500  0.00  0.00    +0.000 OA
ATOM      4  C   UNL     1       3.066   6.828  18.500  0.00  0.00    +0.000 A 
ATOM      5  C   UNL     1       2.664   6.060  19.550  0.00  0.00    +0.000 A 
ATOM      6  N   UNL     1       1.872   6.750  20.408  0.00  0.00    +0.000 NA
ATOM      7  C   UNL     1       1.773   7.968  19.896  0.00  0.00    +0.000 A 
ATOM      8  N   UNL     1       2.497   8.059  18.720  0.00  0.00    +0.000 N 
ATOM      9  C   UNL     1       2.653   9.210  17.864  0.00  0.00    +0.000 C 
ATOM     10  N   UNL     1       3.047   4.749  19.688  0.00  0.00    +0.000 N 
ATOM     11  C   UNL     1       3.878   4.174  18.723  0.00  0.00    +0.000 A 
ATOM     12  O   UNL     1       4.237   2.997  18.801  0.00  0.00    +0.000 OA
ENDROOT
BRANCH   1  13
ATOM     13  C   UNL     1       5.144   4.379  16.641  0.00  0.00    +0.000 C 
BRANCH  13  15
ATOM     14  C   UNL     1       7.304   4.723  17.909  0.00  0.00    +0.000 C 
ATOM     15  C   UNL     1       6.545   5.000  16.620  0.00  0.00    +0.000 C 
ENDBRANCH  13  15
ENDBRANCH   1  13
BRANCH   7  16
ATOM     16  C   UNL     1       0.953   9.067  20.508  0.00  0.00    +0.000 C 
BRANCH  16  17
ATOM     17  C   UNL     1      -0.309   9.353  19.742  0.00  0.00    +0.000 C 
ATOM     18  C   UNL     1      -0.483  10.323  18.830  0.00  0.00    +0.000 C 
BRANCH  18  19
ATOM     19  C   UNL     1      -1.747  10.519  18.100  0.00  0.00    +0.000 A 
ATOM     20  C   UNL     1      -2.715  11.396  18.606  0.00  0.00    +0.000 A 
ATOM     21  C   UNL     1      -3.914  11.612  17.916  0.00  0.00    +0.000 A 
ATOM     22  C   UNL     1      -4.156  10.957  16.710  0.00  0.00    +0.000 A 
ATOM     23  C   UNL     1      -3.197  10.095  16.186  0.00  0.00    +0.000 A 
ATOM     24  C   UNL     1      -1.998   9.885  16.873  0.00  0.00    +0.000 A 
ENDBRANCH  18  19
ENDBRANCH  16  17
ENDBRANCH   7  16
BRANCH  10  25
ATOM     25  C   UNL     1       2.595   3.960  20.831  0.00  0.00    +0.000 C 
BRANCH  25  26
ATOM     26  C   UNL     1       1.131   3.521  20.735  0.00  0.00    +0.000 C 
ATOM     27  C   UNL     1       0.818   2.707  19.488  0.00  0.00    +0.000 C 
ENDBRANCH  25  26
ENDBRANCH  10  25
TORSDOF 7
ENDMDL
MODEL 6
REMARK VINA RESULT:      -7.2      3.234      7.322
REMARK  Name = 
REMARK  10 active torsions:
REMARK  status: ('A' for Active; 'I' for Inactive)
REMARK    1  A    between atoms: C_1  and  C_2
REMARK    2  A    between atoms: C_2  and  C_3
REMARK    3  A    between atoms: C_3  and  N_4
REMARK    4  A    between atoms: C_10  and  C_11
REMARK    5  A    between atoms: C_11  and  C_12
REMARK    6  A    between atoms: C_13  and  C_14
REMARK    7  A    between atoms: N_20  and  C_21
REMARK    8  A    between atoms: N_22  and  C_23
REMARK    9  A    between atoms: C_23  and  C_24
REMARK   10  A    between atoms: C_24  and  C_25
REMARK                            x       y       z     vdW  Elec       q    Type
REMARK                         _______ _______ _______ _____ _____    ______ ____
ROOT
ATOM      1  N   UNL     1       3.480   4.168  19.324  0.00  0.00    +0.000 N 
ATOM      2  C   UNL     1       2.703   5.110  20.015  0.00  0.00    +0.000 A 
ATOM      3  O   UNL     1       2.133   4.882  21.079  0.00  0.00    +0.000 OA
ATOM      4  C   UNL     1       2.639   6.372  19.358  0.00  0.00    +0.000 A 
ATOM      5  C   UNL     1       3.294   6.628  18.192  0.00  0.00    +0.000 A 
ATOM      6  N   UNL     1       3.082   7.896  17.760  0.00  0.00    +0.000 NA
ATOM      7  C   UNL     1       2.282   8.448  18.660  0.00  0.00    +0.000 A 
ATOM      8  N   UNL     1       1.983   7.540  19.662  0.00  0.00    +0.000 N 
ATOM      9  C   UNL     1       1.143   7.744  20.818  0.00  0.00    +0.000 C 
ATOM     10  N   UNL     1       4.060   5.681  17.559  0.00  0.00    +0.000 N 
ATOM     11  C   UNL     1       4.178   4.408  18.123  0.00  0.00    +0.000 A 
ATOM     12  O   UNL     1       4.866   3.530  17.595  0.00  0.00    +0.000 OA
ENDROOT
BRANCH   1  13
ATOM     13  C   UNL     1       3.623   2.837  19.913  0.00  0.00    +0.000 C 
BRANCH  13  15
ATOM     14  C   UNL     1       1.366   2.206  18.966  0.00  0.00    +0.000 C 
ATOM     15  C   UNL     1       2.816   1.783  19.149  0.00  0.00    +0.000 C 
ENDBRANCH  13  15
ENDBRANCH   1  13
BRANCH   7  16
ATOM     16  C   UNL     1       1.812   9.872  18.600  0.00  0.00    +0.000 C 
BRANCH  16  17
ATOM     17  C   UNL     1       0.419  10.007  18.050  0.00  0.00    +0.000 C 
ATOM     18  C   UNL     1      -0.558  10.787  18.542  0.00  0.00    +0.000 C 
BRANCH  18  19
ATOM     19  C   UNL     1      -1.892  10.887  17.925  0.00  0.00    +0.000 A 
ATOM     20  C   UNL     1      -2.141  10.252  16.701  0.00  0.00    +0.000 A 
ATOM     21  C   UNL     1      -3.407  10.316  16.108  0.00  0.00    +0.000 A 
ATOM     22  C   UNL     1      -4.440  11.013  16.735  0.00  0.00    +0.000 A 
ATOM     23  C   UNL     1      -4.211  11.634  17.959  0.00  0.00    +0.000 A 
ATOM     24  C   UNL     1      -2.949  11.563  18.553  0.00  0.00    +0.000 A 
ENDBRANCH  18  19
ENDBRANCH  16  17
ENDBRANCH   7  16
BRANCH  10  25
ATOM     25  C   UNL     1       4.746   5.996  16.308  0.00  0.00    +0.000 C 
BRANCH  25  26
ATOM     26  C   UNL     1       6.272   6.014  16.430  0.00  0.00    +0.000 C 
ATOM     27  C   UNL     1       6.799   7.106  17.349  0.00  0.00    +0.000 C 
ENDBRANCH  25  26
ENDBRANCH  10  25
TORSDOF 7
ENDMDL
MODEL 7
REMARK VINA RESULT:      -7.1      4.121      7.840
REMARK  Name = 
REMARK  10 active torsions:
REMARK  status: ('A' for Active; 'I' for Inactive)
REMARK    1  A    between atoms: C_1  and  C_2
REMARK    2  A    between atoms: C_2  and  C_3
REMARK    3  A    between atoms: C_3  and  N_4
REMARK    4  A    between atoms: C_10  and  C_11
REMARK    5  A    between atoms: C_11  and  C_12
REMARK    6  A    between atoms: C_13  and  C_14
REMARK    7  A    between atoms: N_20  and  C_21
REMARK    8  A    between atoms: N_22  and  C_23
REMARK    9  A    between atoms: C_23  and  C_24
REMARK   10  A    between atoms: C_24  and  C_25
REMARK                            x       y       z     vdW  Elec       q    Type
REMARK                         _______ _______ _______ _____ _____    ______ ____
ROOT
ATOM      1  N   UNL     1       4.593   5.112  18.042  0.00  0.00    +0.000 N 
ATOM      2  C   UNL     1       4.167   6.406  17.705  0.00  0.00    +0.000 A 
ATOM      3  O   UNL     1       4.593   7.039  16.741  0.00  0.00    +0.000 OA
ATOM      4  C   UNL     1       3.181   6.920  18.594  0.00  0.00    +0.000 A 
ATOM      5  C   UNL     1       2.692   6.204  19.643  0.00  0.00    +0.000 A 
ATOM      6  N   UNL     1       1.765   6.902  20.345  0.00  0.00    +0.000 NA
ATOM      7  C   UNL     1       1.667   8.073  19.734  0.00  0.00    +0.000 A 
ATOM      8  N   UNL     1       2.525   8.126  18.649  0.00  0.00    +0.000 N 
ATOM      9  C   UNL     1       2.725   9.222  17.732  0.00  0.00    +0.000 C 
ATOM     10  N   UNL     1       3.124   4.932  19.927  0.00  0.00    +0.000 N 
ATOM     11  C   UNL     1       4.097   4.343  19.115  0.00  0.00    +0.000 A 
ATOM     12  O   UNL     1       4.506   3.199  19.326  0.00  0.00    +0.000 OA
ENDROOT
BRANCH   1  13
ATOM     13  C   UNL     1       5.600   4.481  17.191  0.00  0.00    +0.000 C 
BRANCH  13  15
ATOM     14  C   UNL     1       5.506   4.415  14.666  0.00  0.00    +0.000 C 
ATOM     15  C   UNL     1       4.976   3.816  15.960  0.00  0.00    +0.000 C 
ENDBRANCH  13  15
ENDBRANCH   1  13
BRANCH   7  16
ATOM     16  C   UNL     1       0.721   9.160  20.156  0.00  0.00    +0.000 C 
BRANCH  16  17
ATOM     17  C   UNL     1      -0.353   9.431  19.138  0.00  0.00    +0.000 C 
ATOM     18  C   UNL     1      -1.196  10.477  19.132  0.00  0.00    +0.000 C 
BRANCH  18  19
ATOM     19  C   UNL     1      -2.203  10.688  18.079  0.00  0.00    +0.000 A 
ATOM     20  C   UNL     1      -2.076  10.023  16.852  0.00  0.00    +0.000 A 
ATOM     21  C   UNL     1      -3.035  10.194  15.845  0.00  0.00    +0.000 A 
ATOM     22  C   UNL     1      -4.132  11.026  16.057  0.00  0.00    +0.000 A 
ATOM     23  C   UNL     1      -4.280  11.680  17.276  0.00  0.00    +0.000 A 
ATOM     24  C   UNL     1      -3.327  11.503  18.282  0.00  0.00    +0.000 A 
ENDBRANCH  18  19
ENDBRANCH  16  17
ENDBRANCH   7  16
BRANCH  10  25
ATOM     25  C   UNL     1       2.576   4.199  21.065  0.00  0.00    +0.000 C 
BRANCH  25  26
ATOM     26  C   UNL     1       1.154   3.678  20.834  0.00  0.00    +0.000 C 
ATOM     27  C   UNL     1       1.058   2.634  19.732  0.00  0.00    +0.000 C 
ENDBRANCH  25  26
ENDBRANCH  10  25
TORSDOF 7
ENDMDL
MODEL 8
REMARK VINA RESULT:      -7.1      3.979      8.067
REMARK  Name = 
REMARK  10 active torsions:
REMARK  status: ('A' for Active; 'I' for Inactive)
REMARK    1  A    between atoms: C_1  and  C_2
REMARK    2  A    between atoms: C_2  and  C_3
REMARK    3  A    between atoms: C_3  and  N_4
REMARK    4  A    between atoms: C_10  and  C_11
REMARK    5  A    between atoms: C_11  and  C_12
REMARK    6  A    between atoms: C_13  and  C_14
REMARK    7  A    between atoms: N_20  and  C_21
REMARK    8  A    between atoms: N_22  and  C_23
REMARK    9  A    between atoms: C_23  and  C_24
REMARK   10  A    between atoms: C_24  and  C_25
REMARK                            x       y       z     vdW  Elec       q    Type
REMARK                         _______ _______ _______ _____ _____    ______ ____
ROOT
ATOM      1  N   UNL     1       3.974   5.754  17.815  0.00  0.00    +0.000 N 
ATOM      2  C   UNL     1       3.520   7.057  17.557  0.00  0.00    +0.000 A 
ATOM      3  O   UNL     1       3.811   7.698  16.551  0.00  0.00    +0.000 OA
ATOM      4  C   UNL     1       2.676   7.568  18.583  0.00  0.00    +0.000 A 
ATOM      5  C   UNL     1       2.333   6.843  19.684  0.00  0.00    +0.000 A 
ATOM      6  N   UNL     1       1.523   7.540  20.518  0.00  0.00    +0.000 NA
ATOM      7  C   UNL     1       1.352   8.721  19.941  0.00  0.00    +0.000 A 
ATOM      8  N   UNL     1       2.048   8.779  18.746  0.00  0.00    +0.000 N 
ATOM      9  C   UNL     1       2.128   9.886  17.822  0.00  0.00    +0.000 C 
ATOM     10  N   UNL     1       2.786   5.563  19.888  0.00  0.00    +0.000 N 
ATOM     11  C   UNL     1       3.628   4.976  18.939  0.00  0.00    +0.000 A 
ATOM     12  O   UNL     1       4.049   3.825  19.076  0.00  0.00    +0.000 OA
ENDROOT
BRANCH   1  13
ATOM     13  C   UNL     1       4.843   5.125  16.822  0.00  0.00    +0.000 C 
BRANCH  13  15
ATOM     14  C   UNL     1       7.272   4.462  16.600  0.00  0.00    +0.000 C 
ATOM     15  C   UNL     1       6.301   5.573  16.968  0.00  0.00    +0.000 C 
ENDBRANCH  13  15
ENDBRANCH   1  13
BRANCH   7  16
ATOM     16  C   UNL     1       0.488   9.810  20.506  0.00  0.00    +0.000 C 
BRANCH  16  17
ATOM     17  C   UNL     1      -0.778  10.022  19.722  0.00  0.00    +0.000 C 
ATOM     18  C   UNL     1      -0.946  10.878  18.701  0.00  0.00    +0.000 C 
BRANCH  18  19
ATOM     19  C   UNL     1      -2.214  11.004  17.962  0.00  0.00    +0.000 A 
ATOM     20  C   UNL     1      -2.311  10.504  16.657  0.00  0.00    +0.000 A 
ATOM     21  C   UNL     1      -3.514  10.596  15.945  0.00  0.00    +0.000 A 
ATOM     22  C   UNL     1      -4.633  11.183  16.533  0.00  0.00    +0.000 A 
ATOM     23  C   UNL     1      -4.555  11.670  17.834  0.00  0.00    +0.000 A 
ATOM     24  C   UNL     1      -3.357  11.572  18.546  0.00  0.00    +0.000 A 
ENDBRANCH  18  19
ENDBRANCH  16  17
ENDBRANCH   7  16
BRANCH  10  25
ATOM     25  C   UNL     1       2.397   4.820  21.083  0.00  0.00    +0.000 C 
BRANCH  25  26
ATOM     26  C   UNL     1       1.253   3.829  20.847  0.00  0.00    +0.000 C 
ATOM     27  C   UNL     1       1.443   2.497  21.555  0.00  0.00    +0.000 C 
ENDBRANCH  25  26
ENDBRANCH  10  25
TORSDOF 7
ENDMDL
MODEL 9
REMARK VINA RESULT:      -7.1      0.632      1.350
REMARK  Name = 
REMARK  10 active torsions:
REMARK  status: ('A' for Active; 'I' for Inactive)
REMARK    1  A    between atoms: C_1  and  C_2
REMARK    2  A    between atoms: C_2  and  C_3
REMARK    3  A    between atoms: C_3  and  N_4
REMARK    4  A    between atoms: C_10  and  C_11
REMARK    5  A    between atoms: C_11  and  C_12
REMARK    6  A    between atoms: C_13  and  C_14
REMARK    7  A    between atoms: N_20  and  C_21
REMARK    8  A    between atoms: N_22  and  C_23
REMARK    9  A    between atoms: C_23  and  C_24
REMARK   10  A    between atoms: C_24  and  C_25
REMARK                            x       y       z     vdW  Elec       q    Type
REMARK                         _______ _______ _______ _____ _____    ______ ____
ROOT
ATOM      1  N   UNL     1       3.326   4.205  19.344  0.00  0.00    +0.000 N 
ATOM      2  C   UNL     1       4.723   4.146  19.214  0.00  0.00    +0.000 A 
ATOM      3  O   UNL     1       5.410   3.213  19.622  0.00  0.00    +0.000 OA
ATOM      4  C   UNL     1       5.272   5.281  18.554  0.00  0.00    +0.000 A 
ATOM      5  C   UNL     1       4.503   6.300  18.079  0.00  0.00    +0.000 A 
ATOM      6  N   UNL     1       5.249   7.267  17.491  0.00  0.00    +0.000 NA
ATOM      7  C   UNL     1       6.505   6.857  17.596  0.00  0.00    +0.000 A 
ATOM      8  N   UNL     1       6.563   5.637  18.247  0.00  0.00    +0.000 N 
ATOM      9  C   UNL     1       7.736   4.859  18.566  0.00  0.00    +0.000 C 
ATOM     10  N   UNL     1       3.136   6.309  18.212  0.00  0.00    +0.000 N 
ATOM     11  C   UNL     1       2.504   5.241  18.854  0.00  0.00    +0.000 A 
ATOM     12  O   UNL     1       1.278   5.202  18.985  0.00  0.00    +0.000 OA
ENDROOT
BRANCH   1  13
ATOM     13  C   UNL     1       2.653   3.087  20.001  0.00  0.00    +0.000 C 
BRANCH  13  15
ATOM     14  C   UNL     1       2.386   2.153  17.667  0.00  0.00    +0.000 C 
ATOM     15  C   UNL     1       2.650   1.827  19.129  0.00  0.00    +0.000 C 
ENDBRANCH  13  15
ENDBRANCH   1  13
BRANCH   7  16
ATOM     16  C   UNL     1       7.679   7.612  17.042  0.00  0.00    +0.000 C 
BRANCH  16  17
ATOM     17  C   UNL     1       7.911   8.926  17.734  0.00  0.00    +0.000 C 
ATOM     18  C   UNL     1       8.950   9.234  18.528  0.00  0.00    +0.000 C 
BRANCH  18  19
ATOM     19  C   UNL     1       9.121  10.560  19.146  0.00  0.00    +0.000 A 
ATOM     20  C   UNL     1       9.080  11.711  18.347  0.00  0.00    +0.000 A 
ATOM     21  C   UNL     1       9.219  12.981  18.918  0.00  0.00    +0.000 A 
ATOM     22  C   UNL     1       9.395  13.116  20.295  0.00  0.00    +0.000 A 
ATOM     23  C   UNL     1       9.421  11.983  21.102  0.00  0.00    +0.000 A 
ATOM     24  C   UNL     1       9.275  10.716  20.532  0.00  0.00    +0.000 A 
ENDBRANCH  18  19
ENDBRANCH  16  17
ENDBRANCH   7  16
BRANCH  10  25
ATOM     25  C   UNL     1       2.348   7.422  17.690  0.00  0.00    +0.000 C 
BRANCH  25  26
ATOM     26  C   UNL     1       2.046   8.504  18.732  0.00  0.00    +0.000 C 
ATOM     27  C   UNL     1       1.365   9.735  18.154  0.00  0.00    +0.000 C 
ENDBRANCH  25  26
ENDBRANCH  10  25
TORSDOF 7
ENDMDL
