MODEL 1
REMARK VINA RESULT:      -6.3      0.000      0.000
REMARK  Name = 
REMARK  8 active torsions:
REMARK  status: ('A' for Active; 'I' for Inactive)
REMARK    1  A    between atoms: C_1  and  O_2
REMARK    2  A    between atoms: O_2  and  C_3
REMARK    3  A    between atoms: C_4  and  C_5
REMARK    4  A    between atoms: C_6  and  C_7
REMARK    5  A    between atoms: C_9  and  N_10
REMARK    6  A    between atoms: C_14  and  O_15
REMARK    7  A    between atoms: C_22  and  O_23
REMARK    8  A    between atoms: O_23  and  C_24
REMARK                            x       y       z     vdW  Elec       q    Type
REMARK                         _______ _______ _______ _____ _____    ______ ____
ROOT
ATOM      1  C   UNL     1       0.020  10.741  20.340  0.00  0.00    +0.000 C 
ATOM      2  C   UNL     1      -0.273  10.548  21.810  0.00  0.00    +0.000 C 
ATOM      3  C   UNL     1       0.199   9.478  22.479  0.00  0.00    +0.000 C 
ATOM      4  O   UNL     1       1.028   8.526  21.891  0.00  0.00    +0.000 OA
ATOM      5  C   UNL     1       1.311   8.595  20.548  0.00  0.00    +0.000 A 
ATOM      6  C   UNL     1       2.079   7.570  19.992  0.00  0.00    +0.000 A 
ATOM      7  C   UNL     1       2.373   7.594  18.628  0.00  0.00    +0.000 A 
ATOM      8  C   UNL     1       1.913   8.614  17.808  0.00  0.00    +0.000 A 
ATOM      9  C   UNL     1       1.149   9.632  18.361  0.00  0.00    +0.000 A 
ATOM     10  C   UNL     1       0.858   9.634  19.739  0.00  0.00    +0.000 A 
ENDROOT
BRANCH   1  12
ATOM     11  C   UNL     1      -0.102  13.124  19.270  0.00  0.00    +0.000 A 
ATOM     12  C   UNL     1       0.572  12.129  20.027  0.00  0.00    +0.000 A 
ATOM     13  C   UNL     1       1.836  12.440  20.595  0.00  0.00    +0.000 A 
ATOM     14  C   UNL     1       2.395  13.675  20.384  0.00  0.00    +0.000 A 
ATOM     15  C   UNL     1       1.756  14.644  19.657  0.00  0.00    +0.000 A 
ATOM     16  C   UNL     1       0.508  14.407  19.091  0.00  0.00    +0.000 A 
ATOM     17  O   UNL     1       2.506  15.783  19.610  0.00  0.00    +0.000 OA
ATOM     18  C   UNL     1       3.646  15.425  20.412  0.00  0.00    +0.000 C 
ATOM     19  O   UNL     1       3.606  14.064  20.866  0.00  0.00    +0.000 OA
BRANCH  11  21
ATOM     20  C   UNL     1      -1.767  12.019  17.822  0.00  0.00    +0.000 C 
ATOM     21  O   UNL     1      -1.349  13.049  18.697  0.00  0.00    +0.000 OA
ENDBRANCH  11  21
BRANCH  16  22
ATOM     22  O   UNL     1      -0.221  15.314  18.358  0.00  0.00    +0.000 OA
ATOM     23  C   UNL     1      -0.691  16.478  19.021  0.00  0.00    +0.000 C 
ENDBRANCH  16  22
ENDBRANCH   1  12
BRANCH   3  24
ATOM     24  N   UNL     1      -0.101   9.204  23.795  0.00  0.00    +0.000 N 
ATOM     25  H   UNL     1       0.232   8.320  24.165  0.00  0.00    +0.000 HD
ATOM     26  H   UNL     1      -1.071   9.417  24.041  0.00  0.00    +0.000 HD
ENDBRANCH   3  24
BRANCH   2  27
ATOM     27  C   UNL     1      -1.120  11.490  22.479  0.00  0.00    +0.000 C 
ATOM     28  N   UNL     1      -1.794  12.238  23.056  0.00  0.00    +0.000 NA
ENDBRANCH   2  27
BRANCH   7  29
ATOM     29  O   UNL     1       3.120   6.617  18.039  0.00  0.00    +0.000 OA
ATOM     30  H   UNL     1       3.137   5.841  18.623  0.00  0.00    +0.000 HD
ENDBRANCH   7  29
TORSDOF 6
ENDMDL
MODEL 2
REMARK VINA RESULT:      -6.1      3.088      5.381
REMARK  Name = 
REMARK  8 active torsions:
REMARK  status: ('A' for Active; 'I' for Inactive)
REMARK    1  A    between atoms: C_1  and  O_2
REMARK    2  A    between atoms: O_2  and  C_3
REMARK    3  A    between atoms: C_4  and  C_5
REMARK    4  A    between atoms: C_6  and  C_7
REMARK    5  A    between atoms: C_9  and  N_10
REMARK    6  A    between atoms: C_14  and  O_15
REMARK    7  A    between atoms: C_22  and  O_23
REMARK    8  A    between atoms: O_23  and  C_24
REMARK                            x       y       z     vdW  Elec       q    Type
REMARK                         _______ _______ _______ _____ _____    ______ ____
ROOT
ATOM      1  C   UNL     1      -0.318  12.054  20.117  0.00  0.00    +0.000 C 
ATOM      2  C   UNL     1       0.465  12.792  19.056  0.00  0.00    +0.000 C 
ATOM      3  C   UNL     1       1.481  12.199  18.401  0.00  0.00    +0.000 C 
ATOM      4  O   UNL     1       1.833  10.867  18.603  0.00  0.00    +0.000 OA
ATOM      5  C   UNL     1       1.207  10.129  19.580  0.00  0.00    +0.000 A 
ATOM      6  C   UNL     1       1.656   8.826  19.797  0.00  0.00    +0.000 A 
ATOM      7  C   UNL     1       1.058   8.050  20.792  0.00  0.00    +0.000 A 
ATOM      8  C   UNL     1       0.028   8.550  21.576  0.00  0.00    +0.000 A 
ATOM      9  C   UNL     1      -0.416   9.847  21.360  0.00  0.00    +0.000 A 
ATOM     10  C   UNL     1       0.163  10.637  20.348  0.00  0.00    +0.000 A 
ENDROOT
BRANCH   1  12
ATOM     11  C   UNL     1      -2.751  12.745  20.782  0.00  0.00    +0.000 A 
ATOM     12  C   UNL     1      -1.826  12.131  19.896  0.00  0.00    +0.000 A 
ATOM     13  C   UNL     1      -2.307  11.584  18.677  0.00  0.00    +0.000 A 
ATOM     14  C   UNL     1      -3.647  11.633  18.388  0.00  0.00    +0.000 A 
ATOM     15  C   UNL     1      -4.549  12.224  19.232  0.00  0.00    +0.000 A 
ATOM     16  C   UNL     1      -4.138  12.793  20.432  0.00  0.00    +0.000 A 
ATOM     17  O   UNL     1      -5.809  12.160  18.710  0.00  0.00    +0.000 OA
ATOM     18  C   UNL     1      -5.579  11.507  17.449  0.00  0.00    +0.000 C 
ATOM     19  O   UNL     1      -4.209  11.122  17.259  0.00  0.00    +0.000 OA
BRANCH  11  21
ATOM     20  C   UNL     1      -2.227  12.727  23.194  0.00  0.00    +0.000 C 
ATOM     21  O   UNL     1      -2.484  13.386  21.969  0.00  0.00    +0.000 OA
ENDBRANCH  11  21
BRANCH  16  22
ATOM     22  O   UNL     1      -4.958  13.420  21.340  0.00  0.00    +0.000 OA
ATOM     23  C   UNL     1      -5.925  12.632  22.017  0.00  0.00    +0.000 C 
ENDBRANCH  16  22
ENDBRANCH   1  12
BRANCH   3  24
ATOM     24  N   UNL     1       2.283  12.844  17.485  0.00  0.00    +0.000 N 
ATOM     25  H   UNL     1       1.852  13.106  16.605  0.00  0.00    +0.000 HD
ATOM     26  H   UNL     1       3.205  12.415  17.384  0.00  0.00    +0.000 HD
ENDBRANCH   3  24
BRANCH   2  27
ATOM     27  C   UNL     1       0.156  14.167  18.796  0.00  0.00    +0.000 C 
ATOM     28  N   UNL     1      -0.058  15.286  18.573  0.00  0.00    +0.000 NA
ENDBRANCH   2  27
BRANCH   7  29
ATOM     29  O   UNL     1       1.460   6.771  21.042  0.00  0.00    +0.000 OA
ATOM     30  H   UNL     1       0.819   6.159  20.646  0.00  0.00    +0.000 HD
ENDBRANCH   7  29
TORSDOF 6
ENDMDL
MODEL 3
REMARK VINA RESULT:      -6.0      3.119      5.208
REMARK  Name = 
REMARK  8 active torsions:
REMARK  status: ('A' for Active; 'I' for Inactive)
REMARK    1  A    between atoms: C_1  and  O_2
REMARK    2  A    between atoms: O_2  and  C_3
REMARK    3  A    between atoms: C_4  and  C_5
REMARK    4  A    between atoms: C_6  and  C_7
REMARK    5  A    between atoms: C_9  and  N_10
REMARK    6  A    between atoms: C_14  and  O_15
REMARK    7  A    between atoms: C_22  and  O_23
REMARK    8  A    between atoms: O_23  and  C_24
REMARK                            x       y       z     vdW  Elec       q    Type
REMARK                         _______ _______ _______ _____ _____    ______ ____
ROOT
ATOM      1  C   UNL     1      -0.415  12.206  20.227  0.00  0.00    +0.000 C 
ATOM      2  C   UNL     1       0.316  12.969  19.147  0.00  0.00    +0.000 C 
ATOM      3  C   UNL     1       1.320  12.402  18.450  0.00  0.00    +0.000 C 
ATOM      4  O   UNL     1       1.704  11.075  18.627  0.00  0.00    +0.000 OA
ATOM      5  C   UNL     1       1.126  10.316  19.617  0.00  0.00    +0.000 A 
ATOM      6  C   UNL     1       1.607   9.019  19.805  0.00  0.00    +0.000 A 
ATOM      7  C   UNL     1       1.060   8.223  20.812  0.00  0.00    +0.000 A 
ATOM      8  C   UNL     1       0.049   8.696  21.637  0.00  0.00    +0.000 A 
ATOM      9  C   UNL     1      -0.426   9.986  21.451  0.00  0.00    +0.000 A 
ATOM     10  C   UNL     1       0.101  10.796  20.427  0.00  0.00    +0.000 A 
ENDROOT
BRANCH   1  12
ATOM     11  C   UNL     1      -2.639  11.850  18.898  0.00  0.00    +0.000 A 
ATOM     12  C   UNL     1      -1.931  12.256  20.061  0.00  0.00    +0.000 A 
ATOM     13  C   UNL     1      -2.668  12.697  21.191  0.00  0.00    +0.000 A 
ATOM     14  C   UNL     1      -4.038  12.750  21.136  0.00  0.00    +0.000 A 
ATOM     15  C   UNL     1      -4.733  12.360  20.023  0.00  0.00    +0.000 A 
ATOM     16  C   UNL     1      -4.070  11.901  18.890  0.00  0.00    +0.000 A 
ATOM     17  O   UNL     1      -6.077  12.487  20.226  0.00  0.00    +0.000 OA
ATOM     18  C   UNL     1      -6.132  12.956  21.585  0.00  0.00    +0.000 C 
ATOM     19  O   UNL     1      -4.833  13.175  22.155  0.00  0.00    +0.000 OA
BRANCH  11  21
ATOM     20  C   UNL     1      -1.813   9.968  17.531  0.00  0.00    +0.000 C 
ATOM     21  O   UNL     1      -2.123  11.333  17.733  0.00  0.00    +0.000 OA
ENDBRANCH  11  21
BRANCH  16  22
ATOM     22  O   UNL     1      -4.672  11.474  17.731  0.00  0.00    +0.000 OA
ATOM     23  C   UNL     1      -5.580  12.358  17.089  0.00  0.00    +0.000 C 
ENDBRANCH  16  22
ENDBRANCH   1  12
BRANCH   3  24
ATOM     24  N   UNL     1       2.076  13.071  17.514  0.00  0.00    +0.000 N 
ATOM     25  H   UNL     1       2.335  12.553  16.681  0.00  0.00    +0.000 HD
ATOM     26  H   UNL     1       2.844  13.606  17.924  0.00  0.00    +0.000 HD
ENDBRANCH   3  24
BRANCH   2  27
ATOM     27  C   UNL     1      -0.028  14.340  18.912  0.00  0.00    +0.000 C 
ATOM     28  N   UNL     1      -0.276  15.454  18.698  0.00  0.00    +0.000 NA
ENDBRANCH   2  27
BRANCH   7  29
ATOM     29  O   UNL     1       1.495   6.950  21.035  0.00  0.00    +0.000 OA
ATOM     30  H   UNL     1       0.871   6.330  20.624  0.00  0.00    +0.000 HD
ENDBRANCH   7  29
TORSDOF 6
ENDMDL
MODEL 4
REMARK VINA RESULT:      -6.0      2.760      4.562
REMARK  Name = 
REMARK  8 active torsions:
REMARK  status: ('A' for Active; 'I' for Inactive)
REMARK    1  A    between atoms: C_1  and  O_2
REMARK    2  A    between atoms: O_2  and  C_3
REMARK    3  A    between atoms: C_4  and  C_5
REMARK    4  A    between atoms: C_6  and  C_7
REMARK    5  A    between atoms: C_9  and  N_10
REMARK    6  A    between atoms: C_14  and  O_15
REMARK    7  A    between atoms: C_22  and  O_23
REMARK    8  A    between atoms: O_23  and  C_24
REMARK                            x       y       z     vdW  Elec       q    Type
REMARK                         _______ _______ _______ _____ _____    ______ ____
ROOT
ATOM      1  C   UNL     1      -1.564  11.240  19.606  0.00  0.00    +0.000 C 
ATOM      2  C   UNL     1      -0.223  10.549  19.690  0.00  0.00    +0.000 C 
ATOM      3  C   UNL     1       0.241   9.803  18.669  0.00  0.00    +0.000 C 
ATOM      4  O   UNL     1      -0.440   9.672  17.460  0.00  0.00    +0.000 OA
ATOM      5  C   UNL     1      -1.687  10.228  17.309  0.00  0.00    +0.000 A 
ATOM      6  C   UNL     1      -2.360   9.996  16.108  0.00  0.00    +0.000 A 
ATOM      7  C   UNL     1      -3.637  10.527  15.921  0.00  0.00    +0.000 A 
ATOM      8  C   UNL     1      -4.257  11.280  16.909  0.00  0.00    +0.000 A 
ATOM      9  C   UNL     1      -3.588  11.508  18.103  0.00  0.00    +0.000 A 
ATOM     10  C   UNL     1      -2.291  10.995  18.301  0.00  0.00    +0.000 A 
ENDROOT
BRANCH   1  12
ATOM     11  C   UNL     1      -2.095  13.322  21.097  0.00  0.00    +0.000 A 
ATOM     12  C   UNL     1      -1.486  12.722  19.963  0.00  0.00    +0.000 A 
ATOM     13  C   UNL     1      -0.693  13.529  19.105  0.00  0.00    +0.000 A 
ATOM     14  C   UNL     1      -0.549  14.869  19.367  0.00  0.00    +0.000 A 
ATOM     15  C   UNL     1      -1.129  15.459  20.457  0.00  0.00    +0.000 A 
ATOM     16  C   UNL     1      -1.902  14.719  21.344  0.00  0.00    +0.000 A 
ATOM     17  O   UNL     1      -0.820  16.788  20.505  0.00  0.00    +0.000 OA
ATOM     18  C   UNL     1       0.035  16.939  19.358  0.00  0.00    +0.000 C 
ATOM     19  O   UNL     1       0.171  15.729  18.598  0.00  0.00    +0.000 OA
BRANCH  11  21
ATOM     20  C   UNL     1      -2.300  11.896  23.101  0.00  0.00    +0.000 C 
ATOM     21  O   UNL     1      -2.839  12.710  22.078  0.00  0.00    +0.000 OA
ENDBRANCH  11  21
BRANCH  16  22
ATOM     22  O   UNL     1      -2.514  15.211  22.473  0.00  0.00    +0.000 OA
ATOM     23  C   UNL     1      -1.690  15.565  23.574  0.00  0.00    +0.000 C 
ENDBRANCH  16  22
ENDBRANCH   1  12
BRANCH   3  24
ATOM     24  N   UNL     1       1.414   9.083  18.717  0.00  0.00    +0.000 N 
ATOM     25  H   UNL     1       2.077   9.338  19.441  0.00  0.00    +0.000 HD
ATOM     26  H   UNL     1       1.839   8.942  17.798  0.00  0.00    +0.000 HD
ENDBRANCH   3  24
BRANCH   2  27
ATOM     27  C   UNL     1       0.531  10.642  20.904  0.00  0.00    +0.000 C 
ATOM     28  N   UNL     1       1.130  10.681  21.898  0.00  0.00    +0.000 NA
ENDBRANCH   2  27
BRANCH   7  29
ATOM     29  O   UNL     1      -4.334  10.330  14.766  0.00  0.00    +0.000 OA
ATOM     30  H   UNL     1      -5.121   9.795  14.963  0.00  0.00    +0.000 HD
ENDBRANCH   7  29
TORSDOF 6
ENDMDL
MODEL 5
REMARK VINA RESULT:      -6.0      4.333      6.696
REMARK  Name = 
REMARK  8 active torsions:
REMARK  status: ('A' for Active; 'I' for Inactive)
REMARK    1  A    between atoms: C_1  and  O_2
REMARK    2  A    between atoms: O_2  and  C_3
REMARK    3  A    between atoms: C_4  and  C_5
REMARK    4  A    between atoms: C_6  and  C_7
REMARK    5  A    between atoms: C_9  and  N_10
REMARK    6  A    between atoms: C_14  and  O_15
REMARK    7  A    between atoms: C_22  and  O_23
REMARK    8  A    between atoms: O_23  and  C_24
REMARK                            x       y       z     vdW  Elec       q    Type
REMARK                         _______ _______ _______ _____ _____    ______ ____
ROOT
ATOM      1  C   UNL     1      -4.516  13.877  20.860  0.00  0.00    +0.000 C 
ATOM      2  C   UNL     1      -5.192  14.625  21.985  0.00  0.00    +0.000 C 
ATOM      3  C   UNL     1      -6.400  14.247  22.447  0.00  0.00    +0.000 C 
ATOM      4  O   UNL     1      -7.069  13.121  21.973  0.00  0.00    +0.000 OA
ATOM      5  C   UNL     1      -6.553  12.405  20.919  0.00  0.00    +0.000 A 
ATOM      6  C   UNL     1      -7.305  11.336  20.430  0.00  0.00    +0.000 A 
ATOM      7  C   UNL     1      -6.824  10.595  19.349  0.00  0.00    +0.000 A 
ATOM      8  C   UNL     1      -5.613  10.903  18.745  0.00  0.00    +0.000 A 
ATOM      9  C   UNL     1      -4.867  11.967  19.232  0.00  0.00    +0.000 A 
ATOM     10  C   UNL     1      -5.328  12.713  20.333  0.00  0.00    +0.000 A 
ENDROOT
BRANCH   1  12
ATOM     11  C   UNL     1      -2.694  12.601  22.235  0.00  0.00    +0.000 A 
ATOM     12  C   UNL     1      -3.080  13.485  21.193  0.00  0.00    +0.000 A 
ATOM     13  C   UNL     1      -2.075  14.021  20.344  0.00  0.00    +0.000 A 
ATOM     14  C   UNL     1      -0.758  13.700  20.557  0.00  0.00    +0.000 A 
ATOM     15  C   UNL     1      -0.373  12.847  21.557  0.00  0.00    +0.000 A 
ATOM     16  C   UNL     1      -1.311  12.277  22.410  0.00  0.00    +0.000 A 
ATOM     17  O   UNL     1       0.981  12.675  21.547  0.00  0.00    +0.000 OA
ATOM     18  C   UNL     1       1.378  13.477  20.420  0.00  0.00    +0.000 C 
ATOM     19  O   UNL     1       0.279  14.175  19.815  0.00  0.00    +0.000 OA
BRANCH  11  21
ATOM     20  C   UNL     1      -3.969  12.460  24.344  0.00  0.00    +0.000 C 
ATOM     21  O   UNL     1      -3.509  11.929  23.116  0.00  0.00    +0.000 OA
ENDBRANCH  11  21
BRANCH  16  22
ATOM     22  O   UNL     1      -1.031  11.401  23.432  0.00  0.00    +0.000 OA
ATOM     23  C   UNL     1      -0.656  10.075  23.087  0.00  0.00    +0.000 C 
ENDBRANCH  16  22
ENDBRANCH   1  12
BRANCH   3  24
ATOM     24  N   UNL     1      -7.102  14.936  23.411  0.00  0.00    +0.000 N 
ATOM     25  H   UNL     1      -6.588  15.632  23.940  0.00  0.00    +0.000 HD
ATOM     26  H   UNL     1      -7.695  14.333  23.986  0.00  0.00    +0.000 HD
ENDBRANCH   3  24
BRANCH   2  27
ATOM     27  C   UNL     1      -4.559  15.794  22.521  0.00  0.00    +0.000 C 
ATOM     28  N   UNL     1      -4.078  16.746  22.978  0.00  0.00    +0.000 NA
ENDBRANCH   2  27
BRANCH   7  29
ATOM     29  O   UNL     1      -7.521   9.542  18.836  0.00  0.00    +0.000 OA
ATOM     30  H   UNL     1      -7.434   9.551  17.868  0.00  0.00    +0.000 HD
ENDBRANCH   7  29
TORSDOF 6
ENDMDL
MODEL 6
REMARK VINA RESULT:      -5.9      3.413      6.360
REMARK  Name = 
REMARK  8 active torsions:
REMARK  status: ('A' for Active; 'I' for Inactive)
REMARK    1  A    between atoms: C_1  and  O_2
REMARK    2  A    between atoms: O_2  and  C_3
REMARK    3  A    between atoms: C_4  and  C_5
REMARK    4  A    between atoms: C_6  and  C_7
REMARK    5  A    between atoms: C_9  and  N_10
REMARK    6  A    between atoms: C_14  and  O_15
REMARK    7  A    between atoms: C_22  and  O_23
REMARK    8  A    between atoms: O_23  and  C_24
REMARK                            x       y       z     vdW  Elec       q    Type
REMARK                         _______ _______ _______ _____ _____    ______ ____
ROOT
ATOM      1  C   UNL     1      -2.669  13.627  21.922  0.00  0.00    +0.000 C 
ATOM      2  C   UNL     1      -2.520  14.278  23.277  0.00  0.00    +0.000 C 
ATOM      3  C   UNL     1      -3.563  14.367  24.125  0.00  0.00    +0.000 C 
ATOM      4  O   UNL     1      -4.812  13.817  23.845  0.00  0.00    +0.000 OA
ATOM      5  C   UNL     1      -5.053  13.245  22.619  0.00  0.00    +0.000 A 
ATOM      6  C   UNL     1      -6.345  12.784  22.361  0.00  0.00    +0.000 A 
ATOM      7  C   UNL     1      -6.636  12.213  21.121  0.00  0.00    +0.000 A 
ATOM      8  C   UNL     1      -5.668  12.099  20.134  0.00  0.00    +0.000 A 
ATOM      9  C   UNL     1      -4.384  12.559  20.391  0.00  0.00    +0.000 A 
ATOM     10  C   UNL     1      -4.068  13.120  21.643  0.00  0.00    +0.000 A 
ENDROOT
BRANCH   1  12
ATOM     11  C   UNL     1      -0.863  12.441  20.448  0.00  0.00    +0.000 A 
ATOM     12  C   UNL     1      -1.600  12.571  21.656  0.00  0.00    +0.000 A 
ATOM     13  C   UNL     1      -1.304  11.697  22.735  0.00  0.00    +0.000 A 
ATOM     14  C   UNL     1      -0.339  10.733  22.590  0.00  0.00    +0.000 A 
ATOM     15  C   UNL     1       0.380  10.598  21.432  0.00  0.00    +0.000 A 
ATOM     16  C   UNL     1       0.150  11.434  20.346  0.00  0.00    +0.000 A 
ATOM     17  O   UNL     1       1.288   9.585  21.546  0.00  0.00    +0.000 OA
ATOM     18  C   UNL     1       1.077   9.143  22.899  0.00  0.00    +0.000 C 
ATOM     19  O   UNL     1       0.005   9.837  23.554  0.00  0.00    +0.000 OA
BRANCH  11  21
ATOM     20  C   UNL     1      -0.401  14.520  19.202  0.00  0.00    +0.000 C 
ATOM     21  O   UNL     1      -0.948  13.221  19.320  0.00  0.00    +0.000 OA
ENDBRANCH  11  21
BRANCH  16  22
ATOM     22  O   UNL     1       0.824  11.391  19.148  0.00  0.00    +0.000 OA
ATOM     23  C   UNL     1       0.650  10.244  18.329  0.00  0.00    +0.000 C 
ENDBRANCH  16  22
ENDBRANCH   1  12
BRANCH   3  24
ATOM     24  N   UNL     1      -3.512  15.020  25.337  0.00  0.00    +0.000 N 
ATOM     25  H   UNL     1      -3.579  16.032  25.313  0.00  0.00    +0.000 HD
ATOM     26  H   UNL     1      -2.777  14.668  25.954  0.00  0.00    +0.000 HD
ENDBRANCH   3  24
BRANCH   2  27
ATOM     27  C   UNL     1      -1.262  14.865  23.631  0.00  0.00    +0.000 C 
ATOM     28  N   UNL     1      -0.242  15.318  23.949  0.00  0.00    +0.000 NA
ENDBRANCH   2  27
BRANCH   7  29
ATOM     29  O   UNL     1      -7.882  11.748  20.821  0.00  0.00    +0.000 OA
ATOM     30  H   UNL     1      -8.226  12.243  20.059  0.00  0.00    +0.000 HD
ENDBRANCH   7  29
TORSDOF 6
ENDMDL
MODEL 7
REMARK VINA RESULT:      -5.8      2.750      4.605
REMARK  Name = 
REMARK  8 active torsions:
REMARK  status: ('A' for Active; 'I' for Inactive)
REMARK    1  A    between atoms: C_1  and  O_2
REMARK    2  A    between atoms: O_2  and  C_3
REMARK    3  A    between atoms: C_4  and  C_5
REMARK    4  A    between atoms: C_6  and  C_7
REMARK    5  A    between atoms: C_9  and  N_10
REMARK    6  A    between atoms: C_14  and  O_15
REMARK    7  A    between atoms: C_22  and  O_23
REMARK    8  A    between atoms: O_23  and  C_24
REMARK                            x       y       z     vdW  Elec       q    Type
REMARK                         _______ _______ _______ _____ _____    ______ ____
ROOT
ATOM      1  C   UNL     1      -1.626  11.247  19.631  0.00  0.00    +0.000 C 
ATOM      2  C   UNL     1      -0.292  10.545  19.733  0.00  0.00    +0.000 C 
ATOM      3  C   UNL     1       0.185   9.804  18.713  0.00  0.00    +0.000 C 
ATOM      4  O   UNL     1      -0.474   9.689  17.492  0.00  0.00    +0.000 OA
ATOM      5  C   UNL     1      -1.715  10.255  17.323  0.00  0.00    +0.000 A 
ATOM      6  C   UNL     1      -2.368  10.038  16.109  0.00  0.00    +0.000 A 
ATOM      7  C   UNL     1      -3.638  10.581  15.904  0.00  0.00    +0.000 A 
ATOM      8  C   UNL     1      -4.270  11.329  16.887  0.00  0.00    +0.000 A 
ATOM      9  C   UNL     1      -3.621  11.542  18.095  0.00  0.00    +0.000 A 
ATOM     10  C   UNL     1      -2.332  11.018  18.311  0.00  0.00    +0.000 A 
ENDROOT
BRANCH   1  12
ATOM     11  C   UNL     1      -0.734  13.688  19.344  0.00  0.00    +0.000 A 
ATOM     12  C   UNL     1      -1.544  12.724  20.002  0.00  0.00    +0.000 A 
ATOM     13  C   UNL     1      -2.394  13.151  21.057  0.00  0.00    +0.000 A 
ATOM     14  C   UNL     1      -2.401  14.469  21.439  0.00  0.00    +0.000 A 
ATOM     15  C   UNL     1      -1.627  15.408  20.812  0.00  0.00    +0.000 A 
ATOM     16  C   UNL     1      -0.787  15.057  19.762  0.00  0.00    +0.000 A 
ATOM     17  O   UNL     1      -1.829  16.641  21.362  0.00  0.00    +0.000 OA
ATOM     18  C   UNL     1      -2.830  16.366  22.358  0.00  0.00    +0.000 C 
ATOM     19  O   UNL     1      -3.162  14.972  22.448  0.00  0.00    +0.000 OA
BRANCH  11  21
ATOM     20  C   UNL     1       1.486  13.231  18.367  0.00  0.00    +0.000 C 
ATOM     21  O   UNL     1       0.100  13.497  18.269  0.00  0.00    +0.000 OA
ENDBRANCH  11  21
BRANCH  16  22
ATOM     22  O   UNL     1       0.017  15.923  19.059  0.00  0.00    +0.000 OA
ATOM     23  C   UNL     1      -0.613  16.897  18.239  0.00  0.00    +0.000 C 
ENDBRANCH  16  22
ENDBRANCH   1  12
BRANCH   3  24
ATOM     24  N   UNL     1       1.352   9.076  18.776  0.00  0.00    +0.000 N 
ATOM     25  H   UNL     1       2.216   9.602  18.848  0.00  0.00    +0.000 HD
ATOM     26  H   UNL     1       1.388   8.312  18.098  0.00  0.00    +0.000 HD
ENDBRANCH   3  24
BRANCH   2  27
ATOM     27  C   UNL     1       0.442  10.622  20.961  0.00  0.00    +0.000 C 
ATOM     28  N   UNL     1       1.068  10.693  21.936  0.00  0.00    +0.000 NA
ENDBRANCH   2  27
BRANCH   7  29
ATOM     29  O   UNL     1      -4.316  10.398  14.735  0.00  0.00    +0.000 OA
ATOM     30  H   UNL     1      -4.049   9.548  14.348  0.00  0.00    +0.000 HD
ENDBRANCH   7  29
TORSDOF 6
ENDMDL
MODEL 8
REMARK VINA RESULT:      -5.8      4.317      6.900
REMARK  Name = 
REMARK  8 active torsions:
REMARK  status: ('A' for Active; 'I' for Inactive)
REMARK    1  A    between atoms: C_1  and  O_2
REMARK    2  A    between atoms: O_2  and  C_3
REMARK    3  A    between atoms: C_4  and  C_5
REMARK    4  A    between atoms: C_6  and  C_7
REMARK    5  A    between atoms: C_9  and  N_10
REMARK    6  A    between atoms: C_14  and  O_15
REMARK    7  A    between atoms: C_22  and  O_23
REMARK    8  A    between atoms: O_23  and  C_24
REMARK                            x       y       z     vdW  Elec       q    Type
REMARK                         _______ _______ _______ _____ _____    ______ ____
ROOT
ATOM      1  C   UNL     1      -2.241  13.514  21.937  0.00  0.00    +0.000 C 
ATOM      2  C   UNL     1      -1.919  14.474  20.816  0.00  0.00    +0.000 C 
ATOM      3  C   UNL     1      -0.931  14.214  19.938  0.00  0.00    +0.000 C 
ATOM      4  O   UNL     1      -0.195  13.032  19.960  0.00  0.00    +0.000 OA
ATOM      5  C   UNL     1      -0.387  12.119  20.970  0.00  0.00    +0.000 A 
ATOM      6  C   UNL     1       0.435  10.991  20.991  0.00  0.00    +0.000 A 
ATOM      7  C   UNL     1       0.284  10.050  22.010  0.00  0.00    +0.000 A 
ATOM      8  C   UNL     1      -0.665  10.214  23.010  0.00  0.00    +0.000 A 
ATOM      9  C   UNL     1      -1.480  11.336  22.988  0.00  0.00    +0.000 A 
ATOM     10  C   UNL     1      -1.354  12.287  21.957  0.00  0.00    +0.000 A 
ENDROOT
BRANCH   1  12
ATOM     11  C   UNL     1      -4.575  13.425  23.112  0.00  0.00    +0.000 A 
ATOM     12  C   UNL     1      -3.725  13.165  22.005  0.00  0.00    +0.000 A 
ATOM     13  C   UNL     1      -4.283  12.582  20.835  0.00  0.00    +0.000 A 
ATOM     14  C   UNL     1      -5.616  12.259  20.802  0.00  0.00    +0.000 A 
ATOM     15  C   UNL     1      -6.447  12.507  21.861  0.00  0.00    +0.000 A 
ATOM     16  C   UNL     1      -5.965  13.091  23.027  0.00  0.00    +0.000 A 
ATOM     17  O   UNL     1      -7.723  12.115  21.573  0.00  0.00    +0.000 OA
ATOM     18  C   UNL     1      -7.593  11.641  20.221  0.00  0.00    +0.000 C 
ATOM     19  O   UNL     1      -6.241  11.682  19.741  0.00  0.00    +0.000 OA
BRANCH  11  21
ATOM     20  C   UNL     1      -3.942  15.410  24.434  0.00  0.00    +0.000 C 
ATOM     21  O   UNL     1      -4.251  14.037  24.299  0.00  0.00    +0.000 OA
ENDBRANCH  11  21
BRANCH  16  22
ATOM     22  O   UNL     1      -6.717  13.394  24.138  0.00  0.00    +0.000 OA
ATOM     23  C   UNL     1      -7.705  14.407  24.016  0.00  0.00    +0.000 C 
ENDBRANCH  16  22
ENDBRANCH   1  12
BRANCH   3  24
ATOM     24  N   UNL     1      -0.536  15.086  18.947  0.00  0.00    +0.000 N 
ATOM     25  H   UNL     1      -0.608  16.076  19.156  0.00  0.00    +0.000 HD
ATOM     26  H   UNL     1      -0.886  14.831  18.022  0.00  0.00    +0.000 HD
ENDBRANCH   3  24
BRANCH   2  27
ATOM     27  C   UNL     1      -2.638  15.711  20.733  0.00  0.00    +0.000 C 
ATOM     28  N   UNL     1      -3.191  16.727  20.644  0.00  0.00    +0.000 NA
ENDBRANCH   2  27
BRANCH   7  29
ATOM     29  O   UNL     1       1.062   8.932  22.075  0.00  0.00    +0.000 OA
ATOM     30  H   UNL     1       0.756   8.380  22.813  0.00  0.00    +0.000 HD
ENDBRANCH   7  29
TORSDOF 6
ENDMDL
MODEL 9
REMARK VINA RESULT:      -5.8      8.156      9.725
REMARK  Name = 
REMARK  8 active torsions:
REMARK  status: ('A' for Active; 'I' for Inactive)
REMARK    1  A    between atoms: C_1  and  O_2
REMARK    2  A    between atoms: O_2  and  C_3
REMARK    3  A    between atoms: C_4  and  C_5
REMARK    4  A    between atoms: C_6  and  C_7
REMARK    5  A    between atoms: C_9  and  N_10
REMARK    6  A    between atoms: C_14  and  O_15
REMARK    7  A    between atoms: C_22  and  O_23
REMARK    8  A    between atoms: O_23  and  C_24
REMARK                            x       y       z     vdW  Elec       q    Type
REMARK                         _______ _______ _______ _____ _____    ______ ____
ROOT
ATOM      1  C   UNL     1      10.535  14.356  19.962  0.00  0.00    +0.000 C 
ATOM      2  C   UNL     1      10.895  15.117  18.707  0.00  0.00    +0.000 C 
ATOM      3  C   UNL     1      10.817  14.537  17.494  0.00  0.00    +0.000 C 
ATOM      4  O   UNL     1      10.345  13.240  17.307  0.00  0.00    +0.000 OA
ATOM      5  C   UNL     1      10.037  12.456  18.394  0.00  0.00    +0.000 A 
ATOM      6  C   UNL     1       9.648  11.137  18.154  0.00  0.00    +0.000 A 
ATOM      7  C   UNL     1       9.344  10.303  19.230  0.00  0.00    +0.000 A 
ATOM      8  C   UNL     1       9.426  10.756  20.540  0.00  0.00    +0.000 A 
ATOM      9  C   UNL     1       9.815  12.067  20.778  0.00  0.00    +0.000 A 
ATOM     10  C   UNL     1      10.107  12.928  19.702  0.00  0.00    +0.000 A 
ENDROOT
BRANCH   1  12
ATOM     11  C   UNL     1       8.178  15.331  20.539  0.00  0.00    +0.000 A 
ATOM     12  C   UNL     1       9.548  15.112  20.846  0.00  0.00    +0.000 A 
ATOM     13  C   UNL     1      10.052  15.574  22.090  0.00  0.00    +0.000 A 
ATOM     14  C   UNL     1       9.225  16.242  22.958  0.00  0.00    +0.000 A 
ATOM     15  C   UNL     1       7.903  16.459  22.674  0.00  0.00    +0.000 A 
ATOM     16  C   UNL     1       7.345  16.016  21.481  0.00  0.00    +0.000 A 
ATOM     17  O   UNL     1       7.295  17.124  23.700  0.00  0.00    +0.000 OA
ATOM     18  C   UNL     1       8.367  17.256  24.651  0.00  0.00    +0.000 C 
ATOM     19  O   UNL     1       9.615  16.741  24.161  0.00  0.00    +0.000 OA
BRANCH  11  21
ATOM     20  C   UNL     1       7.456  15.600  18.194  0.00  0.00    +0.000 C 
ATOM     21  O   UNL     1       7.485  14.911  19.429  0.00  0.00    +0.000 OA
ENDBRANCH  11  21
BRANCH  16  22
ATOM     22  O   UNL     1       6.031  16.169  21.109  0.00  0.00    +0.000 OA
ATOM     23  C   UNL     1       5.581  17.476  20.783  0.00  0.00    +0.000 C 
ENDBRANCH  16  22
ENDBRANCH   1  12
BRANCH   3  24
ATOM     24  N   UNL     1      11.209  15.150  16.324  0.00  0.00    +0.000 N 
ATOM     25  H   UNL     1      11.188  16.164  16.311  0.00  0.00    +0.000 HD
ATOM     26  H   UNL     1      10.811  14.716  15.488  0.00  0.00    +0.000 HD
ENDBRANCH   3  24
BRANCH   2  27
ATOM     27  C   UNL     1      11.389  16.457  18.825  0.00  0.00    +0.000 C 
ATOM     28  N   UNL     1      11.776  17.550  18.884  0.00  0.00    +0.000 NA
ENDBRANCH   2  27
BRANCH   7  29
ATOM     29  O   UNL     1       8.958   9.008  19.048  0.00  0.00    +0.000 OA
ATOM     30  H   UNL     1       8.172   8.836  19.592  0.00  0.00    +0.000 HD
ENDBRANCH   7  29
TORSDOF 6
ENDMDL
