MODEL 1
REMARK VINA RESULT:      -7.2      0.000      0.000
REMARK  Name = 
REMARK  4 active torsions:
REMARK  status: ('A' for Active; 'I' for Inactive)
REMARK    1  A    between atoms: C_2  and  O_3
REMARK    2  A    between atoms: C_2  and  C_12
REMARK    3  A    between atoms: O_3  and  C_4
REMARK    4  A    between atoms: C_4  and  C_5
REMARK                            x       y       z     vdW  Elec       q    Type
REMARK                         _______ _______ _______ _____ _____    ______ ____
ROOT
ATOM      1  O   UNL     1       6.475   4.429  18.689  0.00  0.00    +0.000 OA
ATOM      2  C   UNL     1       5.713   4.298  17.743  0.00  0.00    +0.000 C 
ENDROOT
BRANCH   2   3
ATOM      3  C   UNL     1       6.119   4.502  16.336  0.00  0.00    +0.000 A 
ATOM      4  C   UNL     1       5.506   3.864  15.253  0.00  0.00    +0.000 A 
ATOM      5  C   UNL     1       6.006   4.065  13.967  0.00  0.00    +0.000 A 
ATOM      6  C   UNL     1       7.100   4.902  13.815  0.00  0.00    +0.000 A 
ATOM      7 CL   UNL     1       7.786   5.181  12.270  0.00  0.00    +0.000 Cl
ATOM      8  N   UNL     1       7.711   5.546  14.831  0.00  0.00    +0.000 NA
ATOM      9  C   UNL     1       7.208   5.326  16.072  0.00  0.00    +0.000 A 
ENDBRANCH   2   3
BRANCH   2  10
ATOM     10  O   UNL     1       4.420   3.899  17.811  0.00  0.00    +0.000 OA
BRANCH  10  11
ATOM     11  C   UNL     1       4.245   2.502  18.081  0.00  0.00    +0.000 C 
BRANCH  11  12
ATOM     12  C   UNL     1       4.077   2.281  19.588  0.00  0.00    +0.000 C 
ATOM     13  O   UNL     1       5.024   1.922  20.294  0.00  0.00    +0.000 OA
ATOM     14  N   UNL     1       2.828   2.498  20.124  0.00  0.00    +0.000 N 
ATOM     15  C   UNL     1       1.608   2.865  19.432  0.00  0.00    +0.000 C 
ATOM     16  C   UNL     1       0.845   3.656  20.478  0.00  0.00    +0.000 C 
ATOM     17  C   UNL     1       1.201   2.953  21.785  0.00  0.00    +0.000 C 
ATOM     18  C   UNL     1       2.607   2.407  21.557  0.00  0.00    +0.000 C 
ENDBRANCH  11  12
ENDBRANCH  10  11
ENDBRANCH   2  10
TORSDOF 4
ENDMDL
MODEL 2
REMARK VINA RESULT:      -7.2      2.498      3.045
REMARK  Name = 
REMARK  4 active torsions:
REMARK  status: ('A' for Active; 'I' for Inactive)
REMARK    1  A    between atoms: C_2  and  O_3
REMARK    2  A    between atoms: C_2  and  C_12
REMARK    3  A    between atoms: O_3  and  C_4
REMARK    4  A    between atoms: C_4  and  C_5
REMARK                            x       y       z     vdW  Elec       q    Type
REMARK                         _______ _______ _______ _____ _____    ______ ____
ROOT
ATOM      1  O   UNL     1       6.323   3.616  15.930  0.00  0.00    +0.000 OA
ATOM      2  C   UNL     1       5.867   4.462  16.682  0.00  0.00    +0.000 C 
ENDROOT
BRANCH   2   3
ATOM      3  C   UNL     1       6.648   5.614  17.183  0.00  0.00    +0.000 A 
ATOM      4  C   UNL     1       7.507   5.546  18.285  0.00  0.00    +0.000 A 
ATOM      5  C   UNL     1       8.146   6.705  18.727  0.00  0.00    +0.000 A 
ATOM      6  C   UNL     1       7.902   7.885  18.045  0.00  0.00    +0.000 A 
ATOM      7 CL   UNL     1       8.633   9.354  18.541  0.00  0.00    +0.000 Cl
ATOM      8  N   UNL     1       7.093   7.990  16.970  0.00  0.00    +0.000 NA
ATOM      9  C   UNL     1       6.478   6.849  16.567  0.00  0.00    +0.000 A 
ENDBRANCH   2   3
BRANCH   2  10
ATOM     10  O   UNL     1       4.589   4.526  17.129  0.00  0.00    +0.000 OA
BRANCH  10  11
ATOM     11  C   UNL     1       4.024   3.260  17.492  0.00  0.00    +0.000 C 
BRANCH  11  12
ATOM     12  C   UNL     1       4.084   3.081  19.013  0.00  0.00    +0.000 C 
ATOM     13  O   UNL     1       5.156   3.132  19.624  0.00  0.00    +0.000 OA
ATOM     14  N   UNL     1       2.896   2.861  19.671  0.00  0.00    +0.000 N 
ATOM     15  C   UNL     1       1.570   2.720  19.102  0.00  0.00    +0.000 C 
ATOM     16  C   UNL     1       0.666   3.241  20.204  0.00  0.00    +0.000 C 
ATOM     17  C   UNL     1       1.369   2.792  21.482  0.00  0.00    +0.000 C 
ATOM     18  C   UNL     1       2.852   2.781  21.120  0.00  0.00    +0.000 C 
ENDBRANCH  11  12
ENDBRANCH  10  11
ENDBRANCH   2  10
TORSDOF 4
ENDMDL
MODEL 3
REMARK VINA RESULT:      -7.0      1.105      1.299
REMARK  Name = 
REMARK  4 active torsions:
REMARK  status: ('A' for Active; 'I' for Inactive)
REMARK    1  A    between atoms: C_2  and  O_3
REMARK    2  A    between atoms: C_2  and  C_12
REMARK    3  A    between atoms: O_3  and  C_4
REMARK    4  A    between atoms: C_4  and  C_5
REMARK                            x       y       z     vdW  Elec       q    Type
REMARK                         _______ _______ _______ _____ _____    ______ ____
ROOT
ATOM      1  O   UNL     1       7.617   4.450  18.280  0.00  0.00    +0.000 OA
ATOM      2  C   UNL     1       6.652   4.703  17.577  0.00  0.00    +0.000 C 
ENDROOT
BRANCH   2   3
ATOM      3  C   UNL     1       6.673   4.616  16.100  0.00  0.00    +0.000 A 
ATOM      4  C   UNL     1       5.846   3.763  15.363  0.00  0.00    +0.000 A 
ATOM      5  C   UNL     1       5.990   3.699  13.977  0.00  0.00    +0.000 A 
ATOM      6  C   UNL     1       6.956   4.495  13.384  0.00  0.00    +0.000 A 
ATOM      7 CL   UNL     1       7.209   4.455  11.689  0.00  0.00    +0.000 Cl
ATOM      8  N   UNL     1       7.764   5.340  14.057  0.00  0.00    +0.000 NA
ATOM      9  C   UNL     1       7.607   5.376  15.405  0.00  0.00    +0.000 A 
ENDBRANCH   2   3
BRANCH   2  10
ATOM     10  O   UNL     1       5.414   5.040  18.014  0.00  0.00    +0.000 OA
BRANCH  10  11
ATOM     11  C   UNL     1       5.221   4.884  19.425  0.00  0.00    +0.000 C 
BRANCH  11  12
ATOM     12  C   UNL     1       4.446   3.592  19.705  0.00  0.00    +0.000 C 
ATOM     13  O   UNL     1       5.028   2.515  19.864  0.00  0.00    +0.000 OA
ATOM     14  N   UNL     1       3.074   3.680  19.771  0.00  0.00    +0.000 N 
ATOM     15  C   UNL     1       2.240   4.846  19.556  0.00  0.00    +0.000 C 
ATOM     16  C   UNL     1       1.037   4.575  20.441  0.00  0.00    +0.000 C 
ATOM     17  C   UNL     1       0.860   3.062  20.347  0.00  0.00    +0.000 C 
ATOM     18  C   UNL     1       2.271   2.524  20.129  0.00  0.00    +0.000 C 
ENDBRANCH  11  12
ENDBRANCH  10  11
ENDBRANCH   2  10
TORSDOF 4
ENDMDL
MODEL 4
REMARK VINA RESULT:      -7.0      2.544      3.313
REMARK  Name = 
REMARK  4 active torsions:
REMARK  status: ('A' for Active; 'I' for Inactive)
REMARK    1  A    between atoms: C_2  and  O_3
REMARK    2  A    between atoms: C_2  and  C_12
REMARK    3  A    between atoms: O_3  and  C_4
REMARK    4  A    between atoms: C_4  and  C_5
REMARK                            x       y       z     vdW  Elec       q    Type
REMARK                         _______ _______ _______ _____ _____    ______ ____
ROOT
ATOM      1  O   UNL     1       5.927   3.637  15.061  0.00  0.00    +0.000 OA
ATOM      2  C   UNL     1       5.755   3.992  16.216  0.00  0.00    +0.000 C 
ENDROOT
BRANCH   2   3
ATOM      3  C   UNL     1       6.525   5.081  16.857  0.00  0.00    +0.000 A 
ATOM      4  C   UNL     1       7.216   4.934  18.064  0.00  0.00    +0.000 A 
ATOM      5  C   UNL     1       7.854   6.040  18.627  0.00  0.00    +0.000 A 
ATOM      6  C   UNL     1       7.777   7.249  17.955  0.00  0.00    +0.000 A 
ATOM      7 CL   UNL     1       8.515   8.657  18.594  0.00  0.00    +0.000 Cl
ATOM      8  N   UNL     1       7.133   7.429  16.784  0.00  0.00    +0.000 NA
ATOM      9  C   UNL     1       6.515   6.338  16.263  0.00  0.00    +0.000 A 
ENDBRANCH   2   3
BRANCH   2  10
ATOM     10  O   UNL     1       4.820   3.508  17.068  0.00  0.00    +0.000 OA
BRANCH  10  11
ATOM     11  C   UNL     1       3.819   4.459  17.452  0.00  0.00    +0.000 C 
BRANCH  11  12
ATOM     12  C   UNL     1       2.518   3.731  17.805  0.00  0.00    +0.000 C 
ATOM     13  O   UNL     1       1.821   3.202  16.934  0.00  0.00    +0.000 OA
ATOM     14  N   UNL     1       2.157   3.690  19.133  0.00  0.00    +0.000 N 
ATOM     15  C   UNL     1       2.828   4.301  20.263  0.00  0.00    +0.000 C 
ATOM     16  C   UNL     1       2.486   3.368  21.411  0.00  0.00    +0.000 C 
ATOM     17  C   UNL     1       1.065   2.914  21.087  0.00  0.00    +0.000 C 
ATOM     18  C   UNL     1       0.992   2.936  19.564  0.00  0.00    +0.000 C 
ENDBRANCH  11  12
ENDBRANCH  10  11
ENDBRANCH   2  10
TORSDOF 4
ENDMDL
MODEL 5
REMARK VINA RESULT:      -6.9      3.244      7.198
REMARK  Name = 
REMARK  4 active torsions:
REMARK  status: ('A' for Active; 'I' for Inactive)
REMARK    1  A    between atoms: C_2  and  O_3
REMARK    2  A    between atoms: C_2  and  C_12
REMARK    3  A    between atoms: O_3  and  C_4
REMARK    4  A    between atoms: C_4  and  C_5
REMARK                            x       y       z     vdW  Elec       q    Type
REMARK                         _______ _______ _______ _____ _____    ______ ____
ROOT
ATOM      1  O   UNL     1       6.336   5.786  18.873  0.00  0.00    +0.000 OA
ATOM      2  C   UNL     1       5.358   5.227  18.402  0.00  0.00    +0.000 C 
ENDROOT
BRANCH   2   3
ATOM      3  C   UNL     1       4.284   4.631  19.225  0.00  0.00    +0.000 A 
ATOM      4  C   UNL     1       3.242   5.372  19.792  0.00  0.00    +0.000 A 
ATOM      5  C   UNL     1       2.315   4.731  20.614  0.00  0.00    +0.000 A 
ATOM      6  C   UNL     1       2.467   3.371  20.833  0.00  0.00    +0.000 A 
ATOM      7 CL   UNL     1       1.382   2.518  21.849  0.00  0.00    +0.000 Cl
ATOM      8  N   UNL     1       3.448   2.619  20.294  0.00  0.00    +0.000 NA
ATOM      9  C   UNL     1       4.340   3.270  19.505  0.00  0.00    +0.000 A 
ENDBRANCH   2   3
BRANCH   2  10
ATOM     10  O   UNL     1       5.066   5.109  17.084  0.00  0.00    +0.000 OA
BRANCH  10  11
ATOM     11  C   UNL     1       5.877   4.159  16.380  0.00  0.00    +0.000 C 
BRANCH  11  12
ATOM     12  C   UNL     1       6.822   4.892  15.422  0.00  0.00    +0.000 C 
ATOM     13  O   UNL     1       7.664   5.693  15.837  0.00  0.00    +0.000 OA
ATOM     14  N   UNL     1       6.695   4.621  14.078  0.00  0.00    +0.000 N 
ATOM     15  C   UNL     1       5.731   3.756  13.426  0.00  0.00    +0.000 C 
ATOM     16  C   UNL     1       6.480   3.270  12.199  0.00  0.00    +0.000 C 
ATOM     17  C   UNL     1       7.325   4.477  11.799  0.00  0.00    +0.000 C 
ATOM     18  C   UNL     1       7.616   5.195  13.113  0.00  0.00    +0.000 C 
ENDBRANCH  11  12
ENDBRANCH  10  11
ENDBRANCH   2  10
TORSDOF 4
ENDMDL
MODEL 6
REMARK VINA RESULT:      -6.9      0.876      1.003
REMARK  Name = 
REMARK  4 active torsions:
REMARK  status: ('A' for Active; 'I' for Inactive)
REMARK    1  A    between atoms: C_2  and  O_3
REMARK    2  A    between atoms: C_2  and  C_12
REMARK    3  A    between atoms: O_3  and  C_4
REMARK    4  A    between atoms: C_4  and  C_5
REMARK                            x       y       z     vdW  Elec       q    Type
REMARK                         _______ _______ _______ _____ _____    ______ ____
ROOT
ATOM      1  O   UNL     1       4.101   6.210  18.175  0.00  0.00    +0.000 OA
ATOM      2  C   UNL     1       4.906   5.339  17.884  0.00  0.00    +0.000 C 
ENDROOT
BRANCH   2   3
ATOM      3  C   UNL     1       5.539   5.226  16.552  0.00  0.00    +0.000 A 
ATOM      4  C   UNL     1       4.951   4.567  15.469  0.00  0.00    +0.000 A 
ATOM      5  C   UNL     1       5.659   4.450  14.272  0.00  0.00    +0.000 A 
ATOM      6  C   UNL     1       6.927   5.003  14.207  0.00  0.00    +0.000 A 
ATOM      7 CL   UNL     1       7.867   4.881  12.780  0.00  0.00    +0.000 Cl
ATOM      8  N   UNL     1       7.525   5.658  15.224  0.00  0.00    +0.000 NA
ATOM      9  C   UNL     1       6.816   5.749  16.378  0.00  0.00    +0.000 A 
ENDBRANCH   2   3
BRANCH   2  10
ATOM     10  O   UNL     1       5.389   4.390  18.721  0.00  0.00    +0.000 OA
BRANCH  10  11
ATOM     11  C   UNL     1       4.829   3.085  18.524  0.00  0.00    +0.000 C 
BRANCH  11  12
ATOM     12  C   UNL     1       4.373   2.507  19.867  0.00  0.00    +0.000 C 
ATOM     13  O   UNL     1       5.147   1.872  20.590  0.00  0.00    +0.000 OA
ATOM     14  N   UNL     1       3.065   2.723  20.237  0.00  0.00    +0.000 N 
ATOM     15  C   UNL     1       2.022   3.395  19.488  0.00  0.00    +0.000 C 
ATOM     16  C   UNL     1       1.137   3.976  20.576  0.00  0.00    +0.000 C 
ATOM     17  C   UNL     1       1.197   2.925  21.681  0.00  0.00    +0.000 C 
ATOM     18  C   UNL     1       2.580   2.296  21.538  0.00  0.00    +0.000 C 
ENDBRANCH  11  12
ENDBRANCH  10  11
ENDBRANCH   2  10
TORSDOF 4
ENDMDL
MODEL 7
REMARK VINA RESULT:      -6.9      2.803      3.468
REMARK  Name = 
REMARK  4 active torsions:
REMARK  status: ('A' for Active; 'I' for Inactive)
REMARK    1  A    between atoms: C_2  and  O_3
REMARK    2  A    between atoms: C_2  and  C_12
REMARK    3  A    between atoms: O_3  and  C_4
REMARK    4  A    between atoms: C_4  and  C_5
REMARK                            x       y       z     vdW  Elec       q    Type
REMARK                         _______ _______ _______ _____ _____    ______ ____
ROOT
ATOM      1  O   UNL     1       5.492   3.655  19.051  0.00  0.00    +0.000 OA
ATOM      2  C   UNL     1       5.366   4.558  18.239  0.00  0.00    +0.000 C 
ENDROOT
BRANCH   2   3
ATOM      3  C   UNL     1       6.297   5.703  18.142  0.00  0.00    +0.000 A 
ATOM      4  C   UNL     1       7.432   5.847  18.945  0.00  0.00    +0.000 A 
ATOM      5  C   UNL     1       8.210   7.000  18.830  0.00  0.00    +0.000 A 
ATOM      6  C   UNL     1       7.821   7.961  17.911  0.00  0.00    +0.000 A 
ATOM      7 CL   UNL     1       8.712   9.413  17.728  0.00  0.00    +0.000 Cl
ATOM      8  N   UNL     1       6.742   7.854  17.109  0.00  0.00    +0.000 NA
ATOM      9  C   UNL     1       5.999   6.726  17.249  0.00  0.00    +0.000 A 
ENDBRANCH   2   3
BRANCH   2  10
ATOM     10  O   UNL     1       4.416   4.636  17.276  0.00  0.00    +0.000 OA
BRANCH  10  11
ATOM     11  C   UNL     1       3.177   5.211  17.710  0.00  0.00    +0.000 C 
BRANCH  11  12
ATOM     12  C   UNL     1       2.184   4.098  18.063  0.00  0.00    +0.000 C 
ATOM     13  O   UNL     1       1.665   3.399  17.189  0.00  0.00    +0.000 OA
ATOM     14  N   UNL     1       1.894   3.910  19.396  0.00  0.00    +0.000 N 
ATOM     15  C   UNL     1       2.371   4.672  20.533  0.00  0.00    +0.000 C 
ATOM     16  C   UNL     1       2.376   3.649  21.654  0.00  0.00    +0.000 C 
ATOM     17  C   UNL     1       1.162   2.776  21.344  0.00  0.00    +0.000 C 
ATOM     18  C   UNL     1       1.041   2.814  19.823  0.00  0.00    +0.000 C 
ENDBRANCH  11  12
ENDBRANCH  10  11
ENDBRANCH   2  10
TORSDOF 4
ENDMDL
MODEL 8
REMARK VINA RESULT:      -6.9      1.514      2.139
REMARK  Name = 
REMARK  4 active torsions:
REMARK  status: ('A' for Active; 'I' for Inactive)
REMARK    1  A    between atoms: C_2  and  O_3
REMARK    2  A    between atoms: C_2  and  C_12
REMARK    3  A    between atoms: O_3  and  C_4
REMARK    4  A    between atoms: C_4  and  C_5
REMARK                            x       y       z     vdW  Elec       q    Type
REMARK                         _______ _______ _______ _____ _____    ______ ____
ROOT
ATOM      1  O   UNL     1       6.394   3.954  18.666  0.00  0.00    +0.000 OA
ATOM      2  C   UNL     1       5.833   4.688  17.869  0.00  0.00    +0.000 C 
ENDROOT
BRANCH   2   3
ATOM      3  C   UNL     1       6.130   4.698  16.420  0.00  0.00    +0.000 A 
ATOM      4  C   UNL     1       5.376   4.002  15.471  0.00  0.00    +0.000 A 
ATOM      5  C   UNL     1       5.778   4.013  14.135  0.00  0.00    +0.000 A 
ATOM      6  C   UNL     1       6.919   4.725  13.803  0.00  0.00    +0.000 A 
ATOM      7 CL   UNL     1       7.489   4.768  12.187  0.00  0.00    +0.000 Cl
ATOM      8  N   UNL     1       7.666   5.420  14.685  0.00  0.00    +0.000 NA
ATOM      9  C   UNL     1       7.256   5.385  15.979  0.00  0.00    +0.000 A 
ENDBRANCH   2   3
BRANCH   2  10
ATOM     10  O   UNL     1       4.829   5.553  18.153  0.00  0.00    +0.000 OA
BRANCH  10  11
ATOM     11  C   UNL     1       4.452   5.591  19.535  0.00  0.00    +0.000 C 
BRANCH  11  12
ATOM     12  C   UNL     1       2.930   5.464  19.662  0.00  0.00    +0.000 C 
ATOM     13  O   UNL     1       2.205   6.460  19.728  0.00  0.00    +0.000 OA
ATOM     14  N   UNL     1       2.404   4.193  19.701  0.00  0.00    +0.000 N 
ATOM     15  C   UNL     1       3.113   2.928  19.690  0.00  0.00    +0.000 C 
ATOM     16  C   UNL     1       2.130   1.989  19.014  0.00  0.00    +0.000 C 
ATOM     17  C   UNL     1       0.772   2.486  19.503  0.00  0.00    +0.000 C 
ATOM     18  C   UNL     1       0.967   3.983  19.720  0.00  0.00    +0.000 C 
ENDBRANCH  11  12
ENDBRANCH  10  11
ENDBRANCH   2  10
TORSDOF 4
ENDMDL
MODEL 9
REMARK VINA RESULT:      -6.9      2.548      3.275
REMARK  Name = 
REMARK  4 active torsions:
REMARK  status: ('A' for Active; 'I' for Inactive)
REMARK    1  A    between atoms: C_2  and  O_3
REMARK    2  A    between atoms: C_2  and  C_12
REMARK    3  A    between atoms: O_3  and  C_4
REMARK    4  A    between atoms: C_4  and  C_5
REMARK                            x       y       z     vdW  Elec       q    Type
REMARK                         _______ _______ _______ _____ _____    ______ ____
ROOT
ATOM      1  O   UNL     1       5.989   3.683  15.002  0.00  0.00    +0.000 OA
ATOM      2  C   UNL     1       5.873   3.942  16.189  0.00  0.00    +0.000 C 
ENDROOT
BRANCH   2   3
ATOM      3  C   UNL     1       6.607   5.037  16.860  0.00  0.00    +0.000 A 
ATOM      4  C   UNL     1       7.198   4.913  18.121  0.00  0.00    +0.000 A 
ATOM      5  C   UNL     1       7.807   6.025  18.704  0.00  0.00    +0.000 A 
ATOM      6  C   UNL     1       7.802   7.217  17.997  0.00  0.00    +0.000 A 
ATOM      7 CL   UNL     1       8.510   8.632  18.656  0.00  0.00    +0.000 Cl
ATOM      8  N   UNL     1       7.256   7.374  16.774  0.00  0.00    +0.000 NA
ATOM      9  C   UNL     1       6.663   6.278  16.235  0.00  0.00    +0.000 A 
ENDBRANCH   2   3
BRANCH   2  10
ATOM     10  O   UNL     1       5.036   3.329  17.060  0.00  0.00    +0.000 OA
BRANCH  10  11
ATOM     11  C   UNL     1       3.678   3.786  16.998  0.00  0.00    +0.000 C 
BRANCH  11  12
ATOM     12  C   UNL     1       3.361   4.644  18.227  0.00  0.00    +0.000 C 
ATOM     13  O   UNL     1       3.497   5.870  18.207  0.00  0.00    +0.000 OA
ATOM     14  N   UNL     1       2.920   3.991  19.356  0.00  0.00    +0.000 N 
ATOM     15  C   UNL     1       2.759   2.565  19.562  0.00  0.00    +0.000 C 
ATOM     16  C   UNL     1       1.624   2.489  20.566  0.00  0.00    +0.000 C 
ATOM     17  C   UNL     1       1.851   3.711  21.452  0.00  0.00    +0.000 C 
ATOM     18  C   UNL     1       2.503   4.737  20.531  0.00  0.00    +0.000 C 
ENDBRANCH  11  12
ENDBRANCH  10  11
ENDBRANCH   2  10
TORSDOF 4
ENDMDL
