MODEL 1
REMARK VINA RESULT:      -8.1      0.000      0.000
REMARK  Name = 
REMARK  4 active torsions:
REMARK  status: ('A' for Active; 'I' for Inactive)
REMARK    1  A    between atoms: C_2  and  C_3
REMARK    2  A    between atoms: C_2  and  C_11
REMARK    3  A    between atoms: C_13  and  C_14
REMARK    4  A    between atoms: C_14  and  N_15
REMARK                            x       y       z     vdW  Elec       q    Type
REMARK                         _______ _______ _______ _____ _____    ______ ____
ROOT
ATOM      1  C   UNL     1       3.194   5.524  19.654  0.00  0.00    +0.000 A 
ATOM      2  N   UNL     1       4.476   5.870  19.614  0.00  0.00    +0.000 NA
ATOM      3  C   UNL     1       5.151   4.816  19.019  0.00  0.00    +0.000 A 
ATOM      4  C   UNL     1       4.266   3.794  18.751  0.00  0.00    +0.000 A 
ATOM      5  C   UNL     1       4.343   2.488  18.197  0.00  0.00    +0.000 A 
ATOM      6  C   UNL     1       3.212   1.877  17.789  0.00  0.00    +0.000 A 
ATOM      7  C   UNL     1       1.915   2.517  17.935  0.00  0.00    +0.000 A 
ATOM      8  C   UNL     1       1.834   3.685  18.593  0.00  0.00    +0.000 A 
ATOM      9  N   UNL     1       3.004   4.308  19.026  0.00  0.00    +0.000 N 
ENDROOT
BRANCH   1  11
ATOM     10  O   UNL     1       1.303   5.952  21.009  0.00  0.00    +0.000 OA
ATOM     11  C   UNL     1       2.124   6.362  20.185  0.00  0.00    +0.000 C 
BRANCH  11  12
ATOM     12  C   UNL     1       1.924   7.722  19.603  0.00  0.00    +0.000 A 
ATOM     13  C   UNL     1       2.200   7.885  18.230  0.00  0.00    +0.000 A 
ATOM     14  C   UNL     1       1.953   9.089  17.583  0.00  0.00    +0.000 A 
ATOM     15  C   UNL     1       1.399  10.147  18.293  0.00  0.00    +0.000 A 
ATOM     16  C   UNL     1       1.106  10.003  19.655  0.00  0.00    +0.000 A 
ATOM     17 CL   UNL     1       0.392  11.374  20.439  0.00  0.00    +0.000 Cl
ATOM     18  C   UNL     1       1.373   8.794  20.327  0.00  0.00    +0.000 A 
ATOM     19 CL   UNL     1       1.056   8.676  22.029  0.00  0.00    +0.000 Cl
ENDBRANCH  11  12
ENDBRANCH   1  11
BRANCH   3  20
ATOM     20  C   UNL     1       6.621   4.895  18.747  0.00  0.00    +0.000 C 
BRANCH  20  21
ATOM     21  N   UNL     1       6.980   5.433  17.432  0.00  0.00    +0.000 NA
ATOM     22  C   UNL     1       6.448   6.756  17.098  0.00  0.00    +0.000 C 
ATOM     23  C   UNL     1       5.161   6.708  16.263  0.00  0.00    +0.000 C 
ATOM     24  O   UNL     1       5.382   5.988  15.046  0.00  0.00    +0.000 OA
ATOM     25  C   UNL     1       5.746   4.634  15.331  0.00  0.00    +0.000 C 
ATOM     26  C   UNL     1       6.955   4.523  16.283  0.00  0.00    +0.000 C 
ENDBRANCH  20  21
ENDBRANCH   3  20
TORSDOF 4
ENDMDL
MODEL 2
REMARK VINA RESULT:      -7.6      1.495      2.064
REMARK  Name = 
REMARK  4 active torsions:
REMARK  status: ('A' for Active; 'I' for Inactive)
REMARK    1  A    between atoms: C_2  and  C_3
REMARK    2  A    between atoms: C_2  and  C_11
REMARK    3  A    between atoms: C_13  and  C_14
REMARK    4  A    between atoms: C_14  and  N_15
REMARK                            x       y       z     vdW  Elec       q    Type
REMARK                         _______ _______ _______ _____ _____    ______ ____
ROOT
ATOM      1  C   UNL     1       2.858   6.566  18.821  0.00  0.00    +0.000 A 
ATOM      2  N   UNL     1       3.715   7.183  18.016  0.00  0.00    +0.000 NA
ATOM      3  C   UNL     1       4.189   6.225  17.134  0.00  0.00    +0.000 A 
ATOM      4  C   UNL     1       3.650   4.997  17.454  0.00  0.00    +0.000 A 
ATOM      5  C   UNL     1       3.762   3.668  16.966  0.00  0.00    +0.000 A 
ATOM      6  C   UNL     1       2.837   2.754  17.323  0.00  0.00    +0.000 A 
ATOM      7  C   UNL     1       1.748   3.095  18.222  0.00  0.00    +0.000 A 
ATOM      8  C   UNL     1       1.732   4.309  18.796  0.00  0.00    +0.000 A 
ATOM      9  N   UNL     1       2.698   5.249  18.435  0.00  0.00    +0.000 N 
ENDROOT
BRANCH   1  11
ATOM     10  O   UNL     1       1.863   6.662  20.965  0.00  0.00    +0.000 OA
ATOM     11  C   UNL     1       2.108   7.216  19.890  0.00  0.00    +0.000 C 
BRANCH  11  12
ATOM     12  C   UNL     1       1.488   8.547  19.622  0.00  0.00    +0.000 A 
ATOM     13  C   UNL     1       1.211   8.873  18.280  0.00  0.00    +0.000 A 
ATOM     14  C   UNL     1       0.550  10.049  17.945  0.00  0.00    +0.000 A 
ATOM     15  C   UNL     1       0.128  10.908  18.951  0.00  0.00    +0.000 A 
ATOM     16  C   UNL     1       0.383  10.598  20.293  0.00  0.00    +0.000 A 
ATOM     17 CL   UNL     1      -0.209  11.724  21.470  0.00  0.00    +0.000 Cl
ATOM     18  C   UNL     1       1.072   9.421  20.643  0.00  0.00    +0.000 A 
ATOM     19 CL   UNL     1       1.425   9.104  22.312  0.00  0.00    +0.000 Cl
ENDBRANCH  11  12
ENDBRANCH   1  11
BRANCH   3  20
ATOM     20  C   UNL     1       5.132   6.589  16.030  0.00  0.00    +0.000 C 
BRANCH  20  21
ATOM     21  N   UNL     1       6.554   6.452  16.358  0.00  0.00    +0.000 NA
ATOM     22  C   UNL     1       7.173   5.158  16.061  0.00  0.00    +0.000 C 
ATOM     23  C   UNL     1       7.232   4.212  17.268  0.00  0.00    +0.000 C 
ATOM     24  O   UNL     1       7.951   4.822  18.345  0.00  0.00    +0.000 OA
ATOM     25  C   UNL     1       7.281   6.011  18.778  0.00  0.00    +0.000 C 
ATOM     26  C   UNL     1       7.026   7.009  17.629  0.00  0.00    +0.000 C 
ENDBRANCH  20  21
ENDBRANCH   3  20
TORSDOF 4
ENDMDL
MODEL 3
REMARK VINA RESULT:      -7.4      3.743      6.084
REMARK  Name = 
REMARK  4 active torsions:
REMARK  status: ('A' for Active; 'I' for Inactive)
REMARK    1  A    between atoms: C_2  and  C_3
REMARK    2  A    between atoms: C_2  and  C_11
REMARK    3  A    between atoms: C_13  and  C_14
REMARK    4  A    between atoms: C_14  and  N_15
REMARK                            x       y       z     vdW  Elec       q    Type
REMARK                         _______ _______ _______ _____ _____    ______ ____
ROOT
ATOM      1  C   UNL     1       0.322  10.403  19.420  0.00  0.00    +0.000 A 
ATOM      2  N   UNL     1       1.063   9.419  18.920  0.00  0.00    +0.000 NA
ATOM      3  C   UNL     1       1.448   8.632  19.993  0.00  0.00    +0.000 A 
ATOM      4  C   UNL     1       0.979   9.186  21.165  0.00  0.00    +0.000 A 
ATOM      5  C   UNL     1       1.062   8.881  22.549  0.00  0.00    +0.000 A 
ATOM      6  C   UNL     1       0.208   9.475  23.408  0.00  0.00    +0.000 A 
ATOM      7  C   UNL     1      -0.773  10.443  22.946  0.00  0.00    +0.000 A 
ATOM      8  C   UNL     1      -0.747  10.836  21.662  0.00  0.00    +0.000 A 
ATOM      9  N   UNL     1       0.148  10.230  20.779  0.00  0.00    +0.000 N 
ENDROOT
BRANCH   1  11
ATOM     10  O   UNL     1       0.214  12.557  18.448  0.00  0.00    +0.000 OA
ATOM     11  C   UNL     1      -0.307  11.453  18.627  0.00  0.00    +0.000 C 
BRANCH  11  12
ATOM     12  C   UNL     1      -1.700  11.239  18.133  0.00  0.00    +0.000 A 
ATOM     13  C   UNL     1      -1.880  10.314  17.086  0.00  0.00    +0.000 A 
ATOM     14  C   UNL     1      -3.148   9.982  16.627  0.00  0.00    +0.000 A 
ATOM     15  C   UNL     1      -4.264  10.550  17.228  0.00  0.00    +0.000 A 
ATOM     16  C   UNL     1      -4.109  11.463  18.278  0.00  0.00    +0.000 A 
ATOM     17 CL   UNL     1      -5.566  12.092  18.975  0.00  0.00    +0.000 Cl
ATOM     18  C   UNL     1      -2.828  11.824  18.737  0.00  0.00    +0.000 A 
ATOM     19 CL   UNL     1      -2.675  13.008  19.997  0.00  0.00    +0.000 Cl
ENDBRANCH  11  12
ENDBRANCH   1  11
BRANCH   3  20
ATOM     20  C   UNL     1       2.243   7.380  19.786  0.00  0.00    +0.000 C 
BRANCH  20  21
ATOM     21  N   UNL     1       2.391   6.963  18.388  0.00  0.00    +0.000 NA
ATOM     22  C   UNL     1       2.144   5.549  18.097  0.00  0.00    +0.000 C 
ATOM     23  C   UNL     1       3.420   4.697  18.050  0.00  0.00    +0.000 C 
ATOM     24  O   UNL     1       4.326   5.211  17.068  0.00  0.00    +0.000 OA
ATOM     25  C   UNL     1       4.724   6.543  17.409  0.00  0.00    +0.000 C 
ATOM     26  C   UNL     1       3.526   7.492  17.627  0.00  0.00    +0.000 C 
ENDBRANCH  20  21
ENDBRANCH   3  20
TORSDOF 4
ENDMDL
MODEL 4
REMARK VINA RESULT:      -7.3      7.112      9.467
REMARK  Name = 
REMARK  4 active torsions:
REMARK  status: ('A' for Active; 'I' for Inactive)
REMARK    1  A    between atoms: C_2  and  C_3
REMARK    2  A    between atoms: C_2  and  C_11
REMARK    3  A    between atoms: C_13  and  C_14
REMARK    4  A    between atoms: C_14  and  N_15
REMARK                            x       y       z     vdW  Elec       q    Type
REMARK                         _______ _______ _______ _____ _____    ______ ____
ROOT
ATOM      1  C   UNL     1      -1.608  12.468  21.726  0.00  0.00    +0.000 A 
ATOM      2  N   UNL     1      -1.813  12.651  20.426  0.00  0.00    +0.000 NA
ATOM      3  C   UNL     1      -1.205  11.589  19.777  0.00  0.00    +0.000 A 
ATOM      4  C   UNL     1      -0.572  10.785  20.700  0.00  0.00    +0.000 A 
ATOM      5  C   UNL     1       0.219   9.606  20.663  0.00  0.00    +0.000 A 
ATOM      6  C   UNL     1       0.413   8.906  21.800  0.00  0.00    +0.000 A 
ATOM      7  C   UNL     1      -0.146   9.352  23.065  0.00  0.00    +0.000 A 
ATOM      8  C   UNL     1      -0.766  10.542  23.120  0.00  0.00    +0.000 A 
ATOM      9  N   UNL     1      -0.953  11.271  21.945  0.00  0.00    +0.000 N 
ENDROOT
BRANCH   1  11
ATOM     10  O   UNL     1      -1.358  14.057  23.460  0.00  0.00    +0.000 OA
ATOM     11  C   UNL     1      -2.103  13.350  22.777  0.00  0.00    +0.000 C 
BRANCH  11  12
ATOM     12  C   UNL     1      -3.550  13.288  23.141  0.00  0.00    +0.000 A 
ATOM     13  C   UNL     1      -3.916  12.422  24.190  0.00  0.00    +0.000 A 
ATOM     14  C   UNL     1      -5.223  12.368  24.658  0.00  0.00    +0.000 A 
ATOM     15  C   UNL     1      -6.184  13.204  24.103  0.00  0.00    +0.000 A 
ATOM     16  C   UNL     1      -5.839  14.081  23.067  0.00  0.00    +0.000 A 
ATOM     17 CL   UNL     1      -7.106  15.098  22.464  0.00  0.00    +0.000 Cl
ATOM     18  C   UNL     1      -4.523  14.127  22.569  0.00  0.00    +0.000 A 
ATOM     19 CL   UNL     1      -4.150  15.180  21.241  0.00  0.00    +0.000 Cl
ENDBRANCH  11  12
ENDBRANCH   1  11
BRANCH   3  20
ATOM     20  C   UNL     1      -1.299  11.436  18.290  0.00  0.00    +0.000 C 
BRANCH  20  21
ATOM     21  N   UNL     1      -2.376  10.557  17.824  0.00  0.00    +0.000 NA
ATOM     22  C   UNL     1      -2.168   9.893  16.536  0.00  0.00    +0.000 C 
ATOM     23  C   UNL     1      -2.820  10.624  15.354  0.00  0.00    +0.000 C 
ATOM     24  O   UNL     1      -4.228  10.764  15.570  0.00  0.00    +0.000 OA
ATOM     25  C   UNL     1      -4.474  11.554  16.738  0.00  0.00    +0.000 C 
ATOM     26  C   UNL     1      -3.759  11.011  17.993  0.00  0.00    +0.000 C 
ENDBRANCH  20  21
ENDBRANCH   3  20
TORSDOF 4
ENDMDL
MODEL 5
REMARK VINA RESULT:      -7.3      1.734      4.350
REMARK  Name = 
REMARK  4 active torsions:
REMARK  status: ('A' for Active; 'I' for Inactive)
REMARK    1  A    between atoms: C_2  and  C_3
REMARK    2  A    between atoms: C_2  and  C_11
REMARK    3  A    between atoms: C_13  and  C_14
REMARK    4  A    between atoms: C_14  and  N_15
REMARK                            x       y       z     vdW  Elec       q    Type
REMARK                         _______ _______ _______ _____ _____    ______ ____
ROOT
ATOM      1  C   UNL     1       3.470   6.255  17.664  0.00  0.00    +0.000 A 
ATOM      2  N   UNL     1       2.738   5.146  17.665  0.00  0.00    +0.000 NA
ATOM      3  C   UNL     1       3.623   4.089  17.520  0.00  0.00    +0.000 A 
ATOM      4  C   UNL     1       4.904   4.576  17.371  0.00  0.00    +0.000 A 
ATOM      5  C   UNL     1       6.195   4.022  17.162  0.00  0.00    +0.000 A 
ATOM      6  C   UNL     1       7.284   4.786  17.380  0.00  0.00    +0.000 A 
ATOM      7  C   UNL     1       7.160   6.174  17.794  0.00  0.00    +0.000 A 
ATOM      8  C   UNL     1       5.940   6.732  17.846  0.00  0.00    +0.000 A 
ATOM      9  N   UNL     1       4.815   5.942  17.606  0.00  0.00    +0.000 N 
ENDROOT
BRANCH   1  11
ATOM     10  O   UNL     1       3.245   8.532  17.066  0.00  0.00    +0.000 OA
ATOM     11  C   UNL     1       2.935   7.603  17.816  0.00  0.00    +0.000 C 
BRANCH  11  12
ATOM     12  C   UNL     1       2.093   7.908  19.012  0.00  0.00    +0.000 A 
ATOM     13  C   UNL     1       2.118   6.982  20.073  0.00  0.00    +0.000 A 
ATOM     14  C   UNL     1       1.441   7.228  21.261  0.00  0.00    +0.000 A 
ATOM     15  C   UNL     1       0.749   8.422  21.419  0.00  0.00    +0.000 A 
ATOM     16  C   UNL     1       0.721   9.362  20.382  0.00  0.00    +0.000 A 
ATOM     17 CL   UNL     1      -0.149  10.829  20.692  0.00  0.00    +0.000 Cl
ATOM     18  C   UNL     1       1.384   9.113  19.165  0.00  0.00    +0.000 A 
ATOM     19 CL   UNL     1       1.273  10.273  17.879  0.00  0.00    +0.000 Cl
ENDBRANCH  11  12
ENDBRANCH   1  11
BRANCH   3  20
ATOM     20  C   UNL     1       3.144   2.671  17.550  0.00  0.00    +0.000 C 
BRANCH  20  21
ATOM     21  N   UNL     1       2.761   2.173  18.875  0.00  0.00    +0.000 NA
ATOM     22  C   UNL     1       1.327   2.131  19.170  0.00  0.00    +0.000 C 
ATOM     23  C   UNL     1       0.822   3.356  19.944  0.00  0.00    +0.000 C 
ATOM     24  O   UNL     1       1.534   3.495  21.178  0.00  0.00    +0.000 OA
ATOM     25  C   UNL     1       2.928   3.705  20.925  0.00  0.00    +0.000 C 
ATOM     26  C   UNL     1       3.549   2.611  20.031  0.00  0.00    +0.000 C 
ENDBRANCH  20  21
ENDBRANCH   3  20
TORSDOF 4
ENDMDL
MODEL 6
REMARK VINA RESULT:      -7.2      1.371      1.873
REMARK  Name = 
REMARK  4 active torsions:
REMARK  status: ('A' for Active; 'I' for Inactive)
REMARK    1  A    between atoms: C_2  and  C_3
REMARK    2  A    between atoms: C_2  and  C_11
REMARK    3  A    between atoms: C_13  and  C_14
REMARK    4  A    between atoms: C_14  and  N_15
REMARK                            x       y       z     vdW  Elec       q    Type
REMARK                         _______ _______ _______ _____ _____    ______ ____
ROOT
ATOM      1  C   UNL     1       2.758   5.999  19.025  0.00  0.00    +0.000 A 
ATOM      2  N   UNL     1       3.712   6.403  18.192  0.00  0.00    +0.000 NA
ATOM      3  C   UNL     1       4.046   5.307  17.414  0.00  0.00    +0.000 A 
ATOM      4  C   UNL     1       3.321   4.210  17.825  0.00  0.00    +0.000 A 
ATOM      5  C   UNL     1       3.237   2.840  17.460  0.00  0.00    +0.000 A 
ATOM      6  C   UNL     1       2.178   2.112  17.870  0.00  0.00    +0.000 A 
ATOM      7  C   UNL     1       1.140   2.695  18.703  0.00  0.00    +0.000 A 
ATOM      8  C   UNL     1       1.301   3.945  19.166  0.00  0.00    +0.000 A 
ATOM      9  N   UNL     1       2.405   4.691  18.752  0.00  0.00    +0.000 N 
ENDROOT
BRANCH   1  11
ATOM     10  O   UNL     1       1.747   6.438  21.117  0.00  0.00    +0.000 OA
ATOM     11  C   UNL     1       2.100   6.850  20.010  0.00  0.00    +0.000 C 
BRANCH  11  12
ATOM     12  C   UNL     1       1.708   8.235  19.611  0.00  0.00    +0.000 A 
ATOM     13  C   UNL     1       1.784   8.560  18.243  0.00  0.00    +0.000 A 
ATOM     14  C   UNL     1       1.351   9.792  17.769  0.00  0.00    +0.000 A 
ATOM     15  C   UNL     1       0.806  10.713  18.655  0.00  0.00    +0.000 A 
ATOM     16  C   UNL     1       0.710  10.406  20.017  0.00  0.00    +0.000 A 
ATOM     17 CL   UNL     1      -0.010  11.613  21.031  0.00  0.00    +0.000 Cl
ATOM     18  C   UNL     1       1.166   9.169  20.513  0.00  0.00    +0.000 A 
ATOM     19 CL   UNL     1       1.089   8.851  22.217  0.00  0.00    +0.000 Cl
ENDBRANCH  11  12
ENDBRANCH   1  11
BRANCH   3  20
ATOM     20  C   UNL     1       5.051   5.422  16.309  0.00  0.00    +0.000 C 
BRANCH  20  21
ATOM     21  N   UNL     1       6.450   5.302  16.728  0.00  0.00    +0.000 NA
ATOM     22  C   UNL     1       6.701   4.572  17.973  0.00  0.00    +0.000 C 
ATOM     23  C   UNL     1       6.847   5.481  19.201  0.00  0.00    +0.000 C 
ATOM     24  O   UNL     1       7.909   6.420  19.004  0.00  0.00    +0.000 OA
ATOM     25  C   UNL     1       7.621   7.268  17.887  0.00  0.00    +0.000 C 
ATOM     26  C   UNL     1       7.313   6.480  16.596  0.00  0.00    +0.000 C 
ENDBRANCH  20  21
ENDBRANCH   3  20
TORSDOF 4
ENDMDL
MODEL 7
REMARK VINA RESULT:      -7.2      1.596      2.131
REMARK  Name = 
REMARK  4 active torsions:
REMARK  status: ('A' for Active; 'I' for Inactive)
REMARK    1  A    between atoms: C_2  and  C_3
REMARK    2  A    between atoms: C_2  and  C_11
REMARK    3  A    between atoms: C_13  and  C_14
REMARK    4  A    between atoms: C_14  and  N_15
REMARK                            x       y       z     vdW  Elec       q    Type
REMARK                         _______ _______ _______ _____ _____    ______ ____
ROOT
ATOM      1  C   UNL     1       3.424   6.186  18.640  0.00  0.00    +0.000 A 
ATOM      2  N   UNL     1       4.673   6.294  19.081  0.00  0.00    +0.000 NA
ATOM      3  C   UNL     1       5.134   5.003  19.281  0.00  0.00    +0.000 A 
ATOM      4  C   UNL     1       4.124   4.104  19.011  0.00  0.00    +0.000 A 
ATOM      5  C   UNL     1       3.966   2.693  19.054  0.00  0.00    +0.000 A 
ATOM      6  C   UNL     1       2.924   2.126  18.413  0.00  0.00    +0.000 A 
ATOM      7  C   UNL     1       1.945   2.934  17.705  0.00  0.00    +0.000 A 
ATOM      8  C   UNL     1       2.017   4.272  17.793  0.00  0.00    +0.000 A 
ATOM      9  N   UNL     1       3.089   4.856  18.469  0.00  0.00    +0.000 N 
ENDROOT
BRANCH   1  11
ATOM     10  O   UNL     1       2.543   7.794  17.147  0.00  0.00    +0.000 OA
ATOM     11  C   UNL     1       2.570   7.312  18.282  0.00  0.00    +0.000 C 
BRANCH  11  12
ATOM     12  C   UNL     1       1.807   8.004  19.363  0.00  0.00    +0.000 A 
ATOM     13  C   UNL     1       1.518   7.263  20.526  0.00  0.00    +0.000 A 
ATOM     14  C   UNL     1       0.895   7.852  21.620  0.00  0.00    +0.000 A 
ATOM     15  C   UNL     1       0.576   9.203  21.581  0.00  0.00    +0.000 A 
ATOM     16  C   UNL     1       0.865   9.961  20.440  0.00  0.00    +0.000 A 
ATOM     17 CL   UNL     1       0.450  11.642  20.505  0.00  0.00    +0.000 Cl
ATOM     18  C   UNL     1       1.475   9.370  19.316  0.00  0.00    +0.000 A 
ATOM     19 CL   UNL     1       1.759  10.327  17.897  0.00  0.00    +0.000 Cl
ENDBRANCH  11  12
ENDBRANCH   1  11
BRANCH   3  20
ATOM     20  C   UNL     1       6.544   4.744  19.714  0.00  0.00    +0.000 C 
BRANCH  20  21
ATOM     21  N   UNL     1       7.565   5.020  18.699  0.00  0.00    +0.000 NA
ATOM     22  C   UNL     1       8.139   6.367  18.696  0.00  0.00    +0.000 C 
ATOM     23  C   UNL     1       7.477   7.317  17.687  0.00  0.00    +0.000 C 
ATOM     24  O   UNL     1       7.571   6.781  16.363  0.00  0.00    +0.000 OA
ATOM     25  C   UNL     1       6.875   5.533  16.283  0.00  0.00    +0.000 C 
ATOM     26  C   UNL     1       7.344   4.513  17.341  0.00  0.00    +0.000 C 
ENDBRANCH  20  21
ENDBRANCH   3  20
TORSDOF 4
ENDMDL
MODEL 8
REMARK VINA RESULT:      -7.1      6.246     10.350
REMARK  Name = 
REMARK  4 active torsions:
REMARK  status: ('A' for Active; 'I' for Inactive)
REMARK    1  A    between atoms: C_2  and  C_3
REMARK    2  A    between atoms: C_2  and  C_11
REMARK    3  A    between atoms: C_13  and  C_14
REMARK    4  A    between atoms: C_14  and  N_15
REMARK                            x       y       z     vdW  Elec       q    Type
REMARK                         _______ _______ _______ _____ _____    ______ ____
ROOT
ATOM      1  C   UNL     1      -1.395  11.963  19.357  0.00  0.00    +0.000 A 
ATOM      2  N   UNL     1      -2.169  12.657  20.184  0.00  0.00    +0.000 NA
ATOM      3  C   UNL     1      -3.459  12.565  19.687  0.00  0.00    +0.000 A 
ATOM      4  C   UNL     1      -3.450  11.852  18.507  0.00  0.00    +0.000 A 
ATOM      5  C   UNL     1      -4.412  11.456  17.539  0.00  0.00    +0.000 A 
ATOM      6  C   UNL     1      -4.099  10.484  16.659  0.00  0.00    +0.000 A 
ATOM      7  C   UNL     1      -2.788   9.857  16.662  0.00  0.00    +0.000 A 
ATOM      8  C   UNL     1      -1.837  10.338  17.480  0.00  0.00    +0.000 A 
ATOM      9  N   UNL     1      -2.159  11.353  18.380  0.00  0.00    +0.000 N 
ENDROOT
BRANCH   1  11
ATOM     10  O   UNL     1       0.874  12.516  18.987  0.00  0.00    +0.000 OA
ATOM     11  C   UNL     1       0.043  11.780  19.523  0.00  0.00    +0.000 C 
BRANCH  11  12
ATOM     12  C   UNL     1       0.531  10.570  20.249  0.00  0.00    +0.000 A 
ATOM     13  C   UNL     1       0.236  10.478  21.624  0.00  0.00    +0.000 A 
ATOM     14  C   UNL     1       0.568   9.346  22.358  0.00  0.00    +0.000 A 
ATOM     15  C   UNL     1       1.178   8.272  21.723  0.00  0.00    +0.000 A 
ATOM     16  C   UNL     1       1.470   8.338  20.355  0.00  0.00    +0.000 A 
ATOM     17 CL   UNL     1       2.207   6.934  19.656  0.00  0.00    +0.000 Cl
ATOM     18  C   UNL     1       1.158   9.488  19.605  0.00  0.00    +0.000 A 
ATOM     19 CL   UNL     1       1.594   9.556  17.927  0.00  0.00    +0.000 Cl
ENDBRANCH  11  12
ENDBRANCH   1  11
BRANCH   3  20
ATOM     20  C   UNL     1      -4.614  13.179  20.416  0.00  0.00    +0.000 C 
BRANCH  20  21
ATOM     21  N   UNL     1      -5.218  12.329  21.447  0.00  0.00    +0.000 NA
ATOM     22  C   UNL     1      -6.593  11.885  21.207  0.00  0.00    +0.000 C 
ATOM     23  C   UNL     1      -7.651  12.757  21.898  0.00  0.00    +0.000 C 
ATOM     24  O   UNL     1      -7.425  12.791  23.310  0.00  0.00    +0.000 OA
ATOM     25  C   UNL     1      -6.150  13.375  23.595  0.00  0.00    +0.000 C 
ATOM     26  C   UNL     1      -4.990  12.681  22.852  0.00  0.00    +0.000 C 
ENDBRANCH  20  21
ENDBRANCH   3  20
TORSDOF 4
ENDMDL
MODEL 9
REMARK VINA RESULT:      -7.0      3.012      6.011
REMARK  Name = 
REMARK  4 active torsions:
REMARK  status: ('A' for Active; 'I' for Inactive)
REMARK    1  A    between atoms: C_2  and  C_3
REMARK    2  A    between atoms: C_2  and  C_11
REMARK    3  A    between atoms: C_13  and  C_14
REMARK    4  A    between atoms: C_14  and  N_15
REMARK                            x       y       z     vdW  Elec       q    Type
REMARK                         _______ _______ _______ _____ _____    ______ ____
ROOT
ATOM      1  C   UNL     1       3.395   5.529  18.245  0.00  0.00    +0.000 A 
ATOM      2  N   UNL     1       3.013   6.524  19.039  0.00  0.00    +0.000 NA
ATOM      3  C   UNL     1       1.993   6.027  19.833  0.00  0.00    +0.000 A 
ATOM      4  C   UNL     1       1.715   4.727  19.468  0.00  0.00    +0.000 A 
ATOM      5  C   UNL     1       0.793   3.723  19.867  0.00  0.00    +0.000 A 
ATOM      6  C   UNL     1       1.014   2.443  19.506  0.00  0.00    +0.000 A 
ATOM      7  C   UNL     1       2.161   2.077  18.690  0.00  0.00    +0.000 A 
ATOM      8  C   UNL     1       2.944   3.048  18.194  0.00  0.00    +0.000 A 
ATOM      9  N   UNL     1       2.704   4.374  18.558  0.00  0.00    +0.000 N 
ENDROOT
BRANCH   1  11
ATOM     10  O   UNL     1       4.335   5.235  16.095  0.00  0.00    +0.000 OA
ATOM     11  C   UNL     1       4.467   5.617  17.260  0.00  0.00    +0.000 C 
BRANCH  11  12
ATOM     12  C   UNL     1       5.822   6.049  17.715  0.00  0.00    +0.000 A 
ATOM     13  C   UNL     1       6.346   7.230  17.152  0.00  0.00    +0.000 A 
ATOM     14  C   UNL     1       7.557   7.758  17.583  0.00  0.00    +0.000 A 
ATOM     15  C   UNL     1       8.253   7.128  18.606  0.00  0.00    +0.000 A 
ATOM     16  C   UNL     1       7.745   5.960  19.187  0.00  0.00    +0.000 A 
ATOM     17 CL   UNL     1       8.678   5.269  20.474  0.00  0.00    +0.000 Cl
ATOM     18  C   UNL     1       6.530   5.403  18.744  0.00  0.00    +0.000 A 
ATOM     19 CL   UNL     1       5.965   3.919  19.444  0.00  0.00    +0.000 Cl
ENDBRANCH  11  12
ENDBRANCH   1  11
BRANCH   3  20
ATOM     20  C   UNL     1       1.368   6.866  20.904  0.00  0.00    +0.000 C 
BRANCH  20  21
ATOM     21  N   UNL     1       1.640   8.303  20.805  0.00  0.00    +0.000 NA
ATOM     22  C   UNL     1       1.573   9.070  22.050  0.00  0.00    +0.000 C 
ATOM     23  C   UNL     1       0.223   9.766  22.273  0.00  0.00    +0.000 C 
ATOM     24  O   UNL     1      -0.070  10.645  21.182  0.00  0.00    +0.000 OA
ATOM     25  C   UNL     1      -0.177   9.904  19.963  0.00  0.00    +0.000 C 
ATOM     26  C   UNL     1       1.066   9.037  19.673  0.00  0.00    +0.000 C 
ENDBRANCH  20  21
ENDBRANCH   3  20
TORSDOF 4
ENDMDL
