MODEL 1
REMARK VINA RESULT:      -7.3      0.000      0.000
REMARK  Name = 
REMARK  6 active torsions:
REMARK  status: ('A' for Active; 'I' for Inactive)
REMARK    1  A    between atoms: N_4  and  C_5
REMARK    2  A    between atoms: C_5  and  C_6
REMARK    3  A    between atoms: C_6  and  C_7
REMARK    4  A    between atoms: C_7  and  C_8
REMARK    5  A    between atoms: C_8  and  C_9
REMARK    6  A    between atoms: C_9  and  C_11
REMARK                            x       y       z     vdW  Elec       q    Type
REMARK                         _______ _______ _______ _____ _____    ______ ____
ROOT
ATOM      1  C   UNL     1       6.741   5.584  16.776  0.00  0.00    +0.000 C 
ENDROOT
BRANCH   1   2
ATOM      2  C   UNL     1       6.727   4.936  18.155  0.00  0.00    +0.000 C 
ATOM      3  O   UNL     1       7.794   4.719  18.731  0.00  0.00    +0.000 OA
BRANCH   2   4
ATOM      4  C   UNL     1       5.410   4.675  18.727  0.00  0.00    +0.000 A 
ATOM      5  N   UNL     1       5.125   3.573  19.392  0.00  0.00    +0.000 NA
ATOM      6  C   UNL     1       3.795   3.592  19.778  0.00  0.00    +0.000 A 
ATOM      7  C   UNL     1       3.137   2.581  20.505  0.00  0.00    +0.000 A 
ATOM      8  C   UNL     1       1.779   2.716  20.809  0.00  0.00    +0.000 A 
ATOM      9  C   UNL     1       1.075   3.844  20.401  0.00  0.00    +0.000 A 
ATOM     10  C   UNL     1       1.708   4.869  19.688  0.00  0.00    +0.000 A 
ATOM     11  C   UNL     1       3.073   4.722  19.388  0.00  0.00    +0.000 A 
ATOM     12  S   UNL     1       4.126   5.790  18.540  0.00  0.00    +0.000 S 
ENDBRANCH   2   4
ENDBRANCH   1   2
BRANCH   1  13
ATOM     13  C   UNL     1       7.091   4.541  15.718  0.00  0.00    +0.000 C 
BRANCH  13  14
ATOM     14  C   UNL     1       5.896   4.168  14.840  0.00  0.00    +0.000 C 
BRANCH  14  15
ATOM     15  C   UNL     1       6.231   4.371  13.362  0.00  0.00    +0.000 C 
BRANCH  15  19
ATOM     16  N   UNL     1       6.033   1.351  11.320  0.00  0.00    +0.000 NA
ATOM     17  C   UNL     1       5.636   2.463  11.825  0.00  0.00    +0.000 C 
ATOM     18  N   UNL     1       4.470   3.043  11.490  0.00  0.00    +0.000 N 
ATOM     19  N   UNL     1       6.413   3.097  12.718  0.00  0.00    +0.000 N 
ATOM     20  H   UNL     1       5.347   1.024  10.638  0.00  0.00    +0.000 HD
ATOM     21  H   UNL     1       3.797   2.435  11.044  0.00  0.00    +0.000 HD
ATOM     22  H   UNL     1       4.046   3.597  12.220  0.00  0.00    +0.000 HD
ATOM     23  H   UNL     1       7.291   2.619  12.892  0.00  0.00    +0.000 HD
ENDBRANCH  15  19
ENDBRANCH  14  15
ENDBRANCH  13  14
ENDBRANCH   1  13
TORSDOF 6
ENDMDL
MODEL 2
REMARK VINA RESULT:      -7.1      4.342      6.438
REMARK  Name = 
REMARK  6 active torsions:
REMARK  status: ('A' for Active; 'I' for Inactive)
REMARK    1  A    between atoms: N_4  and  C_5
REMARK    2  A    between atoms: C_5  and  C_6
REMARK    3  A    between atoms: C_6  and  C_7
REMARK    4  A    between atoms: C_7  and  C_8
REMARK    5  A    between atoms: C_8  and  C_9
REMARK    6  A    between atoms: C_9  and  C_11
REMARK                            x       y       z     vdW  Elec       q    Type
REMARK                         _______ _______ _______ _____ _____    ______ ____
ROOT
ATOM      1  C   UNL     1       7.412   6.345  17.927  0.00  0.00    +0.000 C 
ENDROOT
BRANCH   1   2
ATOM      2  C   UNL     1       6.883   5.545  19.113  0.00  0.00    +0.000 C 
ATOM      3  O   UNL     1       7.564   5.462  20.136  0.00  0.00    +0.000 OA
BRANCH   2   4
ATOM      4  C   UNL     1       5.547   4.980  18.960  0.00  0.00    +0.000 A 
ATOM      5  N   UNL     1       5.235   3.763  19.360  0.00  0.00    +0.000 NA
ATOM      6  C   UNL     1       3.913   3.494  19.049  0.00  0.00    +0.000 A 
ATOM      7  C   UNL     1       3.233   2.292  19.326  0.00  0.00    +0.000 A 
ATOM      8  C   UNL     1       1.899   2.142  18.933  0.00  0.00    +0.000 A 
ATOM      9  C   UNL     1       1.239   3.174  18.273  0.00  0.00    +0.000 A 
ATOM     10  C   UNL     1       1.889   4.383  17.997  0.00  0.00    +0.000 A 
ATOM     11  C   UNL     1       3.229   4.522  18.397  0.00  0.00    +0.000 A 
ATOM     12  S   UNL     1       4.291   5.867  18.209  0.00  0.00    +0.000 S 
ENDBRANCH   2   4
ENDBRANCH   1   2
BRANCH   1  13
ATOM     13  C   UNL     1       8.272   7.503  18.427  0.00  0.00    +0.000 C 
BRANCH  13  14
ATOM     14  C   UNL     1       7.844   8.849  17.841  0.00  0.00    +0.000 C 
BRANCH  14  15
ATOM     15  C   UNL     1       8.921   9.907  18.083  0.00  0.00    +0.000 C 
BRANCH  15  19
ATOM     16  N   UNL     1       9.604  11.302  21.388  0.00  0.00    +0.000 NA
ATOM     17  C   UNL     1       9.827  11.025  20.154  0.00  0.00    +0.000 C 
ATOM     18  N   UNL     1      10.916  11.457  19.494  0.00  0.00    +0.000 N 
ATOM     19  N   UNL     1       8.938  10.285  19.472  0.00  0.00    +0.000 N 
ATOM     20  H   UNL     1      10.353  11.898  21.743  0.00  0.00    +0.000 HD
ATOM     21  H   UNL     1      11.682  11.765  20.077  0.00  0.00    +0.000 HD
ATOM     22  H   UNL     1      11.234  10.848  18.753  0.00  0.00    +0.000 HD
ATOM     23  H   UNL     1       8.127  10.028  20.024  0.00  0.00    +0.000 HD
ENDBRANCH  15  19
ENDBRANCH  14  15
ENDBRANCH  13  14
ENDBRANCH   1  13
TORSDOF 6
ENDMDL
MODEL 3
REMARK VINA RESULT:      -7.1      3.169      6.085
REMARK  Name = 
REMARK  6 active torsions:
REMARK  status: ('A' for Active; 'I' for Inactive)
REMARK    1  A    between atoms: N_4  and  C_5
REMARK    2  A    between atoms: C_5  and  C_6
REMARK    3  A    between atoms: C_6  and  C_7
REMARK    4  A    between atoms: C_7  and  C_8
REMARK    5  A    between atoms: C_8  and  C_9
REMARK    6  A    between atoms: C_9  and  C_11
REMARK                            x       y       z     vdW  Elec       q    Type
REMARK                         _______ _______ _______ _____ _____    ______ ____
ROOT
ATOM      1  C   UNL     1       2.600   4.726  20.559  0.00  0.00    +0.000 C 
ENDROOT
BRANCH   1   2
ATOM      2  C   UNL     1       2.978   5.916  19.685  0.00  0.00    +0.000 C 
ATOM      3  O   UNL     1       2.435   7.005  19.880  0.00  0.00    +0.000 OA
BRANCH   2   4
ATOM      4  C   UNL     1       4.030   5.681  18.702  0.00  0.00    +0.000 A 
ATOM      5  N   UNL     1       3.820   5.735  17.402  0.00  0.00    +0.000 NA
ATOM      6  C   UNL     1       4.989   5.431  16.727  0.00  0.00    +0.000 A 
ATOM      7  C   UNL     1       5.143   5.391  15.327  0.00  0.00    +0.000 A 
ATOM      8  C   UNL     1       6.379   5.044  14.773  0.00  0.00    +0.000 A 
ATOM      9  C   UNL     1       7.459   4.742  15.596  0.00  0.00    +0.000 A 
ATOM     10  C   UNL     1       7.336   4.786  16.990  0.00  0.00    +0.000 A 
ATOM     11  C   UNL     1       6.090   5.136  17.535  0.00  0.00    +0.000 A 
ATOM     12  S   UNL     1       5.622   5.282  19.187  0.00  0.00    +0.000 S 
ENDBRANCH   2   4
ENDBRANCH   1   2
BRANCH   1  13
ATOM     13  C   UNL     1       1.088   4.514  20.518  0.00  0.00    +0.000 C 
BRANCH  13  14
ATOM     14  C   UNL     1       0.704   3.103  20.072  0.00  0.00    +0.000 C 
BRANCH  14  15
ATOM     15  C   UNL     1       1.353   2.769  18.729  0.00  0.00    +0.000 C 
BRANCH  15  19
ATOM     16  N   UNL     1       4.176   0.452  18.689  0.00  0.00    +0.000 NA
ATOM     17  C   UNL     1       3.491   1.485  18.352  0.00  0.00    +0.000 C 
ATOM     18  N   UNL     1       3.943   2.411  17.488  0.00  0.00    +0.000 N 
ATOM     19  N   UNL     1       2.273   1.672  18.885  0.00  0.00    +0.000 N 
ATOM     20  H   UNL     1       5.084   0.481  18.225  0.00  0.00    +0.000 HD
ATOM     21  H   UNL     1       4.716   2.119  16.906  0.00  0.00    +0.000 HD
ATOM     22  H   UNL     1       3.226   2.876  16.950  0.00  0.00    +0.000 HD
ATOM     23  H   UNL     1       2.017   0.954  19.554  0.00  0.00    +0.000 HD
ENDBRANCH  15  19
ENDBRANCH  14  15
ENDBRANCH  13  14
ENDBRANCH   1  13
TORSDOF 6
ENDMDL
MODEL 4
REMARK VINA RESULT:      -7.0      4.801      6.328
REMARK  Name = 
REMARK  6 active torsions:
REMARK  status: ('A' for Active; 'I' for Inactive)
REMARK    1  A    between atoms: N_4  and  C_5
REMARK    2  A    between atoms: C_5  and  C_6
REMARK    3  A    between atoms: C_6  and  C_7
REMARK    4  A    between atoms: C_7  and  C_8
REMARK    5  A    between atoms: C_8  and  C_9
REMARK    6  A    between atoms: C_9  and  C_11
REMARK                            x       y       z     vdW  Elec       q    Type
REMARK                         _______ _______ _______ _____ _____    ______ ____
ROOT
ATOM      1  C   UNL     1       7.061   6.910  17.578  0.00  0.00    +0.000 C 
ENDROOT
BRANCH   1   2
ATOM      2  C   UNL     1       6.845   5.653  18.413  0.00  0.00    +0.000 C 
ATOM      3  O   UNL     1       7.801   5.153  19.007  0.00  0.00    +0.000 OA
BRANCH   2   4
ATOM      4  C   UNL     1       5.473   5.166  18.494  0.00  0.00    +0.000 A 
ATOM      5  N   UNL     1       4.717   5.333  19.561  0.00  0.00    +0.000 NA
ATOM      6  C   UNL     1       3.486   4.734  19.359  0.00  0.00    +0.000 A 
ATOM      7  C   UNL     1       2.422   4.710  20.283  0.00  0.00    +0.000 A 
ATOM      8  C   UNL     1       1.236   4.044  19.960  0.00  0.00    +0.000 A 
ATOM      9  C   UNL     1       1.097   3.408  18.730  0.00  0.00    +0.000 A 
ATOM     10  C   UNL     1       2.134   3.428  17.790  0.00  0.00    +0.000 A 
ATOM     11  C   UNL     1       3.322   4.099  18.125  0.00  0.00    +0.000 A 
ATOM     12  S   UNL     1       4.760   4.304  17.199  0.00  0.00    +0.000 S 
ENDBRANCH   2   4
ENDBRANCH   1   2
BRANCH   1  13
ATOM     13  C   UNL     1       8.176   7.754  18.191  0.00  0.00    +0.000 C 
BRANCH  13  14
ATOM     14  C   UNL     1       8.042   9.239  17.854  0.00  0.00    +0.000 C 
BRANCH  14  15
ATOM     15  C   UNL     1       9.070  10.061  18.633  0.00  0.00    +0.000 C 
BRANCH  15  19
ATOM     16  N   UNL     1       9.725  13.385  17.270  0.00  0.00    +0.000 NA
ATOM     17  C   UNL     1      10.000  12.190  17.653  0.00  0.00    +0.000 C 
ATOM     18  N   UNL     1      11.221  11.643  17.519  0.00  0.00    +0.000 N 
ATOM     19  N   UNL     1       9.035  11.433  18.200  0.00  0.00    +0.000 N 
ATOM     20  H   UNL     1      10.553  13.805  16.847  0.00  0.00    +0.000 HD
ATOM     21  H   UNL     1      11.975  12.299  17.367  0.00  0.00    +0.000 HD
ATOM     22  H   UNL     1      11.459  10.958  18.221  0.00  0.00    +0.000 HD
ATOM     23  H   UNL     1       8.135  11.899  18.234  0.00  0.00    +0.000 HD
ENDBRANCH  15  19
ENDBRANCH  14  15
ENDBRANCH  13  14
ENDBRANCH   1  13
TORSDOF 6
ENDMDL
MODEL 5
REMARK VINA RESULT:      -7.0      1.345      1.456
REMARK  Name = 
REMARK  6 active torsions:
REMARK  status: ('A' for Active; 'I' for Inactive)
REMARK    1  A    between atoms: N_4  and  C_5
REMARK    2  A    between atoms: C_5  and  C_6
REMARK    3  A    between atoms: C_6  and  C_7
REMARK    4  A    between atoms: C_7  and  C_8
REMARK    5  A    between atoms: C_8  and  C_9
REMARK    6  A    between atoms: C_9  and  C_11
REMARK                            x       y       z     vdW  Elec       q    Type
REMARK                         _______ _______ _______ _____ _____    ______ ____
ROOT
ATOM      1  C   UNL     1       6.887   4.905  16.992  0.00  0.00    +0.000 C 
ENDROOT
BRANCH   1   2
ATOM      2  C   UNL     1       5.811   5.850  17.511  0.00  0.00    +0.000 C 
ATOM      3  O   UNL     1       5.963   7.066  17.385  0.00  0.00    +0.000 OA
BRANCH   2   4
ATOM      4  C   UNL     1       4.622   5.220  18.075  0.00  0.00    +0.000 A 
ATOM      5  N   UNL     1       4.211   5.442  19.308  0.00  0.00    +0.000 NA
ATOM      6  C   UNL     1       3.086   4.680  19.569  0.00  0.00    +0.000 A 
ATOM      7  C   UNL     1       2.372   4.658  20.784  0.00  0.00    +0.000 A 
ATOM      8  C   UNL     1       1.263   3.819  20.923  0.00  0.00    +0.000 A 
ATOM      9  C   UNL     1       0.856   3.008  19.868  0.00  0.00    +0.000 A 
ATOM     10  C   UNL     1       1.540   3.020  18.647  0.00  0.00    +0.000 A 
ATOM     11  C   UNL     1       2.654   3.867  18.518  0.00  0.00    +0.000 A 
ATOM     12  S   UNL     1       3.691   4.110  17.164  0.00  0.00    +0.000 S 
ENDBRANCH   2   4
ENDBRANCH   1   2
BRANCH   1  13
ATOM     13  C   UNL     1       7.007   5.040  15.476  0.00  0.00    +0.000 C 
BRANCH  13  14
ATOM     14  C   UNL     1       6.306   3.907  14.727  0.00  0.00    +0.000 C 
BRANCH  14  15
ATOM     15  C   UNL     1       6.426   4.107  13.215  0.00  0.00    +0.000 C 
BRANCH  15  19
ATOM     16  N   UNL     1       5.986   1.122  11.159  0.00  0.00    +0.000 NA
ATOM     17  C   UNL     1       5.669   2.248  11.689  0.00  0.00    +0.000 C 
ATOM     18  N   UNL     1       4.521   2.890  11.409  0.00  0.00    +0.000 N 
ATOM     19  N   UNL     1       6.514   2.832  12.554  0.00  0.00    +0.000 N 
ATOM     20  H   UNL     1       5.257   0.838  10.504  0.00  0.00    +0.000 HD
ATOM     21  H   UNL     1       3.800   2.322  10.987  0.00  0.00    +0.000 HD
ATOM     22  H   UNL     1       4.157   3.457  12.160  0.00  0.00    +0.000 HD
ATOM     23  H   UNL     1       7.372   2.308  12.687  0.00  0.00    +0.000 HD
ENDBRANCH  15  19
ENDBRANCH  14  15
ENDBRANCH  13  14
ENDBRANCH   1  13
TORSDOF 6
ENDMDL
MODEL 6
REMARK VINA RESULT:      -7.0      3.333      4.614
REMARK  Name = 
REMARK  6 active torsions:
REMARK  status: ('A' for Active; 'I' for Inactive)
REMARK    1  A    between atoms: N_4  and  C_5
REMARK    2  A    between atoms: C_5  and  C_6
REMARK    3  A    between atoms: C_6  and  C_7
REMARK    4  A    between atoms: C_7  and  C_8
REMARK    5  A    between atoms: C_8  and  C_9
REMARK    6  A    between atoms: C_9  and  C_11
REMARK                            x       y       z     vdW  Elec       q    Type
REMARK                         _______ _______ _______ _____ _____    ______ ____
ROOT
ATOM      1  C   UNL     1       5.086   5.833  16.046  0.00  0.00    +0.000 C 
ENDROOT
BRANCH   1   2
ATOM      2  C   UNL     1       5.164   4.373  16.476  0.00  0.00    +0.000 C 
ATOM      3  O   UNL     1       6.008   3.637  15.963  0.00  0.00    +0.000 OA
BRANCH   2   4
ATOM      4  C   UNL     1       4.250   3.968  17.538  0.00  0.00    +0.000 A 
ATOM      5  N   UNL     1       2.953   3.824  17.349  0.00  0.00    +0.000 NA
ATOM      6  C   UNL     1       2.345   3.471  18.541  0.00  0.00    +0.000 A 
ATOM      7  C   UNL     1       0.967   3.234  18.721  0.00  0.00    +0.000 A 
ATOM      8  C   UNL     1       0.479   2.907  19.990  0.00  0.00    +0.000 A 
ATOM      9  C   UNL     1       1.345   2.811  21.075  0.00  0.00    +0.000 A 
ATOM     10  C   UNL     1       2.718   3.030  20.920  0.00  0.00    +0.000 A 
ATOM     11  C   UNL     1       3.198   3.358  19.641  0.00  0.00    +0.000 A 
ATOM     12  S   UNL     1       4.812   3.679  19.128  0.00  0.00    +0.000 S 
ENDBRANCH   2   4
ENDBRANCH   1   2
BRANCH   1  13
ATOM     13  C   UNL     1       5.206   6.740  17.268  0.00  0.00    +0.000 C 
BRANCH  13  14
ATOM     14  C   UNL     1       6.286   7.809  17.103  0.00  0.00    +0.000 C 
BRANCH  14  15
ATOM     15  C   UNL     1       7.675   7.207  17.317  0.00  0.00    +0.000 C 
BRANCH  15  19
ATOM     16  N   UNL     1       8.203   5.416  20.456  0.00  0.00    +0.000 NA
ATOM     17  C   UNL     1       8.024   5.556  19.192  0.00  0.00    +0.000 C 
ATOM     18  N   UNL     1       8.040   4.522  18.332  0.00  0.00    +0.000 N 
ATOM     19  N   UNL     1       7.824   6.784  18.685  0.00  0.00    +0.000 N 
ATOM     20  H   UNL     1       8.376   4.433  20.667  0.00  0.00    +0.000 HD
ATOM     21  H   UNL     1       7.918   3.610  18.751  0.00  0.00    +0.000 HD
ATOM     22  H   UNL     1       7.458   4.639  17.516  0.00  0.00    +0.000 HD
ATOM     23  H   UNL     1       7.862   7.515  19.387  0.00  0.00    +0.000 HD
ENDBRANCH  15  19
ENDBRANCH  14  15
ENDBRANCH  13  14
ENDBRANCH   1  13
TORSDOF 6
ENDMDL
MODEL 7
REMARK VINA RESULT:      -7.0      1.406      1.498
REMARK  Name = 
REMARK  6 active torsions:
REMARK  status: ('A' for Active; 'I' for Inactive)
REMARK    1  A    between atoms: N_4  and  C_5
REMARK    2  A    between atoms: C_5  and  C_6
REMARK    3  A    between atoms: C_6  and  C_7
REMARK    4  A    between atoms: C_7  and  C_8
REMARK    5  A    between atoms: C_8  and  C_9
REMARK    6  A    between atoms: C_9  and  C_11
REMARK                            x       y       z     vdW  Elec       q    Type
REMARK                         _______ _______ _______ _____ _____    ______ ____
ROOT
ATOM      1  C   UNL     1       5.572   4.276  16.008  0.00  0.00    +0.000 C 
ENDROOT
BRANCH   1   2
ATOM      2  C   UNL     1       4.773   5.311  16.792  0.00  0.00    +0.000 C 
ATOM      3  O   UNL     1       4.807   6.492  16.442  0.00  0.00    +0.000 OA
BRANCH   2   4
ATOM      4  C   UNL     1       3.957   4.796  17.886  0.00  0.00    +0.000 A 
ATOM      5  N   UNL     1       4.392   3.889  18.738  0.00  0.00    +0.000 NA
ATOM      6  C   UNL     1       3.387   3.572  19.635  0.00  0.00    +0.000 A 
ATOM      7  C   UNL     1       3.490   2.641  20.688  0.00  0.00    +0.000 A 
ATOM      8  C   UNL     1       2.386   2.396  21.509  0.00  0.00    +0.000 A 
ATOM      9  C   UNL     1       1.187   3.069  21.297  0.00  0.00    +0.000 A 
ATOM     10  C   UNL     1       1.062   4.008  20.266  0.00  0.00    +0.000 A 
ATOM     11  C   UNL     1       2.178   4.246  19.446  0.00  0.00    +0.000 A 
ATOM     12  S   UNL     1       2.346   5.326  18.114  0.00  0.00    +0.000 S 
ENDBRANCH   2   4
ENDBRANCH   1   2
BRANCH   1  13
ATOM     13  C   UNL     1       6.898   4.882  15.555  0.00  0.00    +0.000 C 
BRANCH  13  14
ATOM     14  C   UNL     1       7.119   4.753  14.047  0.00  0.00    +0.000 C 
BRANCH  14  15
ATOM     15  C   UNL     1       5.895   4.126  13.377  0.00  0.00    +0.000 C 
BRANCH  15  19
ATOM     16  N   UNL     1       6.219   1.211  11.202  0.00  0.00    +0.000 NA
ATOM     17  C   UNL     1       5.663   2.255  11.703  0.00  0.00    +0.000 C 
ATOM     18  N   UNL     1       4.490   2.742  11.260  0.00  0.00    +0.000 N 
ATOM     19  N   UNL     1       6.270   2.909  12.706  0.00  0.00    +0.000 N 
ATOM     20  H   UNL     1       5.648   0.860  10.432  0.00  0.00    +0.000 HD
ATOM     21  H   UNL     1       3.933   2.099  10.715  0.00  0.00    +0.000 HD
ATOM     22  H   UNL     1       3.936   3.216  11.959  0.00  0.00    +0.000 HD
ATOM     23  H   UNL     1       7.165   2.505  12.960  0.00  0.00    +0.000 HD
ENDBRANCH  15  19
ENDBRANCH  14  15
ENDBRANCH  13  14
ENDBRANCH   1  13
TORSDOF 6
ENDMDL
MODEL 8
REMARK VINA RESULT:      -6.9      3.953      6.688
REMARK  Name = 
REMARK  6 active torsions:
REMARK  status: ('A' for Active; 'I' for Inactive)
REMARK    1  A    between atoms: N_4  and  C_5
REMARK    2  A    between atoms: C_5  and  C_6
REMARK    3  A    between atoms: C_6  and  C_7
REMARK    4  A    between atoms: C_7  and  C_8
REMARK    5  A    between atoms: C_8  and  C_9
REMARK    6  A    between atoms: C_9  and  C_11
REMARK                            x       y       z     vdW  Elec       q    Type
REMARK                         _______ _______ _______ _____ _____    ______ ____
ROOT
ATOM      1  C   UNL     1       3.272   2.529  20.768  0.00  0.00    +0.000 C 
ENDROOT
BRANCH   1   2
ATOM      2  C   UNL     1       3.687   2.404  19.307  0.00  0.00    +0.000 C 
ATOM      3  O   UNL     1       3.248   1.471  18.633  0.00  0.00    +0.000 OA
BRANCH   2   4
ATOM      4  C   UNL     1       4.546   3.464  18.791  0.00  0.00    +0.000 A 
ATOM      5  N   UNL     1       5.569   3.948  19.467  0.00  0.00    +0.000 NA
ATOM      6  C   UNL     1       6.167   4.965  18.742  0.00  0.00    +0.000 A 
ATOM      7  C   UNL     1       7.289   5.714  19.150  0.00  0.00    +0.000 A 
ATOM      8  C   UNL     1       7.779   6.734  18.329  0.00  0.00    +0.000 A 
ATOM      9  C   UNL     1       7.168   7.012  17.110  0.00  0.00    +0.000 A 
ATOM     10  C   UNL     1       6.060   6.274  16.676  0.00  0.00    +0.000 A 
ATOM     11  C   UNL     1       5.576   5.252  17.509  0.00  0.00    +0.000 A 
ATOM     12  S   UNL     1       4.251   4.178  17.264  0.00  0.00    +0.000 S 
ENDBRANCH   2   4
ENDBRANCH   1   2
BRANCH   1  13
ATOM     13  C   UNL     1       1.755   2.408  20.887  0.00  0.00    +0.000 C 
BRANCH  13  14
ATOM     14  C   UNL     1       1.014   3.442  20.038  0.00  0.00    +0.000 C 
BRANCH  14  15
ATOM     15  C   UNL     1       1.268   4.854  20.567  0.00  0.00    +0.000 C 
BRANCH  15  19
ATOM     16  N   UNL     1       2.974   7.416  18.601  0.00  0.00    +0.000 NA
ATOM     17  C   UNL     1       2.331   6.926  19.600  0.00  0.00    +0.000 C 
ATOM     18  N   UNL     1       2.048   7.637  20.706  0.00  0.00    +0.000 N 
ATOM     19  N   UNL     1       1.928   5.646  19.562  0.00  0.00    +0.000 N 
ATOM     20  H   UNL     1       3.235   8.380  18.807  0.00  0.00    +0.000 HD
ATOM     21  H   UNL     1       2.112   8.640  20.604  0.00  0.00    +0.000 HD
ATOM     22  H   UNL     1       1.200   7.364  21.181  0.00  0.00    +0.000 HD
ATOM     23  H   UNL     1       2.210   5.165  18.715  0.00  0.00    +0.000 HD
ENDBRANCH  15  19
ENDBRANCH  14  15
ENDBRANCH  13  14
ENDBRANCH   1  13
TORSDOF 6
ENDMDL
MODEL 9
REMARK VINA RESULT:      -6.9      0.705      1.029
REMARK  Name = 
REMARK  6 active torsions:
REMARK  status: ('A' for Active; 'I' for Inactive)
REMARK    1  A    between atoms: N_4  and  C_5
REMARK    2  A    between atoms: C_5  and  C_6
REMARK    3  A    between atoms: C_6  and  C_7
REMARK    4  A    between atoms: C_7  and  C_8
REMARK    5  A    between atoms: C_8  and  C_9
REMARK    6  A    between atoms: C_9  and  C_11
REMARK                            x       y       z     vdW  Elec       q    Type
REMARK                         _______ _______ _______ _____ _____    ______ ____
ROOT
ATOM      1  C   UNL     1       6.340   6.142  17.131  0.00  0.00    +0.000 C 
ENDROOT
BRANCH   1   2
ATOM      2  C   UNL     1       6.435   5.077  18.218  0.00  0.00    +0.000 C 
ATOM      3  O   UNL     1       7.537   4.610  18.511  0.00  0.00    +0.000 OA
BRANCH   2   4
ATOM      4  C   UNL     1       5.186   4.730  18.887  0.00  0.00    +0.000 A 
ATOM      5  N   UNL     1       4.942   3.528  19.368  0.00  0.00    +0.000 NA
ATOM      6  C   UNL     1       3.668   3.492  19.909  0.00  0.00    +0.000 A 
ATOM      7  C   UNL     1       3.064   2.371  20.514  0.00  0.00    +0.000 A 
ATOM      8  C   UNL     1       1.756   2.464  20.998  0.00  0.00    +0.000 A 
ATOM      9  C   UNL     1       1.048   3.658  20.890  0.00  0.00    +0.000 A 
ATOM     10  C   UNL     1       1.629   4.788  20.305  0.00  0.00    +0.000 A 
ATOM     11  C   UNL     1       2.944   4.683  19.821  0.00  0.00    +0.000 A 
ATOM     12  S   UNL     1       3.927   5.877  19.061  0.00  0.00    +0.000 S 
ENDBRANCH   2   4
ENDBRANCH   1   2
BRANCH   1  13
ATOM     13  C   UNL     1       5.653   5.562  15.898  0.00  0.00    +0.000 C 
BRANCH  13  14
ATOM     14  C   UNL     1       6.193   4.184  15.516  0.00  0.00    +0.000 C 
BRANCH  14  15
ATOM     15  C   UNL     1       6.694   4.185  14.071  0.00  0.00    +0.000 C 
BRANCH  15  19
ATOM     16  N   UNL     1       4.279   3.198  11.515  0.00  0.00    +0.000 NA
ATOM     17  C   UNL     1       5.392   3.185  12.157  0.00  0.00    +0.000 C 
ATOM     18  N   UNL     1       6.387   2.325  11.875  0.00  0.00    +0.000 N 
ATOM     19  N   UNL     1       5.583   4.051  13.165  0.00  0.00    +0.000 N 
ATOM     20  H   UNL     1       4.284   2.459  10.811  0.00  0.00    +0.000 HD
ATOM     21  H   UNL     1       6.335   1.886  10.966  0.00  0.00    +0.000 HD
ATOM     22  H   UNL     1       7.316   2.672  12.069  0.00  0.00    +0.000 HD
ATOM     23  H   UNL     1       4.777   4.640  13.341  0.00  0.00    +0.000 HD
ENDBRANCH  15  19
ENDBRANCH  14  15
ENDBRANCH  13  14
ENDBRANCH   1  13
TORSDOF 6
ENDMDL
