MODEL 1
REMARK VINA RESULT:      -7.9      0.000      0.000
REMARK  Name = 
REMARK  6 active torsions:
REMARK  status: ('A' for Active; 'I' for Inactive)
REMARK    1  A    between atoms: C_2  and  C_3
REMARK    2  A    between atoms: C_3  and  C_4
REMARK    3  A    between atoms: C_3  and  N_17
REMARK    4  A    between atoms: C_4  and  C_5
REMARK    5  A    between atoms: C_8  and  C_9
REMARK    6  A    between atoms: C_18  and  C_20
REMARK                            x       y       z     vdW  Elec       q    Type
REMARK                         _______ _______ _______ _____ _____    ______ ____
ROOT
ATOM      1  C   UNL     1       1.448  11.111  18.677  0.00  0.00    +0.000 C 
ENDROOT
BRANCH   1   2
ATOM      2  N   UNL     1       0.095  11.281  18.123  0.00  0.00    +0.000 N 
ATOM      3  C   UNL     1      -1.029  11.295  18.929  0.00  0.00    +0.000 C 
ATOM      4  O   UNL     1      -0.950  11.174  20.148  0.00  0.00    +0.000 OA
ATOM      5  H   UNL     1      -0.037  11.242  17.117  0.00  0.00    +0.000 HD
BRANCH   3   6
ATOM      6  C   UNL     1      -2.359  11.556  18.178  0.00  0.00    +0.000 C 
ATOM      7  N   UNL     1      -2.140  11.961  16.752  0.00  0.00    +0.000 NA
ATOM      8  C   UNL     1      -2.901  10.949  15.965  0.00  0.00    +0.000 C 
ATOM      9  C   UNL     1      -4.401  11.234  16.144  0.00  0.00    +0.000 C 
ATOM     10  C   UNL     1      -4.658  10.783  17.592  0.00  0.00    +0.000 C 
ATOM     11  C   UNL     1      -3.260  10.314  18.049  0.00  0.00    +0.000 C 
ATOM     12  C   UNL     1      -2.723   9.672  16.775  0.00  0.00    +0.000 C 
ATOM     13  H   UNL     1      -1.154  11.882  16.508  0.00  0.00    +0.000 HD
ENDBRANCH   3   6
ENDBRANCH   1   2
BRANCH   1  15
ATOM     14  N   UNL     1       2.922  13.272  18.289  0.00  0.00    +0.000 NA
ATOM     15  C   UNL     1       2.271  12.333  18.468  0.00  0.00    +0.000 C 
ENDBRANCH   1  15
BRANCH   1  16
ATOM     16  C   UNL     1       2.138   9.891  18.036  0.00  0.00    +0.000 C 
BRANCH  16  17
ATOM     17  C   UNL     1       2.099   8.577  18.788  0.00  0.00    +0.000 A 
ATOM     18  C   UNL     1       1.468   8.415  20.028  0.00  0.00    +0.000 A 
ATOM     19  C   UNL     1       1.407   7.154  20.632  0.00  0.00    +0.000 A 
ATOM     20  C   UNL     1       1.964   6.032  20.009  0.00  0.00    +0.000 A 
ATOM     21  C   UNL     1       2.608   6.190  18.780  0.00  0.00    +0.000 A 
ATOM     22  C   UNL     1       2.664   7.446  18.186  0.00  0.00    +0.000 A 
ATOM     23  F   UNL     1       3.273   7.561  16.996  0.00  0.00    +0.000 F 
BRANCH  20  24
ATOM     24  C   UNL     1       1.841   4.725  20.620  0.00  0.00    +0.000 A 
ATOM     25  C   UNL     1       0.978   3.645  20.324  0.00  0.00    +0.000 A 
ATOM     26  N   UNL     1       1.184   2.591  21.118  0.00  0.00    +0.000 NA
ATOM     27  N   UNL     1       2.177   2.995  21.925  0.00  0.00    +0.000 N 
ATOM     28  C   UNL     1       2.600   4.268  21.674  0.00  0.00    +0.000 A 
ATOM     29  H   UNL     1       2.518   2.350  22.630  0.00  0.00    +0.000 HD
ENDBRANCH  20  24
ENDBRANCH  16  17
ENDBRANCH   1  16
TORSDOF 6
ENDMDL
MODEL 2
REMARK VINA RESULT:      -7.7      6.114      8.782
REMARK  Name = 
REMARK  6 active torsions:
REMARK  status: ('A' for Active; 'I' for Inactive)
REMARK    1  A    between atoms: C_2  and  C_3
REMARK    2  A    between atoms: C_3  and  C_4
REMARK    3  A    between atoms: C_3  and  N_17
REMARK    4  A    between atoms: C_4  and  C_5
REMARK    5  A    between atoms: C_8  and  C_9
REMARK    6  A    between atoms: C_18  and  C_20
REMARK                            x       y       z     vdW  Elec       q    Type
REMARK                         _______ _______ _______ _____ _____    ______ ____
ROOT
ATOM      1  C   UNL     1       5.519   5.187  16.261  0.00  0.00    +0.000 C 
ENDROOT
BRANCH   1   2
ATOM      2  N   UNL     1       4.295   4.627  16.857  0.00  0.00    +0.000 N 
ATOM      3  C   UNL     1       3.480   5.371  17.691  0.00  0.00    +0.000 C 
ATOM      4  O   UNL     1       3.736   6.540  17.967  0.00  0.00    +0.000 OA
ATOM      5  H   UNL     1       4.116   3.631  16.777  0.00  0.00    +0.000 HD
BRANCH   3   6
ATOM      6  C   UNL     1       2.200   4.639  18.166  0.00  0.00    +0.000 C 
ATOM      7  N   UNL     1       1.937   3.385  17.387  0.00  0.00    +0.000 NA
ATOM      8  C   UNL     1       1.889   2.315  18.425  0.00  0.00    +0.000 C 
ATOM      9  C   UNL     1       0.579   2.474  19.214  0.00  0.00    +0.000 C 
ATOM     10  C   UNL     1       0.844   3.734  20.055  0.00  0.00    +0.000 C 
ATOM     11  C   UNL     1       2.270   4.133  19.619  0.00  0.00    +0.000 C 
ATOM     12  C   UNL     1       2.927   2.769  19.442  0.00  0.00    +0.000 C 
ATOM     13  H   UNL     1       2.715   3.188  16.759  0.00  0.00    +0.000 HD
ENDBRANCH   3   6
ENDBRANCH   1   2
BRANCH   1  15
ATOM     14  N   UNL     1       6.232   3.840  14.101  0.00  0.00    +0.000 NA
ATOM     15  C   UNL     1       5.912   4.436  15.039  0.00  0.00    +0.000 C 
ENDBRANCH   1  15
BRANCH   1  16
ATOM     16  C   UNL     1       6.669   5.171  17.287  0.00  0.00    +0.000 C 
BRANCH  16  17
ATOM     17  C   UNL     1       7.325   6.489  17.640  0.00  0.00    +0.000 A 
ATOM     18  C   UNL     1       7.125   7.670  16.914  0.00  0.00    +0.000 A 
ATOM     19  C   UNL     1       7.704   8.871  17.341  0.00  0.00    +0.000 A 
ATOM     20  C   UNL     1       8.486   8.918  18.500  0.00  0.00    +0.000 A 
ATOM     21  C   UNL     1       8.702   7.740  19.219  0.00  0.00    +0.000 A 
ATOM     22  C   UNL     1       8.121   6.552  18.790  0.00  0.00    +0.000 A 
ATOM     23  F   UNL     1       8.332   5.442  19.514  0.00  0.00    +0.000 F 
BRANCH  20  24
ATOM     24  C   UNL     1       9.030  10.179  18.959  0.00  0.00    +0.000 A 
ATOM     25  C   UNL     1       9.365  10.621  20.259  0.00  0.00    +0.000 A 
ATOM     26  N   UNL     1       9.860  11.862  20.268  0.00  0.00    +0.000 NA
ATOM     27  N   UNL     1       9.839  12.216  18.974  0.00  0.00    +0.000 N 
ATOM     28  C   UNL     1       9.345  11.248  18.151  0.00  0.00    +0.000 A 
ATOM     29  H   UNL     1      10.177  13.140  18.722  0.00  0.00    +0.000 HD
ENDBRANCH  20  24
ENDBRANCH  16  17
ENDBRANCH   1  16
TORSDOF 6
ENDMDL
MODEL 3
REMARK VINA RESULT:      -7.7      4.461      6.577
REMARK  Name = 
REMARK  6 active torsions:
REMARK  status: ('A' for Active; 'I' for Inactive)
REMARK    1  A    between atoms: C_2  and  C_3
REMARK    2  A    between atoms: C_3  and  C_4
REMARK    3  A    between atoms: C_3  and  N_17
REMARK    4  A    between atoms: C_4  and  C_5
REMARK    5  A    between atoms: C_8  and  C_9
REMARK    6  A    between atoms: C_18  and  C_20
REMARK                            x       y       z     vdW  Elec       q    Type
REMARK                         _______ _______ _______ _____ _____    ______ ____
ROOT
ATOM      1  C   UNL     1       2.121   5.528  19.894  0.00  0.00    +0.000 C 
ENDROOT
BRANCH   1   2
ATOM      2  N   UNL     1       1.745   6.645  20.777  0.00  0.00    +0.000 N 
ATOM      3  C   UNL     1       1.667   7.947  20.319  0.00  0.00    +0.000 C 
ATOM      4  O   UNL     1       1.901   8.233  19.148  0.00  0.00    +0.000 OA
ATOM      5  H   UNL     1       1.682   6.485  21.779  0.00  0.00    +0.000 HD
BRANCH   3   6
ATOM      6  C   UNL     1       1.188   8.976  21.372  0.00  0.00    +0.000 C 
ATOM      7  N   UNL     1       1.305  10.389  20.884  0.00  0.00    +0.000 NA
ATOM      8  C   UNL     1      -0.081  10.929  20.997  0.00  0.00    +0.000 C 
ATOM      9  C   UNL     1      -0.392  11.138  22.488  0.00  0.00    +0.000 C 
ATOM     10  C   UNL     1      -0.560   9.698  23.001  0.00  0.00    +0.000 C 
ATOM     11  C   UNL     1      -0.305   8.859  21.730  0.00  0.00    +0.000 C 
ATOM     12  C   UNL     1      -0.952   9.727  20.658  0.00  0.00    +0.000 C 
ATOM     13  H   UNL     1       1.576  10.404  19.903  0.00  0.00    +0.000 HD
ENDBRANCH   3   6
ENDBRANCH   1   2
BRANCH   1  15
ATOM     14  N   UNL     1       1.232   3.234  20.862  0.00  0.00    +0.000 NA
ATOM     15  C   UNL     1       1.621   4.233  20.427  0.00  0.00    +0.000 C 
ENDBRANCH   1  15
BRANCH   1  16
ATOM     16  C   UNL     1       3.651   5.476  19.721  0.00  0.00    +0.000 C 
BRANCH  16  17
ATOM     17  C   UNL     1       4.201   5.283  18.324  0.00  0.00    +0.000 A 
ATOM     18  C   UNL     1       4.604   6.341  17.499  0.00  0.00    +0.000 A 
ATOM     19  C   UNL     1       5.173   6.086  16.246  0.00  0.00    +0.000 A 
ATOM     20  C   UNL     1       5.358   4.774  15.796  0.00  0.00    +0.000 A 
ATOM     21  C   UNL     1       4.944   3.715  16.608  0.00  0.00    +0.000 A 
ATOM     22  C   UNL     1       4.381   3.977  17.852  0.00  0.00    +0.000 A 
ATOM     23  F   UNL     1       4.011   2.938  18.615  0.00  0.00    +0.000 F 
BRANCH  20  24
ATOM     24  C   UNL     1       6.001   4.526  14.523  0.00  0.00    +0.000 A 
ATOM     25  C   UNL     1       5.627   3.688  13.447  0.00  0.00    +0.000 A 
ATOM     26  N   UNL     1       6.489   3.746  12.428  0.00  0.00    +0.000 NA
ATOM     27  N   UNL     1       7.417   4.617  12.851  0.00  0.00    +0.000 N 
ATOM     28  C   UNL     1       7.176   5.107  14.101  0.00  0.00    +0.000 A 
ATOM     29  H   UNL     1       8.194   4.832  12.233  0.00  0.00    +0.000 HD
ENDBRANCH  20  24
ENDBRANCH  16  17
ENDBRANCH   1  16
TORSDOF 6
ENDMDL
MODEL 4
REMARK VINA RESULT:      -7.6      4.322      8.828
REMARK  Name = 
REMARK  6 active torsions:
REMARK  status: ('A' for Active; 'I' for Inactive)
REMARK    1  A    between atoms: C_2  and  C_3
REMARK    2  A    between atoms: C_3  and  C_4
REMARK    3  A    between atoms: C_3  and  N_17
REMARK    4  A    between atoms: C_4  and  C_5
REMARK    5  A    between atoms: C_8  and  C_9
REMARK    6  A    between atoms: C_18  and  C_20
REMARK                            x       y       z     vdW  Elec       q    Type
REMARK                         _______ _______ _______ _____ _____    ______ ____
ROOT
ATOM      1  C   UNL     1       4.628   3.782  19.371  0.00  0.00    +0.000 C 
ENDROOT
BRANCH   1   2
ATOM      2  N   UNL     1       5.198   3.773  18.014  0.00  0.00    +0.000 N 
ATOM      3  C   UNL     1       6.422   4.351  17.730  0.00  0.00    +0.000 C 
ATOM      4  O   UNL     1       7.096   4.893  18.602  0.00  0.00    +0.000 OA
ATOM      5  H   UNL     1       4.621   3.468  17.236  0.00  0.00    +0.000 HD
BRANCH   3   6
ATOM      6  C   UNL     1       6.892   4.183  16.264  0.00  0.00    +0.000 C 
ATOM      7  N   UNL     1       6.028   3.231  15.493  0.00  0.00    +0.000 NA
ATOM      8  C   UNL     1       5.546   4.035  14.333  0.00  0.00    +0.000 C 
ATOM      9  C   UNL     1       6.726   4.237  13.368  0.00  0.00    +0.000 C 
ATOM     10  C   UNL     1       7.607   5.246  14.123  0.00  0.00    +0.000 C 
ATOM     11  C   UNL     1       6.813   5.473  15.428  0.00  0.00    +0.000 C 
ATOM     12  C   UNL     1       5.377   5.428  14.922  0.00  0.00    +0.000 C 
ATOM     13  H   UNL     1       5.221   2.954  16.049  0.00  0.00    +0.000 HD
ENDBRANCH   3   6
ENDBRANCH   1   2
BRANCH   1  15
ATOM     14  N   UNL     1       4.936   1.428  20.534  0.00  0.00    +0.000 NA
ATOM     15  C   UNL     1       4.806   2.464  20.036  0.00  0.00    +0.000 C 
ENDBRANCH   1  15
BRANCH   1  16
ATOM     16  C   UNL     1       3.133   4.153  19.321  0.00  0.00    +0.000 C 
BRANCH  16  17
ATOM     17  C   UNL     1       2.769   5.618  19.201  0.00  0.00    +0.000 A 
ATOM     18  C   UNL     1       2.991   6.377  18.046  0.00  0.00    +0.000 A 
ATOM     19  C   UNL     1       2.561   7.708  17.978  0.00  0.00    +0.000 A 
ATOM     20  C   UNL     1       1.896   8.302  19.056  0.00  0.00    +0.000 A 
ATOM     21  C   UNL     1       1.685   7.554  20.217  0.00  0.00    +0.000 A 
ATOM     22  C   UNL     1       2.114   6.233  20.275  0.00  0.00    +0.000 A 
ATOM     23  F   UNL     1       1.878   5.536  21.397  0.00  0.00    +0.000 F 
BRANCH  20  24
ATOM     24  C   UNL     1       1.407   9.661  18.949  0.00  0.00    +0.000 A 
ATOM     25  C   UNL     1       0.438  10.356  19.708  0.00  0.00    +0.000 A 
ATOM     26  N   UNL     1       0.275  11.617  19.301  0.00  0.00    +0.000 NA
ATOM     27  N   UNL     1       1.136  11.730  18.278  0.00  0.00    +0.000 N 
ATOM     28  C   UNL     1       1.832  10.585  18.021  0.00  0.00    +0.000 A 
ATOM     29  H   UNL     1       1.196  12.621  17.795  0.00  0.00    +0.000 HD
ENDBRANCH  20  24
ENDBRANCH  16  17
ENDBRANCH   1  16
TORSDOF 6
ENDMDL
MODEL 5
REMARK VINA RESULT:      -7.4      4.504      6.308
REMARK  Name = 
REMARK  6 active torsions:
REMARK  status: ('A' for Active; 'I' for Inactive)
REMARK    1  A    between atoms: C_2  and  C_3
REMARK    2  A    between atoms: C_3  and  C_4
REMARK    3  A    between atoms: C_3  and  N_17
REMARK    4  A    between atoms: C_4  and  C_5
REMARK    5  A    between atoms: C_8  and  C_9
REMARK    6  A    between atoms: C_18  and  C_20
REMARK                            x       y       z     vdW  Elec       q    Type
REMARK                         _______ _______ _______ _____ _____    ______ ____
ROOT
ATOM      1  C   UNL     1       2.406   5.992  19.521  0.00  0.00    +0.000 C 
ENDROOT
BRANCH   1   2
ATOM      2  N   UNL     1       2.055   7.329  20.026  0.00  0.00    +0.000 N 
ATOM      3  C   UNL     1       1.762   8.379  19.175  0.00  0.00    +0.000 C 
ATOM      4  O   UNL     1       1.774   8.243  17.955  0.00  0.00    +0.000 OA
ATOM      5  H   UNL     1       2.170   7.532  21.015  0.00  0.00    +0.000 HD
BRANCH   3   6
ATOM      6  C   UNL     1       1.347   9.692  19.886  0.00  0.00    +0.000 C 
ATOM      7  N   UNL     1       1.350  10.869  18.958  0.00  0.00    +0.000 NA
ATOM      8  C   UNL     1      -0.040  11.403  19.043  0.00  0.00    +0.000 C 
ATOM      9  C   UNL     1      -0.208  12.084  20.412  0.00  0.00    +0.000 C 
ATOM     10  C   UNL     1      -0.257  10.888  21.377  0.00  0.00    +0.000 C 
ATOM     11  C   UNL     1      -0.095   9.683  20.426  0.00  0.00    +0.000 C 
ATOM     12  C   UNL     1      -0.886  10.148  19.208  0.00  0.00    +0.000 C 
ATOM     13  H   UNL     1       1.519  10.566  18.001  0.00  0.00    +0.000 HD
ENDBRANCH   3   6
ENDBRANCH   1   2
BRANCH   1  15
ATOM     14  N   UNL     1       1.587   4.087  21.163  0.00  0.00    +0.000 NA
ATOM     15  C   UNL     1       1.945   4.929  20.455  0.00  0.00    +0.000 C 
ENDBRANCH   1  15
BRANCH   1  16
ATOM     16  C   UNL     1       3.927   5.885  19.305  0.00  0.00    +0.000 C 
BRANCH  16  17
ATOM     17  C   UNL     1       4.426   5.564  17.912  0.00  0.00    +0.000 A 
ATOM     18  C   UNL     1       4.750   6.542  16.963  0.00  0.00    +0.000 A 
ATOM     19  C   UNL     1       5.276   6.176  15.718  0.00  0.00    +0.000 A 
ATOM     20  C   UNL     1       5.496   4.831  15.401  0.00  0.00    +0.000 A 
ATOM     21  C   UNL     1       5.159   3.851  16.337  0.00  0.00    +0.000 A 
ATOM     22  C   UNL     1       4.638   4.223  17.571  0.00  0.00    +0.000 A 
ATOM     23  F   UNL     1       4.345   3.258  18.456  0.00  0.00    +0.000 F 
BRANCH  20  24
ATOM     24  C   UNL     1       6.094   4.473  14.132  0.00  0.00    +0.000 A 
ATOM     25  C   UNL     1       5.681   3.548  13.145  0.00  0.00    +0.000 A 
ATOM     26  N   UNL     1       6.507   3.514  12.096  0.00  0.00    +0.000 NA
ATOM     27  N   UNL     1       7.451   4.415  12.411  0.00  0.00    +0.000 N 
ATOM     28  C   UNL     1       7.254   5.010  13.622  0.00  0.00    +0.000 A 
ATOM     29  H   UNL     1       8.206   4.572  11.751  0.00  0.00    +0.000 HD
ENDBRANCH  20  24
ENDBRANCH  16  17
ENDBRANCH   1  16
TORSDOF 6
ENDMDL
MODEL 6
REMARK VINA RESULT:      -7.4      4.543      6.657
REMARK  Name = 
REMARK  6 active torsions:
REMARK  status: ('A' for Active; 'I' for Inactive)
REMARK    1  A    between atoms: C_2  and  C_3
REMARK    2  A    between atoms: C_3  and  C_4
REMARK    3  A    between atoms: C_3  and  N_17
REMARK    4  A    between atoms: C_4  and  C_5
REMARK    5  A    between atoms: C_8  and  C_9
REMARK    6  A    between atoms: C_18  and  C_20
REMARK                            x       y       z     vdW  Elec       q    Type
REMARK                         _______ _______ _______ _____ _____    ______ ____
ROOT
ATOM      1  C   UNL     1       2.349   5.720  19.415  0.00  0.00    +0.000 C 
ENDROOT
BRANCH   1   2
ATOM      2  N   UNL     1       1.934   6.714  20.418  0.00  0.00    +0.000 N 
ATOM      3  C   UNL     1       1.726   8.041  20.091  0.00  0.00    +0.000 C 
ATOM      4  O   UNL     1       1.870   8.452  18.943  0.00  0.00    +0.000 OA
ATOM      5  H   UNL     1       1.940   6.458  21.401  0.00  0.00    +0.000 HD
BRANCH   3   6
ATOM      6  C   UNL     1       1.224   8.924  21.261  0.00  0.00    +0.000 C 
ATOM      7  N   UNL     1       1.309  10.388  20.948  0.00  0.00    +0.000 NA
ATOM      8  C   UNL     1      -0.088  10.879  21.121  0.00  0.00    +0.000 C 
ATOM      9  C   UNL     1      -0.404  10.899  22.626  0.00  0.00    +0.000 C 
ATOM     10  C   UNL     1      -0.538   9.405  22.960  0.00  0.00    +0.000 C 
ATOM     11  C   UNL     1      -0.266   8.731  21.598  0.00  0.00    +0.000 C 
ATOM     12  C   UNL     1      -0.932   9.709  20.637  0.00  0.00    +0.000 C 
ATOM     13  H   UNL     1       1.580  10.528  19.976  0.00  0.00    +0.000 HD
ENDBRANCH   3   6
ENDBRANCH   1   2
BRANCH   1  15
ATOM     14  N   UNL     1       1.231   3.369  19.880  0.00  0.00    +0.000 NA
ATOM     15  C   UNL     1       1.730   4.394  19.686  0.00  0.00    +0.000 C 
ENDBRANCH   1  15
BRANCH   1  16
ATOM     16  C   UNL     1       3.885   5.593  19.392  0.00  0.00    +0.000 C 
BRANCH  16  17
ATOM     17  C   UNL     1       4.550   5.258  18.074  0.00  0.00    +0.000 A 
ATOM     18  C   UNL     1       4.914   3.959  17.701  0.00  0.00    +0.000 A 
ATOM     19  C   UNL     1       5.459   3.710  16.435  0.00  0.00    +0.000 A 
ATOM     20  C   UNL     1       5.642   4.750  15.517  0.00  0.00    +0.000 A 
ATOM     21  C   UNL     1       5.295   6.051  15.889  0.00  0.00    +0.000 A 
ATOM     22  C   UNL     1       4.754   6.289  17.148  0.00  0.00    +0.000 A 
ATOM     23  F   UNL     1       4.413   7.546  17.467  0.00  0.00    +0.000 F 
BRANCH  20  24
ATOM     24  C   UNL     1       6.152   4.468  14.191  0.00  0.00    +0.000 A 
ATOM     25  C   UNL     1       7.299   4.952  13.522  0.00  0.00    +0.000 A 
ATOM     26  N   UNL     1       7.434   4.436  12.297  0.00  0.00    +0.000 NA
ATOM     27  N   UNL     1       6.372   3.624  12.180  0.00  0.00    +0.000 N 
ATOM     28  C   UNL     1       5.569   3.613  13.283  0.00  0.00    +0.000 A 
ATOM     29  H   UNL     1       6.255   3.106  11.315  0.00  0.00    +0.000 HD
ENDBRANCH  20  24
ENDBRANCH  16  17
ENDBRANCH   1  16
TORSDOF 6
ENDMDL
MODEL 7
REMARK VINA RESULT:      -7.4      4.026      8.659
REMARK  Name = 
REMARK  6 active torsions:
REMARK  status: ('A' for Active; 'I' for Inactive)
REMARK    1  A    between atoms: C_2  and  C_3
REMARK    2  A    between atoms: C_3  and  C_4
REMARK    3  A    between atoms: C_3  and  N_17
REMARK    4  A    between atoms: C_4  and  C_5
REMARK    5  A    between atoms: C_8  and  C_9
REMARK    6  A    between atoms: C_18  and  C_20
REMARK                            x       y       z     vdW  Elec       q    Type
REMARK                         _______ _______ _______ _____ _____    ______ ____
ROOT
ATOM      1  C   UNL     1       4.622   3.423  19.819  0.00  0.00    +0.000 C 
ENDROOT
BRANCH   1   2
ATOM      2  N   UNL     1       5.223   3.431  18.475  0.00  0.00    +0.000 N 
ATOM      3  C   UNL     1       6.096   4.424  18.070  0.00  0.00    +0.000 C 
ATOM      4  O   UNL     1       6.419   5.343  18.817  0.00  0.00    +0.000 OA
ATOM      5  H   UNL     1       4.881   2.779  17.776  0.00  0.00    +0.000 HD
BRANCH   3   6
ATOM      6  C   UNL     1       6.682   4.229  16.649  0.00  0.00    +0.000 C 
ATOM      7  N   UNL     1       5.819   3.354  15.791  0.00  0.00    +0.000 NA
ATOM      8  C   UNL     1       5.507   4.201  14.604  0.00  0.00    +0.000 C 
ATOM      9  C   UNL     1       6.782   4.317  13.751  0.00  0.00    +0.000 C 
ATOM     10  C   UNL     1       7.667   5.249  14.595  0.00  0.00    +0.000 C 
ATOM     11  C   UNL     1       6.779   5.528  15.827  0.00  0.00    +0.000 C 
ATOM     12  C   UNL     1       5.394   5.600  15.195  0.00  0.00    +0.000 C 
ATOM     13  H   UNL     1       4.946   3.138  16.268  0.00  0.00    +0.000 HD
ENDBRANCH   3   6
ENDBRANCH   1   2
BRANCH   1  15
ATOM     14  N   UNL     1       5.129   1.141  21.056  0.00  0.00    +0.000 NA
ATOM     15  C   UNL     1       4.909   2.146  20.526  0.00  0.00    +0.000 C 
ENDBRANCH   1  15
BRANCH   1  16
ATOM     16  C   UNL     1       3.101   3.648  19.726  0.00  0.00    +0.000 C 
BRANCH  16  17
ATOM     17  C   UNL     1       2.601   5.070  19.579  0.00  0.00    +0.000 A 
ATOM     18  C   UNL     1       2.199   5.863  20.660  0.00  0.00    +0.000 A 
ATOM     19  C   UNL     1       1.818   7.195  20.459  0.00  0.00    +0.000 A 
ATOM     20  C   UNL     1       1.838   7.762  19.180  0.00  0.00    +0.000 A 
ATOM     21  C   UNL     1       2.223   6.970  18.095  0.00  0.00    +0.000 A 
ATOM     22  C   UNL     1       2.601   5.648  18.303  0.00  0.00    +0.000 A 
ATOM     23  F   UNL     1       2.984   4.921  17.243  0.00  0.00    +0.000 F 
BRANCH  20  24
ATOM     24  C   UNL     1       1.496   9.157  18.997  0.00  0.00    +0.000 A 
ATOM     25  C   UNL     1       0.719  10.028  19.794  0.00  0.00    +0.000 A 
ATOM     26  N   UNL     1       0.648  11.262  19.286  0.00  0.00    +0.000 NA
ATOM     27  N   UNL     1       1.376  11.180  18.161  0.00  0.00    +0.000 N 
ATOM     28  C   UNL     1       1.898   9.940  17.939  0.00  0.00    +0.000 A 
ATOM     29  H   UNL     1       1.473  12.013  17.589  0.00  0.00    +0.000 HD
ENDBRANCH  20  24
ENDBRANCH  16  17
ENDBRANCH   1  16
TORSDOF 6
ENDMDL
MODEL 8
REMARK VINA RESULT:      -7.3      3.703      8.645
REMARK  Name = 
REMARK  6 active torsions:
REMARK  status: ('A' for Active; 'I' for Inactive)
REMARK    1  A    between atoms: C_2  and  C_3
REMARK    2  A    between atoms: C_3  and  C_4
REMARK    3  A    between atoms: C_3  and  N_17
REMARK    4  A    between atoms: C_4  and  C_5
REMARK    5  A    between atoms: C_8  and  C_9
REMARK    6  A    between atoms: C_18  and  C_20
REMARK                            x       y       z     vdW  Elec       q    Type
REMARK                         _______ _______ _______ _____ _____    ______ ____
ROOT
ATOM      1  C   UNL     1       3.399   4.774  19.860  0.00  0.00    +0.000 C 
ENDROOT
BRANCH   1   2
ATOM      2  N   UNL     1       4.213   4.554  18.654  0.00  0.00    +0.000 N 
ATOM      3  C   UNL     1       5.582   4.751  18.649  0.00  0.00    +0.000 C 
ATOM      4  O   UNL     1       6.185   5.112  19.656  0.00  0.00    +0.000 OA
ATOM      5  H   UNL     1       3.749   4.394  17.765  0.00  0.00    +0.000 HD
BRANCH   3   6
ATOM      6  C   UNL     1       6.281   4.401  17.311  0.00  0.00    +0.000 C 
ATOM      7  N   UNL     1       5.431   3.533  16.433  0.00  0.00    +0.000 NA
ATOM      8  C   UNL     1       5.307   4.309  15.165  0.00  0.00    +0.000 C 
ATOM      9  C   UNL     1       6.662   4.257  14.439  0.00  0.00    +0.000 C 
ATOM     10  C   UNL     1       7.541   5.178  15.302  0.00  0.00    +0.000 C 
ATOM     11  C   UNL     1       6.568   5.621  16.416  0.00  0.00    +0.000 C 
ATOM     12  C   UNL     1       5.261   5.753  15.643  0.00  0.00    +0.000 C 
ATOM     13  H   UNL     1       4.501   3.425  16.834  0.00  0.00    +0.000 HD
ENDBRANCH   3   6
ENDBRANCH   1   2
BRANCH   1  15
ATOM     14  N   UNL     1       3.033   2.528  21.207  0.00  0.00    +0.000 NA
ATOM     15  C   UNL     1       3.192   3.504  20.607  0.00  0.00    +0.000 C 
ENDBRANCH   1  15
BRANCH   1  16
ATOM     16  C   UNL     1       2.040   5.395  19.481  0.00  0.00    +0.000 C 
BRANCH  16  17
ATOM     17  C   UNL     1       1.988   6.885  19.219  0.00  0.00    +0.000 A 
ATOM     18  C   UNL     1       2.336   7.465  17.993  0.00  0.00    +0.000 A 
ATOM     19  C   UNL     1       2.193   8.844  17.796  0.00  0.00    +0.000 A 
ATOM     20  C   UNL     1       1.695   9.666  18.813  0.00  0.00    +0.000 A 
ATOM     21  C   UNL     1       1.362   9.095  20.043  0.00  0.00    +0.000 A 
ATOM     22  C   UNL     1       1.506   7.724  20.230  0.00  0.00    +0.000 A 
ATOM     23  F   UNL     1       1.158   7.204  21.417  0.00  0.00    +0.000 F 
BRANCH  20  24
ATOM     24  C   UNL     1       1.500  11.081  18.573  0.00  0.00    +0.000 A 
ATOM     25  C   UNL     1       0.386  11.914  18.824  0.00  0.00    +0.000 A 
ATOM     26  N   UNL     1       0.604  13.183  18.470  0.00  0.00    +0.000 NA
ATOM     27  N   UNL     1       1.857  13.163  17.989  0.00  0.00    +0.000 N 
ATOM     28  C   UNL     1       2.434  11.928  18.021  0.00  0.00    +0.000 A 
ATOM     29  H   UNL     1       2.257  14.033  17.651  0.00  0.00    +0.000 HD
ENDBRANCH  20  24
ENDBRANCH  16  17
ENDBRANCH   1  16
TORSDOF 6
ENDMDL
MODEL 9
REMARK VINA RESULT:      -7.3      6.160      8.940
REMARK  Name = 
REMARK  6 active torsions:
REMARK  status: ('A' for Active; 'I' for Inactive)
REMARK    1  A    between atoms: C_2  and  C_3
REMARK    2  A    between atoms: C_3  and  C_4
REMARK    3  A    between atoms: C_3  and  N_17
REMARK    4  A    between atoms: C_4  and  C_5
REMARK    5  A    between atoms: C_8  and  C_9
REMARK    6  A    between atoms: C_18  and  C_20
REMARK                            x       y       z     vdW  Elec       q    Type
REMARK                         _______ _______ _______ _____ _____    ______ ____
ROOT
ATOM      1  C   UNL     1       5.527   4.984  16.729  0.00  0.00    +0.000 C 
ENDROOT
BRANCH   1   2
ATOM      2  N   UNL     1       4.637   4.199  17.599  0.00  0.00    +0.000 N 
ATOM      3  C   UNL     1       3.435   4.702  18.061  0.00  0.00    +0.000 C 
ATOM      4  O   UNL     1       3.048   5.827  17.760  0.00  0.00    +0.000 OA
ATOM      5  H   UNL     1       4.973   3.324  17.992  0.00  0.00    +0.000 HD
BRANCH   3   6
ATOM      6  C   UNL     1       2.599   3.707  18.906  0.00  0.00    +0.000 C 
ATOM      7  N   UNL     1       3.412   3.046  19.978  0.00  0.00    +0.000 NA
ATOM      8  C   UNL     1       2.689   3.379  21.240  0.00  0.00    +0.000 C 
ATOM      9  C   UNL     1       1.391   2.555  21.278  0.00  0.00    +0.000 C 
ATOM     10  C   UNL     1       0.524   3.245  20.212  0.00  0.00    +0.000 C 
ATOM     11  C   UNL     1       1.454   4.365  19.697  0.00  0.00    +0.000 C 
ATOM     12  C   UNL     1       2.163   4.784  20.980  0.00  0.00    +0.000 C 
ATOM     13  H   UNL     1       4.342   3.459  20.024  0.00  0.00    +0.000 HD
ENDBRANCH   3   6
ENDBRANCH   1   2
BRANCH   1  15
ATOM     14  N   UNL     1       5.641   3.964  14.292  0.00  0.00    +0.000 NA
ATOM     15  C   UNL     1       5.578   4.411  15.357  0.00  0.00    +0.000 C 
ENDBRANCH   1  15
BRANCH   1  16
ATOM     16  C   UNL     1       6.944   5.047  17.331  0.00  0.00    +0.000 C 
BRANCH  16  17
ATOM     17  C   UNL     1       7.513   6.408  17.669  0.00  0.00    +0.000 A 
ATOM     18  C   UNL     1       7.311   7.547  16.879  0.00  0.00    +0.000 A 
ATOM     19  C   UNL     1       7.804   8.792  17.290  0.00  0.00    +0.000 A 
ATOM     20  C   UNL     1       8.500   8.924  18.497  0.00  0.00    +0.000 A 
ATOM     21  C   UNL     1       8.719   7.789  19.280  0.00  0.00    +0.000 A 
ATOM     22  C   UNL     1       8.225   6.557  18.866  0.00  0.00    +0.000 A 
ATOM     23  F   UNL     1       8.434   5.489  19.651  0.00  0.00    +0.000 F 
BRANCH  20  24
ATOM     24  C   UNL     1       8.954  10.227  18.935  0.00  0.00    +0.000 A 
ATOM     25  C   UNL     1       9.380  10.677  20.205  0.00  0.00    +0.000 A 
ATOM     26  N   UNL     1       9.737  11.965  20.201  0.00  0.00    +0.000 NA
ATOM     27  N   UNL     1       9.536  12.341  18.929  0.00  0.00    +0.000 N 
ATOM     28  C   UNL     1       9.060  11.341  18.132  0.00  0.00    +0.000 A 
ATOM     29  H   UNL     1       9.743  13.301  18.672  0.00  0.00    +0.000 HD
ENDBRANCH  20  24
ENDBRANCH  16  17
ENDBRANCH   1  16
TORSDOF 6
ENDMDL
