MODEL 1
REMARK VINA RESULT:      -8.0      0.000      0.000
REMARK  Name = 
REMARK  4 active torsions:
REMARK  status: ('A' for Active; 'I' for Inactive)
REMARK    1  A    between atoms: C_2  and  C_3
REMARK    2  A    between atoms: C_2  and  C_16
REMARK    3  A    between atoms: C_3  and  C_4
REMARK    4  A    between atoms: C_4  and  C_6
REMARK                            x       y       z     vdW  Elec       q    Type
REMARK                         _______ _______ _______ _____ _____    ______ ____
ROOT
ATOM      1  C   UNL     1       5.641   6.361  18.512  0.00  0.00    +0.000 C 
ENDROOT
BRANCH   1   3
ATOM      2  O   UNL     1       6.713   4.190  18.536  0.00  0.00    +0.000 OA
ATOM      3  C   UNL     1       6.516   5.264  17.973  0.00  0.00    +0.000 C 
BRANCH   3   4
ATOM      4  C   UNL     1       7.109   5.504  16.589  0.00  0.00    +0.000 C 
ATOM      5  O   UNL     1       7.769   6.515  16.415  0.00  0.00    +0.000 OA
ATOM      6  N   UNL     1       6.705   4.561  15.672  0.00  0.00    +0.000 N 
ATOM      7  C   UNL     1       7.033   4.679  14.355  0.00  0.00    +0.000 A 
ATOM      8  N   UNL     1       7.864   5.521  13.801  0.00  0.00    +0.000 NA
ATOM      9  C   UNL     1       7.864   5.339  12.435  0.00  0.00    +0.000 A 
ATOM     10  C   UNL     1       7.005   4.366  11.969  0.00  0.00    +0.000 A 
ATOM     11  S   UNL     1       6.222   3.608  13.299  0.00  0.00    +0.000 S 
ATOM     12  H   UNL     1       6.068   3.825  15.965  0.00  0.00    +0.000 HD
ENDBRANCH   3   4
ENDBRANCH   1   3
BRANCH   1  13
ATOM     13  C   UNL     1       4.239   6.346  17.951  0.00  0.00    +0.000 C 
ATOM     14  O   UNL     1       3.993   6.779  16.830  0.00  0.00    +0.000 OA
BRANCH  13  15
ATOM     15  C   UNL     1       3.146   5.793  18.828  0.00  0.00    +0.000 A 
ATOM     16  C   UNL     1       2.592   6.645  19.797  0.00  0.00    +0.000 A 
ATOM     17  C   UNL     1       1.573   6.206  20.635  0.00  0.00    +0.000 A 
ATOM     18  C   UNL     1       1.102   4.903  20.522  0.00  0.00    +0.000 A 
ATOM     19  C   UNL     1       1.636   4.023  19.573  0.00  0.00    +0.000 A 
ATOM     20  C   UNL     1       1.131   2.714  19.494  0.00  0.00    +0.000 A 
ATOM     21  C   UNL     1       1.624   1.808  18.562  0.00  0.00    +0.000 A 
ATOM     22  C   UNL     1       2.630   2.201  17.691  0.00  0.00    +0.000 A 
ATOM     23  C   UNL     1       3.143   3.500  17.756  0.00  0.00    +0.000 A 
ATOM     24  C   UNL     1       2.674   4.450  18.699  0.00  0.00    +0.000 A 
ENDBRANCH  13  15
ENDBRANCH   1  13
TORSDOF 4
ENDMDL
MODEL 2
REMARK VINA RESULT:      -7.8      5.559      7.750
REMARK  Name = 
REMARK  4 active torsions:
REMARK  status: ('A' for Active; 'I' for Inactive)
REMARK    1  A    between atoms: C_2  and  C_3
REMARK    2  A    between atoms: C_2  and  C_16
REMARK    3  A    between atoms: C_3  and  C_4
REMARK    4  A    between atoms: C_4  and  C_6
REMARK                            x       y       z     vdW  Elec       q    Type
REMARK                         _______ _______ _______ _____ _____    ______ ____
ROOT
ATOM      1  C   UNL     1       1.298   8.254  17.736  0.00  0.00    +0.000 C 
ENDROOT
BRANCH   1   3
ATOM      2  O   UNL     1       2.164  10.486  18.101  0.00  0.00    +0.000 OA
ATOM      3  C   UNL     1       1.214   9.706  18.115  0.00  0.00    +0.000 C 
BRANCH   3   4
ATOM      4  C   UNL     1      -0.179  10.230  18.446  0.00  0.00    +0.000 C 
ATOM      5  O   UNL     1      -0.524  10.240  19.617  0.00  0.00    +0.000 OA
ATOM      6  N   UNL     1      -0.913  10.524  17.321  0.00  0.00    +0.000 N 
ATOM      7  C   UNL     1      -2.223  10.887  17.414  0.00  0.00    +0.000 A 
ATOM      8  N   UNL     1      -2.907  11.177  18.488  0.00  0.00    +0.000 NA
ATOM      9  C   UNL     1      -4.216  11.440  18.146  0.00  0.00    +0.000 A 
ATOM     10  C   UNL     1      -4.510  11.321  16.804  0.00  0.00    +0.000 A 
ATOM     11  S   UNL     1      -3.078  10.932  15.935  0.00  0.00    +0.000 S 
ATOM     12  H   UNL     1      -0.501  10.367  16.405  0.00  0.00    +0.000 HD
ENDBRANCH   3   4
ENDBRANCH   1   3
BRANCH   1  13
ATOM     13  C   UNL     1       2.222   7.452  18.622  0.00  0.00    +0.000 C 
ATOM     14  O   UNL     1       2.299   7.667  19.828  0.00  0.00    +0.000 OA
BRANCH  13  15
ATOM     15  C   UNL     1       3.061   6.387  17.967  0.00  0.00    +0.000 A 
ATOM     16  C   UNL     1       4.205   6.797  17.263  0.00  0.00    +0.000 A 
ATOM     17  C   UNL     1       5.032   5.868  16.642  0.00  0.00    +0.000 A 
ATOM     18  C   UNL     1       4.719   4.515  16.707  0.00  0.00    +0.000 A 
ATOM     19  C   UNL     1       3.581   4.070  17.392  0.00  0.00    +0.000 A 
ATOM     20  C   UNL     1       3.301   2.694  17.431  0.00  0.00    +0.000 A 
ATOM     21  C   UNL     1       2.188   2.205  18.106  0.00  0.00    +0.000 A 
ATOM     22  C   UNL     1       1.340   3.088  18.757  0.00  0.00    +0.000 A 
ATOM     23  C   UNL     1       1.605   4.462  18.729  0.00  0.00    +0.000 A 
ATOM     24  C   UNL     1       2.723   5.000  18.043  0.00  0.00    +0.000 A 
ENDBRANCH  13  15
ENDBRANCH   1  13
TORSDOF 4
ENDMDL
MODEL 3
REMARK VINA RESULT:      -7.6      5.227      7.873
REMARK  Name = 
REMARK  4 active torsions:
REMARK  status: ('A' for Active; 'I' for Inactive)
REMARK    1  A    between atoms: C_2  and  C_3
REMARK    2  A    between atoms: C_2  and  C_16
REMARK    3  A    between atoms: C_3  and  C_4
REMARK    4  A    between atoms: C_4  and  C_6
REMARK                            x       y       z     vdW  Elec       q    Type
REMARK                         _______ _______ _______ _____ _____    ______ ____
ROOT
ATOM      1  C   UNL     1       1.470   8.390  17.847  0.00  0.00    +0.000 C 
ENDROOT
BRANCH   1   3
ATOM      2  O   UNL     1       2.655  10.486  17.595  0.00  0.00    +0.000 OA
ATOM      3  C   UNL     1       1.725   9.852  18.087  0.00  0.00    +0.000 C 
BRANCH   3   4
ATOM      4  C   UNL     1       0.686  10.580  18.932  0.00  0.00    +0.000 C 
ATOM      5  O   UNL     1       0.245  11.638  18.512  0.00  0.00    +0.000 OA
ATOM      6  N   UNL     1       0.470   9.968  20.145  0.00  0.00    +0.000 N 
ATOM      7  C   UNL     1      -0.333  10.541  21.085  0.00  0.00    +0.000 A 
ATOM      8  N   UNL     1      -1.116  11.578  20.956  0.00  0.00    +0.000 NA
ATOM      9  C   UNL     1      -1.712  11.861  22.167  0.00  0.00    +0.000 A 
ATOM     10  C   UNL     1      -1.347  11.037  23.211  0.00  0.00    +0.000 A 
ATOM     11  S   UNL     1      -0.272   9.825  22.635  0.00  0.00    +0.000 S 
ATOM     12  H   UNL     1       0.997   9.132  20.379  0.00  0.00    +0.000 HD
ENDBRANCH   3   4
ENDBRANCH   1   3
BRANCH   1  13
ATOM     13  C   UNL     1       2.316   7.480  18.705  0.00  0.00    +0.000 C 
ATOM     14  O   UNL     1       2.326   7.580  19.928  0.00  0.00    +0.000 OA
BRANCH  13  15
ATOM     15  C   UNL     1       3.166   6.455  18.002  0.00  0.00    +0.000 A 
ATOM     16  C   UNL     1       4.323   6.904  17.346  0.00  0.00    +0.000 A 
ATOM     17  C   UNL     1       5.161   6.013  16.684  0.00  0.00    +0.000 A 
ATOM     18  C   UNL     1       4.845   4.659  16.661  0.00  0.00    +0.000 A 
ATOM     19  C   UNL     1       3.694   4.177  17.297  0.00  0.00    +0.000 A 
ATOM     20  C   UNL     1       3.412   2.801  17.248  0.00  0.00    +0.000 A 
ATOM     21  C   UNL     1       2.287   2.275  17.872  0.00  0.00    +0.000 A 
ATOM     22  C   UNL     1       1.428   3.119  18.559  0.00  0.00    +0.000 A 
ATOM     23  C   UNL     1       1.695   4.491  18.619  0.00  0.00    +0.000 A 
ATOM     24  C   UNL     1       2.826   5.067  17.987  0.00  0.00    +0.000 A 
ENDBRANCH  13  15
ENDBRANCH   1  13
TORSDOF 4
ENDMDL
MODEL 4
REMARK VINA RESULT:      -7.5      0.689      2.170
REMARK  Name = 
REMARK  4 active torsions:
REMARK  status: ('A' for Active; 'I' for Inactive)
REMARK    1  A    between atoms: C_2  and  C_3
REMARK    2  A    between atoms: C_2  and  C_16
REMARK    3  A    between atoms: C_3  and  C_4
REMARK    4  A    between atoms: C_4  and  C_6
REMARK                            x       y       z     vdW  Elec       q    Type
REMARK                         _______ _______ _______ _____ _____    ______ ____
ROOT
ATOM      1  C   UNL     1       5.739   6.198  18.468  0.00  0.00    +0.000 C 
ENDROOT
BRANCH   1   3
ATOM      2  O   UNL     1       7.333   4.380  18.610  0.00  0.00    +0.000 OA
ATOM      3  C   UNL     1       6.845   5.309  17.971  0.00  0.00    +0.000 C 
BRANCH   3   4
ATOM      4  C   UNL     1       7.304   5.554  16.538  0.00  0.00    +0.000 C 
ATOM      5  O   UNL     1       7.863   6.609  16.287  0.00  0.00    +0.000 OA
ATOM      6  N   UNL     1       6.907   4.555  15.679  0.00  0.00    +0.000 N 
ATOM      7  C   UNL     1       7.119   4.659  14.337  0.00  0.00    +0.000 A 
ATOM      8  N   UNL     1       7.830   5.547  13.697  0.00  0.00    +0.000 NA
ATOM      9  C   UNL     1       7.736   5.325  12.340  0.00  0.00    +0.000 A 
ATOM     10  C   UNL     1       6.926   4.273  11.969  0.00  0.00    +0.000 A 
ATOM     11  S   UNL     1       6.316   3.495  13.377  0.00  0.00    +0.000 S 
ATOM     12  H   UNL     1       6.358   3.779  16.040  0.00  0.00    +0.000 HD
ENDBRANCH   3   4
ENDBRANCH   1   3
BRANCH   1  13
ATOM     13  C   UNL     1       4.472   6.098  17.651  0.00  0.00    +0.000 C 
ATOM     14  O   UNL     1       4.084   7.032  16.957  0.00  0.00    +0.000 OA
BRANCH  13  15
ATOM     15  C   UNL     1       3.691   4.814  17.735  0.00  0.00    +0.000 A 
ATOM     16  C   UNL     1       3.901   3.854  16.731  0.00  0.00    +0.000 A 
ATOM     17  C   UNL     1       3.222   2.641  16.750  0.00  0.00    +0.000 A 
ATOM     18  C   UNL     1       2.314   2.376  17.769  0.00  0.00    +0.000 A 
ATOM     19  C   UNL     1       2.073   3.313  18.782  0.00  0.00    +0.000 A 
ATOM     20  C   UNL     1       1.145   3.004  19.792  0.00  0.00    +0.000 A 
ATOM     21  C   UNL     1       0.880   3.899  20.822  0.00  0.00    +0.000 A 
ATOM     22  C   UNL     1       1.543   5.116  20.859  0.00  0.00    +0.000 A 
ATOM     23  C   UNL     1       2.470   5.439  19.862  0.00  0.00    +0.000 A 
ATOM     24  C   UNL     1       2.760   4.558  18.790  0.00  0.00    +0.000 A 
ENDBRANCH  13  15
ENDBRANCH   1  13
TORSDOF 4
ENDMDL
MODEL 5
REMARK VINA RESULT:      -7.5      1.405      2.798
REMARK  Name = 
REMARK  4 active torsions:
REMARK  status: ('A' for Active; 'I' for Inactive)
REMARK    1  A    between atoms: C_2  and  C_3
REMARK    2  A    between atoms: C_2  and  C_16
REMARK    3  A    between atoms: C_3  and  C_4
REMARK    4  A    between atoms: C_4  and  C_6
REMARK                            x       y       z     vdW  Elec       q    Type
REMARK                         _______ _______ _______ _____ _____    ______ ____
ROOT
ATOM      1  C   UNL     1       5.605   4.120  18.216  0.00  0.00    +0.000 C 
ENDROOT
BRANCH   1   3
ATOM      2  O   UNL     1       7.031   5.892  19.046  0.00  0.00    +0.000 OA
ATOM      3  C   UNL     1       6.601   5.240  18.098  0.00  0.00    +0.000 C 
BRANCH   3   4
ATOM      4  C   UNL     1       7.159   5.492  16.701  0.00  0.00    +0.000 C 
ATOM      5  O   UNL     1       7.813   6.506  16.520  0.00  0.00    +0.000 OA
ATOM      6  N   UNL     1       6.733   4.556  15.787  0.00  0.00    +0.000 N 
ATOM      7  C   UNL     1       7.028   4.686  14.463  0.00  0.00    +0.000 A 
ATOM      8  N   UNL     1       7.843   5.534  13.895  0.00  0.00    +0.000 NA
ATOM      9  C   UNL     1       7.809   5.364  12.528  0.00  0.00    +0.000 A 
ATOM     10  C   UNL     1       6.940   4.393  12.076  0.00  0.00    +0.000 A 
ATOM     11  S   UNL     1       6.192   3.623  13.419  0.00  0.00    +0.000 S 
ATOM     12  H   UNL     1       6.106   3.817  16.090  0.00  0.00    +0.000 HD
ENDBRANCH   3   4
ENDBRANCH   1   3
BRANCH   1  13
ATOM     13  C   UNL     1       4.205   4.512  17.809  0.00  0.00    +0.000 C 
ATOM     14  O   UNL     1       3.811   4.374  16.655  0.00  0.00    +0.000 OA
BRANCH  13  15
ATOM     15  C   UNL     1       3.312   5.099  18.869  0.00  0.00    +0.000 A 
ATOM     16  C   UNL     1       2.979   4.288  19.966  0.00  0.00    +0.000 A 
ATOM     17  C   UNL     1       2.167   4.767  20.988  0.00  0.00    +0.000 A 
ATOM     18  C   UNL     1       1.668   6.062  20.922  0.00  0.00    +0.000 A 
ATOM     19  C   UNL     1       1.972   6.897  19.839  0.00  0.00    +0.000 A 
ATOM     20  C   UNL     1       1.444   8.199  19.810  0.00  0.00    +0.000 A 
ATOM     21  C   UNL     1       1.726   9.067  18.761  0.00  0.00    +0.000 A 
ATOM     22  C   UNL     1       2.544   8.643  17.724  0.00  0.00    +0.000 A 
ATOM     23  C   UNL     1       3.078   7.351  17.737  0.00  0.00    +0.000 A 
ATOM     24  C   UNL     1       2.806   6.434  18.784  0.00  0.00    +0.000 A 
ENDBRANCH  13  15
ENDBRANCH   1  13
TORSDOF 4
ENDMDL
MODEL 6
REMARK VINA RESULT:      -7.4      1.612      2.482
REMARK  Name = 
REMARK  4 active torsions:
REMARK  status: ('A' for Active; 'I' for Inactive)
REMARK    1  A    between atoms: C_2  and  C_3
REMARK    2  A    between atoms: C_2  and  C_16
REMARK    3  A    between atoms: C_3  and  C_4
REMARK    4  A    between atoms: C_4  and  C_6
REMARK                            x       y       z     vdW  Elec       q    Type
REMARK                         _______ _______ _______ _____ _____    ______ ____
ROOT
ATOM      1  C   UNL     1       6.967   4.464  17.510  0.00  0.00    +0.000 C 
ENDROOT
BRANCH   1   3
ATOM      2  O   UNL     1       7.616   6.348  16.134  0.00  0.00    +0.000 OA
ATOM      3  C   UNL     1       6.930   5.340  16.289  0.00  0.00    +0.000 C 
BRANCH   3   4
ATOM      4  C   UNL     1       6.035   4.861  15.152  0.00  0.00    +0.000 C 
ATOM      5  O   UNL     1       4.826   4.913  15.312  0.00  0.00    +0.000 OA
ATOM      6  N   UNL     1       6.751   4.317  14.111  0.00  0.00    +0.000 N 
ATOM      7  C   UNL     1       6.118   3.725  13.059  0.00  0.00    +0.000 A 
ATOM      8  N   UNL     1       4.843   3.726  12.778  0.00  0.00    +0.000 NA
ATOM      9  C   UNL     1       4.616   2.962  11.654  0.00  0.00    +0.000 A 
ATOM     10  C   UNL     1       5.735   2.367  11.110  0.00  0.00    +0.000 A 
ATOM     11  S   UNL     1       7.127   2.841  12.001  0.00  0.00    +0.000 S 
ATOM     12  H   UNL     1       7.764   4.266  14.178  0.00  0.00    +0.000 HD
ENDBRANCH   3   4
ENDBRANCH   1   3
BRANCH   1  13
ATOM     13  C   UNL     1       6.222   5.042  18.690  0.00  0.00    +0.000 C 
ATOM     14  O   UNL     1       6.786   5.266  19.756  0.00  0.00    +0.000 OA
BRANCH  13  15
ATOM     15  C   UNL     1       4.752   5.318  18.515  0.00  0.00    +0.000 A 
ATOM     16  C   UNL     1       4.357   6.648  18.297  0.00  0.00    +0.000 A 
ATOM     17  C   UNL     1       3.018   6.975  18.117  0.00  0.00    +0.000 A 
ATOM     18  C   UNL     1       2.052   5.976  18.165  0.00  0.00    +0.000 A 
ATOM     19  C   UNL     1       2.408   4.640  18.389  0.00  0.00    +0.000 A 
ATOM     20  C   UNL     1       1.399   3.662  18.432  0.00  0.00    +0.000 A 
ATOM     21  C   UNL     1       1.705   2.322  18.643  0.00  0.00    +0.000 A 
ATOM     22  C   UNL     1       3.028   1.941  18.811  0.00  0.00    +0.000 A 
ATOM     23  C   UNL     1       4.044   2.901  18.771  0.00  0.00    +0.000 A 
ATOM     24  C   UNL     1       3.772   4.278  18.569  0.00  0.00    +0.000 A 
ENDBRANCH  13  15
ENDBRANCH   1  13
TORSDOF 4
ENDMDL
MODEL 7
REMARK VINA RESULT:      -7.4      3.565      4.966
REMARK  Name = 
REMARK  4 active torsions:
REMARK  status: ('A' for Active; 'I' for Inactive)
REMARK    1  A    between atoms: C_2  and  C_3
REMARK    2  A    between atoms: C_2  and  C_16
REMARK    3  A    between atoms: C_3  and  C_4
REMARK    4  A    between atoms: C_4  and  C_6
REMARK                            x       y       z     vdW  Elec       q    Type
REMARK                         _______ _______ _______ _____ _____    ______ ____
ROOT
ATOM      1  C   UNL     1       5.703   6.390  17.642  0.00  0.00    +0.000 C 
ENDROOT
BRANCH   1   3
ATOM      2  O   UNL     1       7.504   6.265  16.028  0.00  0.00    +0.000 OA
ATOM      3  C   UNL     1       7.080   6.669  17.109  0.00  0.00    +0.000 C 
BRANCH   3   4
ATOM      4  C   UNL     1       7.948   7.594  17.954  0.00  0.00    +0.000 C 
ATOM      5  O   UNL     1       8.458   7.137  18.964  0.00  0.00    +0.000 OA
ATOM      6  N   UNL     1       7.940   8.890  17.494  0.00  0.00    +0.000 N 
ATOM      7  C   UNL     1       8.559   9.884  18.191  0.00  0.00    +0.000 A 
ATOM      8  N   UNL     1       9.353   9.776  19.222  0.00  0.00    +0.000 NA
ATOM      9  C   UNL     1       9.718  11.031  19.658  0.00  0.00    +0.000 A 
ATOM     10  C   UNL     1       9.170  12.083  18.956  0.00  0.00    +0.000 A 
ATOM     11  S   UNL     1       8.217  11.473  17.661  0.00  0.00    +0.000 S 
ATOM     12  H   UNL     1       7.379   9.124  16.680  0.00  0.00    +0.000 HD
ENDBRANCH   3   4
ENDBRANCH   1   3
BRANCH   1  13
ATOM     13  C   UNL     1       5.619   5.128  18.467  0.00  0.00    +0.000 C 
ATOM     14  O   UNL     1       6.482   4.843  19.291  0.00  0.00    +0.000 OA
BRANCH  13  15
ATOM     15  C   UNL     1       4.443   4.219  18.227  0.00  0.00    +0.000 A 
ATOM     16  C   UNL     1       4.541   3.283  17.184  0.00  0.00    +0.000 A 
ATOM     17  C   UNL     1       3.499   2.405  16.911  0.00  0.00    +0.000 A 
ATOM     18  C   UNL     1       2.336   2.458  17.672  0.00  0.00    +0.000 A 
ATOM     19  C   UNL     1       2.199   3.384  18.714  0.00  0.00    +0.000 A 
ATOM     20  C   UNL     1       1.006   3.405  19.457  0.00  0.00    +0.000 A 
ATOM     21  C   UNL     1       0.828   4.300  20.506  0.00  0.00    +0.000 A 
ATOM     22  C   UNL     1       1.844   5.186  20.830  0.00  0.00    +0.000 A 
ATOM     23  C   UNL     1       3.038   5.178  20.101  0.00  0.00    +0.000 A 
ATOM     24  C   UNL     1       3.254   4.288  19.018  0.00  0.00    +0.000 A 
ENDBRANCH  13  15
ENDBRANCH   1  13
TORSDOF 4
ENDMDL
MODEL 8
REMARK VINA RESULT:      -7.4      4.126      7.043
REMARK  Name = 
REMARK  4 active torsions:
REMARK  status: ('A' for Active; 'I' for Inactive)
REMARK    1  A    between atoms: C_2  and  C_3
REMARK    2  A    between atoms: C_2  and  C_16
REMARK    3  A    between atoms: C_3  and  C_4
REMARK    4  A    between atoms: C_4  and  C_6
REMARK                            x       y       z     vdW  Elec       q    Type
REMARK                         _______ _______ _______ _____ _____    ______ ____
ROOT
ATOM      1  C   UNL     1       2.720   4.230  18.803  0.00  0.00    +0.000 C 
ENDROOT
BRANCH   1   3
ATOM      2  O   UNL     1       2.605   4.762  21.163  0.00  0.00    +0.000 OA
ATOM      3  C   UNL     1       2.457   5.110  19.993  0.00  0.00    +0.000 C 
BRANCH   3   4
ATOM      4  C   UNL     1       2.068   6.551  19.684  0.00  0.00    +0.000 C 
ATOM      5  O   UNL     1       2.358   7.001  18.588  0.00  0.00    +0.000 OA
ATOM      6  N   UNL     1       1.521   7.194  20.771  0.00  0.00    +0.000 N 
ATOM      7  C   UNL     1       1.225   8.523  20.722  0.00  0.00    +0.000 A 
ATOM      8  N   UNL     1       1.230   9.315  19.684  0.00  0.00    +0.000 NA
ATOM      9  C   UNL     1       0.922  10.599  20.081  0.00  0.00    +0.000 A 
ATOM     10  C   UNL     1       0.711  10.764  21.433  0.00  0.00    +0.000 A 
ATOM     11  S   UNL     1       0.835   9.242  22.223  0.00  0.00    +0.000 S 
ATOM     12  H   UNL     1       1.434   6.693  21.651  0.00  0.00    +0.000 HD
ENDBRANCH   3   4
ENDBRANCH   1   3
BRANCH   1  13
ATOM     13  C   UNL     1       4.061   3.537  18.850  0.00  0.00    +0.000 C 
ATOM     14  O   UNL     1       4.166   2.370  19.215  0.00  0.00    +0.000 OA
BRANCH  13  15
ATOM     15  C   UNL     1       5.271   4.338  18.449  0.00  0.00    +0.000 A 
ATOM     16  C   UNL     1       5.987   4.994  19.463  0.00  0.00    +0.000 A 
ATOM     17  C   UNL     1       7.120   5.743  19.167  0.00  0.00    +0.000 A 
ATOM     18  C   UNL     1       7.547   5.856  17.849  0.00  0.00    +0.000 A 
ATOM     19  C   UNL     1       6.852   5.224  16.810  0.00  0.00    +0.000 A 
ATOM     20  C   UNL     1       7.317   5.366  15.491  0.00  0.00    +0.000 A 
ATOM     21  C   UNL     1       6.666   4.749  14.429  0.00  0.00    +0.000 A 
ATOM     22  C   UNL     1       5.540   3.976  14.672  0.00  0.00    +0.000 A 
ATOM     23  C   UNL     1       5.065   3.824  15.979  0.00  0.00    +0.000 A 
ATOM     24  C   UNL     1       5.695   4.445  17.087  0.00  0.00    +0.000 A 
ENDBRANCH  13  15
ENDBRANCH   1  13
TORSDOF 4
ENDMDL
MODEL 9
REMARK VINA RESULT:      -7.3      1.289      2.761
REMARK  Name = 
REMARK  4 active torsions:
REMARK  status: ('A' for Active; 'I' for Inactive)
REMARK    1  A    between atoms: C_2  and  C_3
REMARK    2  A    between atoms: C_2  and  C_16
REMARK    3  A    between atoms: C_3  and  C_4
REMARK    4  A    between atoms: C_4  and  C_6
REMARK                            x       y       z     vdW  Elec       q    Type
REMARK                         _______ _______ _______ _____ _____    ______ ____
ROOT
ATOM      1  C   UNL     1       4.627   3.101  17.424  0.00  0.00    +0.000 C 
ENDROOT
BRANCH   1   3
ATOM      2  O   UNL     1       5.774   4.676  18.863  0.00  0.00    +0.000 OA
ATOM      3  C   UNL     1       5.586   4.216  17.739  0.00  0.00    +0.000 C 
BRANCH   3   4
ATOM      4  C   UNL     1       6.428   4.720  16.573  0.00  0.00    +0.000 C 
ATOM      5  O   UNL     1       7.101   5.724  16.744  0.00  0.00    +0.000 OA
ATOM      6  N   UNL     1       6.213   4.004  15.418  0.00  0.00    +0.000 N 
ATOM      7  C   UNL     1       6.784   4.385  14.241  0.00  0.00    +0.000 A 
ATOM      8  N   UNL     1       7.698   5.297  14.043  0.00  0.00    +0.000 NA
ATOM      9  C   UNL     1       7.958   5.405  12.694  0.00  0.00    +0.000 A 
ATOM     10  C   UNL     1       7.211   4.580  11.881  0.00  0.00    +0.000 A 
ATOM     11  S   UNL     1       6.196   3.586  12.850  0.00  0.00    +0.000 S 
ATOM     12  H   UNL     1       5.538   3.244  15.424  0.00  0.00    +0.000 HD
ENDBRANCH   3   4
ENDBRANCH   1   3
BRANCH   1  13
ATOM     13  C   UNL     1       3.177   3.520  17.474  0.00  0.00    +0.000 C 
ATOM     14  O   UNL     1       2.465   3.482  16.476  0.00  0.00    +0.000 OA
BRANCH  13  15
ATOM     15  C   UNL     1       2.641   4.006  18.795  0.00  0.00    +0.000 A 
ATOM     16  C   UNL     1       2.365   3.045  19.782  0.00  0.00    +0.000 A 
ATOM     17  C   UNL     1       1.877   3.422  21.028  0.00  0.00    +0.000 A 
ATOM     18  C   UNL     1       1.647   4.765  21.300  0.00  0.00    +0.000 A 
ATOM     19  C   UNL     1       1.901   5.750  20.337  0.00  0.00    +0.000 A 
ATOM     20  C   UNL     1       1.652   7.096  20.654  0.00  0.00    +0.000 A 
ATOM     21  C   UNL     1       1.898   8.109  19.733  0.00  0.00    +0.000 A 
ATOM     22  C   UNL     1       2.401   7.788  18.481  0.00  0.00    +0.000 A 
ATOM     23  C   UNL     1       2.655   6.453  18.150  0.00  0.00    +0.000 A 
ATOM     24  C   UNL     1       2.408   5.392  19.057  0.00  0.00    +0.000 A 
ENDBRANCH  13  15
ENDBRANCH   1  13
TORSDOF 4
ENDMDL
