MODEL 1
REMARK VINA RESULT:      -9.0      0.000      0.000
REMARK  Name = 
REMARK  4 active torsions:
REMARK  status: ('A' for Active; 'I' for Inactive)
REMARK    1  A    between atoms: C_1  and  C_2
REMARK    2  A    between atoms: C_4  and  O_5
REMARK    3  A    between atoms: O_5  and  C_6
REMARK    4  A    between atoms: C_14  and  C_15
REMARK                            x       y       z     vdW  Elec       q    Type
REMARK                         _______ _______ _______ _____ _____    ______ ____
ROOT
ATOM      1  C   UNL     1       8.267   7.570  18.532  0.00  0.00    +0.000 C 
ATOM      2  C   UNL     1       7.430   6.459  17.976  0.00  0.00    +0.000 A 
ATOM      3  C   UNL     1       6.722   5.570  18.817  0.00  0.00    +0.000 A 
ATOM      4  C   UNL     1       5.967   4.550  18.219  0.00  0.00    +0.000 A 
ATOM      5  N   UNL     1       5.955   4.471  16.876  0.00  0.00    +0.000 NA
ATOM      6  C   UNL     1       6.619   5.320  16.074  0.00  0.00    +0.000 A 
ATOM      7  N   UNL     1       7.358   6.316  16.624  0.00  0.00    +0.000 NA
ENDROOT
BRANCH   6   8
ATOM      8  C   UNL     1       6.493   5.130  14.591  0.00  0.00    +0.000 C 
ATOM      9  C   UNL     1       5.962   3.726  14.266  0.00  0.00    +0.000 C 
ATOM     10  C   UNL     1       5.833   3.571  12.748  0.00  0.00    +0.000 C 
ATOM     11  C   UNL     1       7.186   3.852  12.088  0.00  0.00    +0.000 C 
ATOM     12  C   UNL     1       7.668   5.254  12.477  0.00  0.00    +0.000 C 
ATOM     13  N   UNL     1       7.792   5.361  13.938  0.00  0.00    +0.000 NA
ATOM     14  H   UNL     1       8.113   6.333  14.161  0.00  0.00    +0.000 HD
ENDBRANCH   6   8
BRANCH   4  15
ATOM     15  O   UNL     1       5.266   3.647  18.968  0.00  0.00    +0.000 OA
BRANCH  15  16
ATOM     16  C   UNL     1       3.905   3.529  19.138  0.00  0.00    +0.000 A 
ATOM     17  C   UNL     1       2.927   4.153  18.303  0.00  0.00    +0.000 A 
ATOM     18  C   UNL     1       1.569   3.967  18.523  0.00  0.00    +0.000 A 
ATOM     19  C   UNL     1       1.130   3.171  19.572  0.00  0.00    +0.000 A 
ATOM     20  C   UNL     1       2.061   2.555  20.410  0.00  0.00    +0.000 A 
ATOM     21  C   UNL     1       3.437   2.736  20.199  0.00  0.00    +0.000 A 
ATOM     22  F   UNL     1       4.317   2.118  21.025  0.00  0.00    +0.000 F 
ENDBRANCH  15  16
ENDBRANCH   4  15
TORSDOF 3
ENDMDL
MODEL 2
REMARK VINA RESULT:      -9.0      1.001      1.128
REMARK  Name = 
REMARK  4 active torsions:
REMARK  status: ('A' for Active; 'I' for Inactive)
REMARK    1  A    between atoms: C_1  and  C_2
REMARK    2  A    between atoms: C_4  and  O_5
REMARK    3  A    between atoms: O_5  and  C_6
REMARK    4  A    between atoms: C_14  and  C_15
REMARK                            x       y       z     vdW  Elec       q    Type
REMARK                         _______ _______ _______ _____ _____    ______ ____
ROOT
ATOM      1  C   UNL     1       8.243   7.590  18.517  0.00  0.00    +0.000 C 
ATOM      2  C   UNL     1       7.414   6.471  17.966  0.00  0.00    +0.000 A 
ATOM      3  C   UNL     1       6.712   5.581  18.811  0.00  0.00    +0.000 A 
ATOM      4  C   UNL     1       5.964   4.553  18.218  0.00  0.00    +0.000 A 
ATOM      5  N   UNL     1       5.953   4.468  16.876  0.00  0.00    +0.000 NA
ATOM      6  C   UNL     1       6.612   5.317  16.069  0.00  0.00    +0.000 A 
ATOM      7  N   UNL     1       7.344   6.321  16.614  0.00  0.00    +0.000 NA
ENDROOT
BRANCH   6   8
ATOM      8  C   UNL     1       6.487   5.119  14.588  0.00  0.00    +0.000 C 
ATOM      9  C   UNL     1       5.958   3.712  14.269  0.00  0.00    +0.000 C 
ATOM     10  C   UNL     1       5.831   3.549  12.752  0.00  0.00    +0.000 C 
ATOM     11  C   UNL     1       7.184   3.829  12.092  0.00  0.00    +0.000 C 
ATOM     12  C   UNL     1       7.664   5.234  12.474  0.00  0.00    +0.000 C 
ATOM     13  N   UNL     1       7.787   5.348  13.934  0.00  0.00    +0.000 NA
ATOM     14  H   UNL     1       8.106   6.322  14.153  0.00  0.00    +0.000 HD
ENDBRANCH   6   8
BRANCH   4  15
ATOM     15  O   UNL     1       5.269   3.649  18.971  0.00  0.00    +0.000 OA
BRANCH  15  16
ATOM     16  C   UNL     1       3.910   3.437  19.040  0.00  0.00    +0.000 A 
ATOM     17  C   UNL     1       3.244   2.280  18.534  0.00  0.00    +0.000 A 
ATOM     18  C   UNL     1       1.869   2.126  18.663  0.00  0.00    +0.000 A 
ATOM     19  C   UNL     1       1.109   3.106  19.286  0.00  0.00    +0.000 A 
ATOM     20  C   UNL     1       1.731   4.253  19.784  0.00  0.00    +0.000 A 
ATOM     21  C   UNL     1       3.119   4.420  19.658  0.00  0.00    +0.000 A 
ATOM     22  F   UNL     1       3.695   5.541  20.159  0.00  0.00    +0.000 F 
ENDBRANCH  15  16
ENDBRANCH   4  15
TORSDOF 3
ENDMDL
MODEL 3
REMARK VINA RESULT:      -8.5      1.447      1.882
REMARK  Name = 
REMARK  4 active torsions:
REMARK  status: ('A' for Active; 'I' for Inactive)
REMARK    1  A    between atoms: C_1  and  C_2
REMARK    2  A    between atoms: C_4  and  O_5
REMARK    3  A    between atoms: O_5  and  C_6
REMARK    4  A    between atoms: C_14  and  C_15
REMARK                            x       y       z     vdW  Elec       q    Type
REMARK                         _______ _______ _______ _____ _____    ______ ____
ROOT
ATOM      1  C   UNL     1       7.679   5.791  19.121  0.00  0.00    +0.000 C 
ATOM      2  C   UNL     1       6.737   5.129  18.163  0.00  0.00    +0.000 A 
ATOM      3  C   UNL     1       5.643   4.354  18.613  0.00  0.00    +0.000 A 
ATOM      4  C   UNL     1       4.810   3.760  17.653  0.00  0.00    +0.000 A 
ATOM      5  N   UNL     1       5.095   3.959  16.354  0.00  0.00    +0.000 NA
ATOM      6  C   UNL     1       6.128   4.702  15.923  0.00  0.00    +0.000 A 
ATOM      7  N   UNL     1       6.951   5.289  16.828  0.00  0.00    +0.000 NA
ENDROOT
BRANCH   6   8
ATOM      8  C   UNL     1       6.310   4.862  14.442  0.00  0.00    +0.000 C 
ATOM      9  C   UNL     1       5.920   3.572  13.704  0.00  0.00    +0.000 C 
ATOM     10  C   UNL     1       6.105   3.774  12.197  0.00  0.00    +0.000 C 
ATOM     11  C   UNL     1       7.548   4.198  11.911  0.00  0.00    +0.000 C 
ATOM     12  C   UNL     1       7.878   5.471  12.699  0.00  0.00    +0.000 C 
ATOM     13  N   UNL     1       7.702   5.235  14.140  0.00  0.00    +0.000 NA
ATOM     14  H   UNL     1       7.927   6.129  14.639  0.00  0.00    +0.000 HD
ENDBRANCH   6   8
BRANCH   4  15
ATOM     15  O   UNL     1       3.742   2.989  18.013  0.00  0.00    +0.000 OA
BRANCH  15  16
ATOM     16  C   UNL     1       2.972   3.049  19.153  0.00  0.00    +0.000 A 
ATOM     17  C   UNL     1       3.367   2.535  20.427  0.00  0.00    +0.000 A 
ATOM     18  C   UNL     1       2.544   2.655  21.539  0.00  0.00    +0.000 A 
ATOM     19  C   UNL     1       1.307   3.276  21.433  0.00  0.00    +0.000 A 
ATOM     20  C   UNL     1       0.889   3.780  20.200  0.00  0.00    +0.000 A 
ATOM     21  C   UNL     1       1.712   3.664  19.068  0.00  0.00    +0.000 A 
ATOM     22  F   UNL     1       1.281   4.172  17.887  0.00  0.00    +0.000 F 
ENDBRANCH  15  16
ENDBRANCH   4  15
TORSDOF 3
ENDMDL
MODEL 4
REMARK VINA RESULT:      -8.5      1.634      1.855
REMARK  Name = 
REMARK  4 active torsions:
REMARK  status: ('A' for Active; 'I' for Inactive)
REMARK    1  A    between atoms: C_1  and  C_2
REMARK    2  A    between atoms: C_4  and  O_5
REMARK    3  A    between atoms: O_5  and  C_6
REMARK    4  A    between atoms: C_14  and  C_15
REMARK                            x       y       z     vdW  Elec       q    Type
REMARK                         _______ _______ _______ _____ _____    ______ ____
ROOT
ATOM      1  C   UNL     1       8.155   5.575  19.055  0.00  0.00    +0.000 C 
ATOM      2  C   UNL     1       6.947   5.523  18.171  0.00  0.00    +0.000 A 
ATOM      3  C   UNL     1       5.639   5.643  18.694  0.00  0.00    +0.000 A 
ATOM      4  C   UNL     1       4.559   5.577  17.802  0.00  0.00    +0.000 A 
ATOM      5  N   UNL     1       4.823   5.404  16.495  0.00  0.00    +0.000 NA
ATOM      6  C   UNL     1       6.065   5.298  15.993  0.00  0.00    +0.000 A 
ATOM      7  N   UNL     1       7.130   5.359  16.832  0.00  0.00    +0.000 NA
ENDROOT
BRANCH   6   8
ATOM      8  C   UNL     1       6.213   5.137  14.509  0.00  0.00    +0.000 C 
ATOM      9  C   UNL     1       5.683   3.768  14.056  0.00  0.00    +0.000 C 
ATOM     10  C   UNL     1       5.837   3.642  12.538  0.00  0.00    +0.000 C 
ATOM     11  C   UNL     1       7.303   3.857  12.152  0.00  0.00    +0.000 C 
ATOM     12  C   UNL     1       7.774   5.225  12.659  0.00  0.00    +0.000 C 
ATOM     13  N   UNL     1       7.623   5.305  14.119  0.00  0.00    +0.000 NA
ATOM     14  H   UNL     1       7.945   6.255  14.422  0.00  0.00    +0.000 HD
ENDBRANCH   6   8
BRANCH   4  15
ATOM     15  O   UNL     1       3.267   5.673  18.236  0.00  0.00    +0.000 OA
BRANCH  15  16
ATOM     16  C   UNL     1       2.529   4.776  18.976  0.00  0.00    +0.000 A 
ATOM     17  C   UNL     1       2.350   4.848  20.392  0.00  0.00    +0.000 A 
ATOM     18  C   UNL     1       1.570   3.918  21.067  0.00  0.00    +0.000 A 
ATOM     19  C   UNL     1       0.949   2.888  20.374  0.00  0.00    +0.000 A 
ATOM     20  C   UNL     1       1.113   2.786  18.991  0.00  0.00    +0.000 A 
ATOM     21  C   UNL     1       1.900   3.719  18.298  0.00  0.00    +0.000 A 
ATOM     22  F   UNL     1       2.032   3.599  16.954  0.00  0.00    +0.000 F 
ENDBRANCH  15  16
ENDBRANCH   4  15
TORSDOF 3
ENDMDL
MODEL 5
REMARK VINA RESULT:      -8.0      1.761      2.098
REMARK  Name = 
REMARK  4 active torsions:
REMARK  status: ('A' for Active; 'I' for Inactive)
REMARK    1  A    between atoms: C_1  and  C_2
REMARK    2  A    between atoms: C_4  and  O_5
REMARK    3  A    between atoms: O_5  and  C_6
REMARK    4  A    between atoms: C_14  and  C_15
REMARK                            x       y       z     vdW  Elec       q    Type
REMARK                         _______ _______ _______ _____ _____    ______ ____
ROOT
ATOM      1  C   UNL     1       7.963   5.705  19.316  0.00  0.00    +0.000 C 
ATOM      2  C   UNL     1       6.955   5.415  18.247  0.00  0.00    +0.000 A 
ATOM      3  C   UNL     1       5.567   5.547  18.479  0.00  0.00    +0.000 A 
ATOM      4  C   UNL     1       4.687   5.250  17.428  0.00  0.00    +0.000 A 
ATOM      5  N   UNL     1       5.209   4.855  16.254  0.00  0.00    +0.000 NA
ATOM      6  C   UNL     1       6.528   4.737  16.026  0.00  0.00    +0.000 A 
ATOM      7  N   UNL     1       7.404   5.019  17.024  0.00  0.00    +0.000 NA
ENDROOT
BRANCH   6   8
ATOM      8  C   UNL     1       6.971   4.314  14.657  0.00  0.00    +0.000 C 
ATOM      9  C   UNL     1       7.499   5.516  13.860  0.00  0.00    +0.000 C 
ATOM     10  C   UNL     1       7.953   5.047  12.475  0.00  0.00    +0.000 C 
ATOM     11  C   UNL     1       6.793   4.341  11.768  0.00  0.00    +0.000 C 
ATOM     12  C   UNL     1       6.298   3.173  12.629  0.00  0.00    +0.000 C 
ATOM     13  N   UNL     1       5.859   3.663  13.944  0.00  0.00    +0.000 NA
ATOM     14  H   UNL     1       5.539   2.835  14.503  0.00  0.00    +0.000 HD
ENDBRANCH   6   8
BRANCH   4  15
ATOM     15  O   UNL     1       3.332   5.343  17.582  0.00  0.00    +0.000 OA
BRANCH  15  16
ATOM     16  C   UNL     1       2.507   4.659  18.447  0.00  0.00    +0.000 A 
ATOM     17  C   UNL     1       2.086   5.147  19.722  0.00  0.00    +0.000 A 
ATOM     18  C   UNL     1       1.231   4.407  20.529  0.00  0.00    +0.000 A 
ATOM     19  C   UNL     1       0.769   3.167  20.111  0.00  0.00    +0.000 A 
ATOM     20  C   UNL     1       1.170   2.660  18.873  0.00  0.00    +0.000 A 
ATOM     21  C   UNL     1       2.035   3.397  18.049  0.00  0.00    +0.000 A 
ATOM     22  F   UNL     1       2.399   2.882  16.849  0.00  0.00    +0.000 F 
ENDBRANCH  15  16
ENDBRANCH   4  15
TORSDOF 3
ENDMDL
MODEL 6
REMARK VINA RESULT:      -8.0      1.673      1.768
REMARK  Name = 
REMARK  4 active torsions:
REMARK  status: ('A' for Active; 'I' for Inactive)
REMARK    1  A    between atoms: C_1  and  C_2
REMARK    2  A    between atoms: C_4  and  O_5
REMARK    3  A    between atoms: O_5  and  C_6
REMARK    4  A    between atoms: C_14  and  C_15
REMARK                            x       y       z     vdW  Elec       q    Type
REMARK                         _______ _______ _______ _____ _____    ______ ____
ROOT
ATOM      1  C   UNL     1       8.012   6.719  18.466  0.00  0.00    +0.000 C 
ATOM      2  C   UNL     1       6.814   6.323  17.660  0.00  0.00    +0.000 A 
ATOM      3  C   UNL     1       5.515   6.304  18.219  0.00  0.00    +0.000 A 
ATOM      4  C   UNL     1       4.445   5.914  17.401  0.00  0.00    +0.000 A 
ATOM      5  N   UNL     1       4.709   5.580  16.125  0.00  0.00    +0.000 NA
ATOM      6  C   UNL     1       5.940   5.605  15.587  0.00  0.00    +0.000 A 
ATOM      7  N   UNL     1       6.995   5.979  16.355  0.00  0.00    +0.000 NA
ENDROOT
BRANCH   6   8
ATOM      8  C   UNL     1       6.083   5.234  14.141  0.00  0.00    +0.000 C 
ATOM      9  C   UNL     1       5.537   3.821  13.886  0.00  0.00    +0.000 C 
ATOM     10  C   UNL     1       5.687   3.480  12.401  0.00  0.00    +0.000 C 
ATOM     11  C   UNL     1       7.154   3.622  11.988  0.00  0.00    +0.000 C 
ATOM     12  C   UNL     1       7.641   5.043  12.296  0.00  0.00    +0.000 C 
ATOM     13  N   UNL     1       7.495   5.329  13.731  0.00  0.00    +0.000 NA
ATOM     14  H   UNL     1       7.828   6.309  13.897  0.00  0.00    +0.000 HD
ENDBRANCH   6   8
BRANCH   4  15
ATOM     15  O   UNL     1       3.165   5.860  17.876  0.00  0.00    +0.000 OA
BRANCH  15  16
ATOM     16  C   UNL     1       2.490   4.799  18.437  0.00  0.00    +0.000 A 
ATOM     17  C   UNL     1       2.387   3.501  17.848  0.00  0.00    +0.000 A 
ATOM     18  C   UNL     1       1.708   2.472  18.488  0.00  0.00    +0.000 A 
ATOM     19  C   UNL     1       1.106   2.688  19.719  0.00  0.00    +0.000 A 
ATOM     20  C   UNL     1       1.182   3.948  20.316  0.00  0.00    +0.000 A 
ATOM     21  C   UNL     1       1.865   4.996  19.679  0.00  0.00    +0.000 A 
ATOM     22  F   UNL     1       1.929   6.206  20.289  0.00  0.00    +0.000 F 
ENDBRANCH  15  16
ENDBRANCH   4  15
TORSDOF 3
ENDMDL
MODEL 7
REMARK VINA RESULT:      -7.9      1.243      1.572
REMARK  Name = 
REMARK  4 active torsions:
REMARK  status: ('A' for Active; 'I' for Inactive)
REMARK    1  A    between atoms: C_1  and  C_2
REMARK    2  A    between atoms: C_4  and  O_5
REMARK    3  A    between atoms: O_5  and  C_6
REMARK    4  A    between atoms: C_14  and  C_15
REMARK                            x       y       z     vdW  Elec       q    Type
REMARK                         _______ _______ _______ _____ _____    ______ ____
ROOT
ATOM      1  C   UNL     1       7.831   7.905  17.728  0.00  0.00    +0.000 C 
ATOM      2  C   UNL     1       7.195   6.577  17.455  0.00  0.00    +0.000 A 
ATOM      3  C   UNL     1       6.504   5.863  18.461  0.00  0.00    +0.000 A 
ATOM      4  C   UNL     1       5.942   4.622  18.128  0.00  0.00    +0.000 A 
ATOM      5  N   UNL     1       6.088   4.176  16.868  0.00  0.00    +0.000 NA
ATOM      6  C   UNL     1       6.736   4.855  15.907  0.00  0.00    +0.000 A 
ATOM      7  N   UNL     1       7.290   6.059  16.200  0.00  0.00    +0.000 NA
ENDROOT
BRANCH   6   8
ATOM      8  C   UNL     1       6.797   4.248  14.537  0.00  0.00    +0.000 C 
ATOM      9  C   UNL     1       7.542   5.175  13.564  0.00  0.00    +0.000 C 
ATOM     10  C   UNL     1       7.597   4.520  12.181  0.00  0.00    +0.000 C 
ATOM     11  C   UNL     1       6.176   4.199  11.709  0.00  0.00    +0.000 C 
ATOM     12  C   UNL     1       5.483   3.297  12.737  0.00  0.00    +0.000 C 
ATOM     13  N   UNL     1       5.438   3.963  14.047  0.00  0.00    +0.000 NA
ATOM     14  H   UNL     1       4.968   3.311  14.721  0.00  0.00    +0.000 HD
ENDBRANCH   6   8
BRANCH   4  15
ATOM     15  O   UNL     1       5.270   3.871  19.052  0.00  0.00    +0.000 OA
BRANCH  15  16
ATOM     16  C   UNL     1       3.916   3.786  19.283  0.00  0.00    +0.000 A 
ATOM     17  C   UNL     1       3.171   4.705  20.084  0.00  0.00    +0.000 A 
ATOM     18  C   UNL     1       1.799   4.566  20.251  0.00  0.00    +0.000 A 
ATOM     19  C   UNL     1       1.120   3.519  19.643  0.00  0.00    +0.000 A 
ATOM     20  C   UNL     1       1.822   2.600  18.861  0.00  0.00    +0.000 A 
ATOM     21  C   UNL     1       3.209   2.728  18.685  0.00  0.00    +0.000 A 
ATOM     22  F   UNL     1       3.862   1.825  17.913  0.00  0.00    +0.000 F 
ENDBRANCH  15  16
ENDBRANCH   4  15
TORSDOF 3
ENDMDL
MODEL 8
REMARK VINA RESULT:      -7.9      0.802      1.207
REMARK  Name = 
REMARK  4 active torsions:
REMARK  status: ('A' for Active; 'I' for Inactive)
REMARK    1  A    between atoms: C_1  and  C_2
REMARK    2  A    between atoms: C_4  and  O_5
REMARK    3  A    between atoms: O_5  and  C_6
REMARK    4  A    between atoms: C_14  and  C_15
REMARK                            x       y       z     vdW  Elec       q    Type
REMARK                         _______ _______ _______ _____ _____    ______ ____
ROOT
ATOM      1  C   UNL     1       7.835   7.984  17.811  0.00  0.00    +0.000 C 
ATOM      2  C   UNL     1       7.210   6.663  17.487  0.00  0.00    +0.000 A 
ATOM      3  C   UNL     1       6.455   5.944  18.442  0.00  0.00    +0.000 A 
ATOM      4  C   UNL     1       5.908   4.709  18.064  0.00  0.00    +0.000 A 
ATOM      5  N   UNL     1       6.130   4.272  16.812  0.00  0.00    +0.000 NA
ATOM      6  C   UNL     1       6.839   4.956  15.899  0.00  0.00    +0.000 A 
ATOM      7  N   UNL     1       7.380   6.154  16.235  0.00  0.00    +0.000 NA
ENDROOT
BRANCH   6   8
ATOM      8  C   UNL     1       6.982   4.360  14.529  0.00  0.00    +0.000 C 
ATOM      9  C   UNL     1       7.577   5.384  13.550  0.00  0.00    +0.000 C 
ATOM     10  C   UNL     1       7.720   4.741  12.168  0.00  0.00    +0.000 C 
ATOM     11  C   UNL     1       6.360   4.212  11.706  0.00  0.00    +0.000 C 
ATOM     12  C   UNL     1       5.813   3.221  12.740  0.00  0.00    +0.000 C 
ATOM     13  N   UNL     1       5.677   3.876  14.049  0.00  0.00    +0.000 NA
ATOM     14  H   UNL     1       5.311   3.165  14.726  0.00  0.00    +0.000 HD
ENDBRANCH   6   8
BRANCH   4  15
ATOM     15  O   UNL     1       5.177   3.954  18.938  0.00  0.00    +0.000 OA
BRANCH  15  16
ATOM     16  C   UNL     1       3.826   3.687  18.936  0.00  0.00    +0.000 A 
ATOM     17  C   UNL     1       2.888   4.261  18.024  0.00  0.00    +0.000 A 
ATOM     18  C   UNL     1       1.542   3.923  18.068  0.00  0.00    +0.000 A 
ATOM     19  C   UNL     1       1.076   3.018  19.012  0.00  0.00    +0.000 A 
ATOM     20  C   UNL     1       1.967   2.447  19.923  0.00  0.00    +0.000 A 
ATOM     21  C   UNL     1       3.330   2.781  19.888  0.00  0.00    +0.000 A 
ATOM     22  F   UNL     1       4.173   2.203  20.780  0.00  0.00    +0.000 F 
ENDBRANCH  15  16
ENDBRANCH   4  15
TORSDOF 3
ENDMDL
MODEL 9
REMARK VINA RESULT:      -7.8      2.681      6.397
REMARK  Name = 
REMARK  4 active torsions:
REMARK  status: ('A' for Active; 'I' for Inactive)
REMARK    1  A    between atoms: C_1  and  C_2
REMARK    2  A    between atoms: C_4  and  O_5
REMARK    3  A    between atoms: O_5  and  C_6
REMARK    4  A    between atoms: C_14  and  C_15
REMARK                            x       y       z     vdW  Elec       q    Type
REMARK                         _______ _______ _______ _____ _____    ______ ____
ROOT
ATOM      1  C   UNL     1       8.003   5.582  20.146  0.00  0.00    +0.000 C 
ATOM      2  C   UNL     1       7.183   5.279  18.930  0.00  0.00    +0.000 A 
ATOM      3  C   UNL     1       7.652   5.566  17.628  0.00  0.00    +0.000 A 
ATOM      4  C   UNL     1       6.821   5.260  16.540  0.00  0.00    +0.000 A 
ATOM      5  N   UNL     1       5.621   4.708  16.793  0.00  0.00    +0.000 NA
ATOM      6  C   UNL     1       5.175   4.426  18.028  0.00  0.00    +0.000 A 
ATOM      7  N   UNL     1       5.958   4.711  19.100  0.00  0.00    +0.000 NA
ENDROOT
BRANCH   6   8
ATOM      8  C   UNL     1       3.826   3.783  18.160  0.00  0.00    +0.000 C 
ATOM      9  C   UNL     1       2.709   4.813  17.932  0.00  0.00    +0.000 C 
ATOM     10  C   UNL     1       1.349   4.122  18.061  0.00  0.00    +0.000 C 
ATOM     11  C   UNL     1       1.247   3.442  19.429  0.00  0.00    +0.000 C 
ATOM     12  C   UNL     1       2.405   2.452  19.600  0.00  0.00    +0.000 C 
ATOM     13  N   UNL     1       3.692   3.152  19.484  0.00  0.00    +0.000 NA
ATOM     14  H   UNL     1       4.454   2.441  19.596  0.00  0.00    +0.000 HD
ENDBRANCH   6   8
BRANCH   4  15
ATOM     15  O   UNL     1       7.203   5.520  15.254  0.00  0.00    +0.000 OA
BRANCH  15  16
ATOM     16  C   UNL     1       6.885   4.840  14.099  0.00  0.00    +0.000 A 
ATOM     17  C   UNL     1       5.763   3.967  13.956  0.00  0.00    +0.000 A 
ATOM     18  C   UNL     1       5.493   3.335  12.749  0.00  0.00    +0.000 A 
ATOM     19  C   UNL     1       6.318   3.535  11.651  0.00  0.00    +0.000 A 
ATOM     20  C   UNL     1       7.427   4.376  11.763  0.00  0.00    +0.000 A 
ATOM     21  C   UNL     1       7.711   5.021  12.978  0.00  0.00    +0.000 A 
ATOM     22  F   UNL     1       8.790   5.838  13.053  0.00  0.00    +0.000 F 
ENDBRANCH  15  16
ENDBRANCH   4  15
TORSDOF 3
ENDMDL
