MODEL 1
REMARK VINA RESULT:      -8.7      0.000      0.000
REMARK  Name = 
REMARK  9 active torsions:
REMARK  status: ('A' for Active; 'I' for Inactive)
REMARK    1  A    between atoms: C_1  and  O_2
REMARK    2  A    between atoms: O_2  and  C_3
REMARK    3  A    between atoms: C_6  and  O_7
REMARK    4  A    between atoms: O_7  and  C_8
REMARK    5  A    between atoms: C_8  and  C_9
REMARK    6  A    between atoms: N_11  and  N_12
REMARK    7  A    between atoms: C_13  and  C_14
REMARK    8  A    between atoms: C_17  and  O_18
REMARK    9  A    between atoms: O_18  and  C_19
REMARK                            x       y       z     vdW  Elec       q    Type
REMARK                         _______ _______ _______ _____ _____    ______ ____
ROOT
ATOM      1  N   UNL     1       4.409   4.577  18.112  0.00  0.00    +0.000 N 
ATOM      2  C   UNL     1       4.103   5.296  19.260  0.00  0.00    +0.000 A 
ATOM      3  N   UNL     1       4.099   4.616  20.373  0.00  0.00    +0.000 NA
ATOM      4  C   UNL     1       3.103   3.602  20.292  0.00  0.00    +0.000 A 
ATOM      5  C   UNL     1       2.425   3.257  21.462  0.00  0.00    +0.000 A 
ATOM      6  C   UNL     1       1.092   2.853  21.379  0.00  0.00    +0.000 A 
ATOM      7  C   UNL     1       0.465   2.778  20.133  0.00  0.00    +0.000 A 
ATOM      8  C   UNL     1       1.202   2.951  18.952  0.00  0.00    +0.000 A 
ATOM      9  C   UNL     1       2.550   3.303  19.029  0.00  0.00    +0.000 A 
ATOM     10  C   UNL     1       3.352   3.713  17.807  0.00  0.00    +0.000 A 
ATOM     11  O   UNL     1       2.936   3.415  16.695  0.00  0.00    +0.000 OA
ENDROOT
BRANCH   2  12
ATOM     12  C   UNL     1       3.110   6.455  19.066  0.00  0.00    +0.000 A 
ATOM     13  C   UNL     1       3.197   7.251  17.913  0.00  0.00    +0.000 A 
ATOM     14  C   UNL     1       2.457   8.438  17.807  0.00  0.00    +0.000 A 
ATOM     15  C   UNL     1       1.590   8.823  18.827  0.00  0.00    +0.000 A 
ATOM     16  C   UNL     1       1.540   8.077  19.996  0.00  0.00    +0.000 A 
ATOM     17  C   UNL     1       2.297   6.915  20.114  0.00  0.00    +0.000 A 
BRANCH  15  18
ATOM     18  O   UNL     1       0.851   9.954  18.623  0.00  0.00    +0.000 OA
ATOM     19  C   UNL     1       0.237  10.455  19.812  0.00  0.00    +0.000 C 
ENDBRANCH  15  18
ENDBRANCH   2  12
BRANCH   1  22
ATOM     20  C   UNL     1       6.483   5.565  17.080  0.00  0.00    +0.000 C 
ATOM     21  O   UNL     1       7.275   5.267  17.966  0.00  0.00    +0.000 OA
ATOM     22  N   UNL     1       5.119   5.319  17.101  0.00  0.00    +0.000 N 
ATOM     23  H   UNL     1       4.523   5.938  16.562  0.00  0.00    +0.000 HD
BRANCH  20  24
ATOM     24  C   UNL     1       6.935   6.321  15.790  0.00  0.00    +0.000 C 
BRANCH  24  25
ATOM     25  O   UNL     1       7.774   5.525  14.953  0.00  0.00    +0.000 OA
BRANCH  25  29
ATOM     26  C   UNL     1       5.642   3.341  12.069  0.00  0.00    +0.000 A 
ATOM     27  C   UNL     1       5.160   3.540  13.356  0.00  0.00    +0.000 A 
ATOM     28  C   UNL     1       5.906   4.263  14.297  0.00  0.00    +0.000 A 
ATOM     29  C   UNL     1       7.169   4.768  13.976  0.00  0.00    +0.000 A 
ATOM     30  C   UNL     1       7.664   4.544  12.690  0.00  0.00    +0.000 A 
ATOM     31  C   UNL     1       6.906   3.831  11.735  0.00  0.00    +0.000 A 
BRANCH  26  33
ATOM     32  C   UNL     1       3.572   3.215  10.892  0.00  0.00    +0.000 C 
ATOM     33  O   UNL     1       4.818   2.623  11.239  0.00  0.00    +0.000 OA
ENDBRANCH  26  33
ENDBRANCH  25  29
ENDBRANCH  24  25
ENDBRANCH  20  24
ENDBRANCH   1  22
TORSDOF 7
ENDMDL
MODEL 2
REMARK VINA RESULT:      -8.7      1.066      1.535
REMARK  Name = 
REMARK  9 active torsions:
REMARK  status: ('A' for Active; 'I' for Inactive)
REMARK    1  A    between atoms: C_1  and  O_2
REMARK    2  A    between atoms: O_2  and  C_3
REMARK    3  A    between atoms: C_6  and  O_7
REMARK    4  A    between atoms: O_7  and  C_8
REMARK    5  A    between atoms: C_8  and  C_9
REMARK    6  A    between atoms: N_11  and  N_12
REMARK    7  A    between atoms: C_13  and  C_14
REMARK    8  A    between atoms: C_17  and  O_18
REMARK    9  A    between atoms: O_18  and  C_19
REMARK                            x       y       z     vdW  Elec       q    Type
REMARK                         _______ _______ _______ _____ _____    ______ ____
ROOT
ATOM      1  N   UNL     1       4.363   3.696  17.647  0.00  0.00    +0.000 N 
ATOM      2  C   UNL     1       4.477   4.428  18.821  0.00  0.00    +0.000 A 
ATOM      3  N   UNL     1       4.523   3.732  19.923  0.00  0.00    +0.000 NA
ATOM      4  C   UNL     1       3.309   3.000  20.058  0.00  0.00    +0.000 A 
ATOM      5  C   UNL     1       2.810   2.793  21.345  0.00  0.00    +0.000 A 
ATOM      6  C   UNL     1       1.429   2.735  21.535  0.00  0.00    +0.000 A 
ATOM      7  C   UNL     1       0.571   2.860  20.440  0.00  0.00    +0.000 A 
ATOM      8  C   UNL     1       1.081   2.887  19.133  0.00  0.00    +0.000 A 
ATOM      9  C   UNL     1       2.462   2.891  18.935  0.00  0.00    +0.000 A 
ATOM     10  C   UNL     1       3.085   3.131  17.572  0.00  0.00    +0.000 A 
ATOM     11  O   UNL     1       2.397   2.984  16.570  0.00  0.00    +0.000 OA
ENDROOT
BRANCH   2  12
ATOM     12  C   UNL     1       3.787   5.802  18.810  0.00  0.00    +0.000 A 
ATOM     13  C   UNL     1       2.859   6.115  19.817  0.00  0.00    +0.000 A 
ATOM     14  C   UNL     1       2.057   7.261  19.717  0.00  0.00    +0.000 A 
ATOM     15  C   UNL     1       2.201   8.133  18.639  0.00  0.00    +0.000 A 
ATOM     16  C   UNL     1       3.071   7.804  17.610  0.00  0.00    +0.000 A 
ATOM     17  C   UNL     1       3.845   6.651  17.693  0.00  0.00    +0.000 A 
BRANCH  15  18
ATOM     18  O   UNL     1       1.434   9.263  18.646  0.00  0.00    +0.000 OA
ATOM     19  C   UNL     1       1.047   9.680  19.957  0.00  0.00    +0.000 C 
ENDBRANCH  15  18
ENDBRANCH   2  12
BRANCH   1  22
ATOM     20  C   UNL     1       6.390   4.439  16.351  0.00  0.00    +0.000 C 
ATOM     21  O   UNL     1       7.236   4.205  17.206  0.00  0.00    +0.000 OA
ATOM     22  N   UNL     1       5.023   4.273  16.503  0.00  0.00    +0.000 N 
ATOM     23  H   UNL     1       4.414   4.856  15.939  0.00  0.00    +0.000 HD
BRANCH  20  24
ATOM     24  C   UNL     1       6.771   5.012  14.948  0.00  0.00    +0.000 C 
BRANCH  24  25
ATOM     25  O   UNL     1       7.171   3.994  14.030  0.00  0.00    +0.000 OA
BRANCH  25  29
ATOM     26  C   UNL     1       4.272   3.030  11.148  0.00  0.00    +0.000 A 
ATOM     27  C   UNL     1       4.074   4.025  12.098  0.00  0.00    +0.000 A 
ATOM     28  C   UNL     1       5.059   4.309  13.053  0.00  0.00    +0.000 A 
ATOM     29  C   UNL     1       6.247   3.576  13.099  0.00  0.00    +0.000 A 
ATOM     30  C   UNL     1       6.434   2.558  12.162  0.00  0.00    +0.000 A 
ATOM     31  C   UNL     1       5.450   2.281  11.187  0.00  0.00    +0.000 A 
BRANCH  26  33
ATOM     32  C   UNL     1       2.868   3.965   9.464  0.00  0.00    +0.000 C 
ATOM     33  O   UNL     1       3.238   2.849  10.264  0.00  0.00    +0.000 OA
ENDBRANCH  26  33
ENDBRANCH  25  29
ENDBRANCH  24  25
ENDBRANCH  20  24
ENDBRANCH   1  22
TORSDOF 7
ENDMDL
MODEL 3
REMARK VINA RESULT:      -8.6      0.511      1.038
REMARK  Name = 
REMARK  9 active torsions:
REMARK  status: ('A' for Active; 'I' for Inactive)
REMARK    1  A    between atoms: C_1  and  O_2
REMARK    2  A    between atoms: O_2  and  C_3
REMARK    3  A    between atoms: C_6  and  O_7
REMARK    4  A    between atoms: O_7  and  C_8
REMARK    5  A    between atoms: C_8  and  C_9
REMARK    6  A    between atoms: N_11  and  N_12
REMARK    7  A    between atoms: C_13  and  C_14
REMARK    8  A    between atoms: C_17  and  O_18
REMARK    9  A    between atoms: O_18  and  C_19
REMARK                            x       y       z     vdW  Elec       q    Type
REMARK                         _______ _______ _______ _____ _____    ______ ____
ROOT
ATOM      1  N   UNL     1       4.486   4.747  18.182  0.00  0.00    +0.000 N 
ATOM      2  C   UNL     1       4.081   5.419  19.327  0.00  0.00    +0.000 A 
ATOM      3  N   UNL     1       4.021   4.704  20.416  0.00  0.00    +0.000 NA
ATOM      4  C   UNL     1       3.063   3.666  20.235  0.00  0.00    +0.000 A 
ATOM      5  C   UNL     1       2.317   3.264  21.343  0.00  0.00    +0.000 A 
ATOM      6  C   UNL     1       1.006   2.827  21.156  0.00  0.00    +0.000 A 
ATOM      7  C   UNL     1       0.468   2.775  19.868  0.00  0.00    +0.000 A 
ATOM      8  C   UNL     1       1.278   3.007  18.746  0.00  0.00    +0.000 A 
ATOM      9  C   UNL     1       2.608   3.393  18.928  0.00  0.00    +0.000 A 
ATOM     10  C   UNL     1       3.479   3.864  17.777  0.00  0.00    +0.000 A 
ATOM     11  O   UNL     1       3.149   3.591  16.631  0.00  0.00    +0.000 OA
ENDROOT
BRANCH   2  12
ATOM     12  C   UNL     1       3.070   6.556  19.100  0.00  0.00    +0.000 A 
ATOM     13  C   UNL     1       3.151   7.327  17.929  0.00  0.00    +0.000 A 
ATOM     14  C   UNL     1       2.392   8.498  17.792  0.00  0.00    +0.000 A 
ATOM     15  C   UNL     1       1.511   8.891  18.797  0.00  0.00    +0.000 A 
ATOM     16  C   UNL     1       1.466   8.172  19.983  0.00  0.00    +0.000 A 
ATOM     17  C   UNL     1       2.242   7.026  20.132  0.00  0.00    +0.000 A 
BRANCH  15  18
ATOM     18  O   UNL     1       0.755  10.005  18.562  0.00  0.00    +0.000 OA
ATOM     19  C   UNL     1       0.208  10.582  19.749  0.00  0.00    +0.000 C 
ENDBRANCH  15  18
ENDBRANCH   2  12
BRANCH   1  22
ATOM     20  C   UNL     1       6.620   5.533  17.099  0.00  0.00    +0.000 C 
ATOM     21  O   UNL     1       7.409   4.918  17.807  0.00  0.00    +0.000 OA
ATOM     22  N   UNL     1       5.242   5.540  17.246  0.00  0.00    +0.000 N 
ATOM     23  H   UNL     1       4.740   6.356  16.912  0.00  0.00    +0.000 HD
BRANCH  20  24
ATOM     24  C   UNL     1       7.102   6.445  15.926  0.00  0.00    +0.000 C 
BRANCH  24  25
ATOM     25  O   UNL     1       7.808   5.718  14.920  0.00  0.00    +0.000 OA
BRANCH  25  29
ATOM     26  C   UNL     1       5.841   3.187  12.207  0.00  0.00    +0.000 A 
ATOM     27  C   UNL     1       7.020   3.848  11.886  0.00  0.00    +0.000 A 
ATOM     28  C   UNL     1       7.641   4.696  12.813  0.00  0.00    +0.000 A 
ATOM     29  C   UNL     1       7.071   4.928  14.068  0.00  0.00    +0.000 A 
ATOM     30  C   UNL     1       5.872   4.284  14.379  0.00  0.00    +0.000 A 
ATOM     31  C   UNL     1       5.253   3.416  13.453  0.00  0.00    +0.000 A 
BRANCH  26  33
ATOM     32  C   UNL     1       5.918   1.093  11.069  0.00  0.00    +0.000 C 
ATOM     33  O   UNL     1       5.333   2.381  11.220  0.00  0.00    +0.000 OA
ENDBRANCH  26  33
ENDBRANCH  25  29
ENDBRANCH  24  25
ENDBRANCH  20  24
ENDBRANCH   1  22
TORSDOF 7
ENDMDL
MODEL 4
REMARK VINA RESULT:      -8.6      3.587      5.729
REMARK  Name = 
REMARK  9 active torsions:
REMARK  status: ('A' for Active; 'I' for Inactive)
REMARK    1  A    between atoms: C_1  and  O_2
REMARK    2  A    between atoms: O_2  and  C_3
REMARK    3  A    between atoms: C_6  and  O_7
REMARK    4  A    between atoms: O_7  and  C_8
REMARK    5  A    between atoms: C_8  and  C_9
REMARK    6  A    between atoms: N_11  and  N_12
REMARK    7  A    between atoms: C_13  and  C_14
REMARK    8  A    between atoms: C_17  and  O_18
REMARK    9  A    between atoms: O_18  and  C_19
REMARK                            x       y       z     vdW  Elec       q    Type
REMARK                         _______ _______ _______ _____ _____    ______ ____
ROOT
ATOM      1  N   UNL     1       4.917   5.335  18.359  0.00  0.00    +0.000 N 
ATOM      2  C   UNL     1       4.139   5.752  19.430  0.00  0.00    +0.000 A 
ATOM      3  N   UNL     1       3.873   4.844  20.328  0.00  0.00    +0.000 NA
ATOM      4  C   UNL     1       3.132   3.793  19.716  0.00  0.00    +0.000 A 
ATOM      5  C   UNL     1       2.167   3.140  20.485  0.00  0.00    +0.000 A 
ATOM      6  C   UNL     1       1.017   2.654  19.861  0.00  0.00    +0.000 A 
ATOM      7  C   UNL     1       0.859   2.806  18.481  0.00  0.00    +0.000 A 
ATOM      8  C   UNL     1       1.909   3.299  17.692  0.00  0.00    +0.000 A 
ATOM      9  C   UNL     1       3.083   3.737  18.307  0.00  0.00    +0.000 A 
ATOM     10  C   UNL     1       4.170   4.475  17.547  0.00  0.00    +0.000 A 
ATOM     11  O   UNL     1       4.199   4.397  16.325  0.00  0.00    +0.000 OA
ENDROOT
BRANCH   2  12
ATOM     12  C   UNL     1       3.099   6.837  19.106  0.00  0.00    +0.000 A 
ATOM     13  C   UNL     1       3.205   7.556  17.905  0.00  0.00    +0.000 A 
ATOM     14  C   UNL     1       2.410   8.690  17.679  0.00  0.00    +0.000 A 
ATOM     15  C   UNL     1       1.470   9.094  18.625  0.00  0.00    +0.000 A 
ATOM     16  C   UNL     1       1.398   8.428  19.840  0.00  0.00    +0.000 A 
ATOM     17  C   UNL     1       2.208   7.321  20.077  0.00  0.00    +0.000 A 
BRANCH  15  18
ATOM     18  O   UNL     1       0.685  10.165  18.304  0.00  0.00    +0.000 OA
ATOM     19  C   UNL     1      -0.613   9.799  17.835  0.00  0.00    +0.000 C 
ENDBRANCH  15  18
ENDBRANCH   2  12
BRANCH   1  22
ATOM     20  C   UNL     1       7.120   6.542  18.179  0.00  0.00    +0.000 C 
ATOM     21  O   UNL     1       7.711   5.955  19.078  0.00  0.00    +0.000 OA
ATOM     22  N   UNL     1       5.797   6.340  17.818  0.00  0.00    +0.000 N 
ATOM     23  H   UNL     1       5.306   7.115  17.386  0.00  0.00    +0.000 HD
BRANCH  20  24
ATOM     24  C   UNL     1       7.809   7.656  17.328  0.00  0.00    +0.000 C 
BRANCH  24  25
ATOM     25  O   UNL     1       7.336   8.964  17.651  0.00  0.00    +0.000 OA
BRANCH  25  29
ATOM     26  C   UNL     1       9.905  11.970  19.068  0.00  0.00    +0.000 A 
ATOM     27  C   UNL     1       9.052  12.169  17.989  0.00  0.00    +0.000 A 
ATOM     28  C   UNL     1       8.218  11.137  17.536  0.00  0.00    +0.000 A 
ATOM     29  C   UNL     1       8.251   9.873  18.131  0.00  0.00    +0.000 A 
ATOM     30  C   UNL     1       9.128   9.667  19.197  0.00  0.00    +0.000 A 
ATOM     31  C   UNL     1       9.957  10.710  19.667  0.00  0.00    +0.000 A 
BRANCH  26  33
ATOM     32  C   UNL     1      12.078  12.910  19.346  0.00  0.00    +0.000 C 
ATOM     33  O   UNL     1      10.665  13.056  19.421  0.00  0.00    +0.000 OA
ENDBRANCH  26  33
ENDBRANCH  25  29
ENDBRANCH  24  25
ENDBRANCH  20  24
ENDBRANCH   1  22
TORSDOF 7
ENDMDL
MODEL 5
REMARK VINA RESULT:      -8.6      3.658      5.787
REMARK  Name = 
REMARK  9 active torsions:
REMARK  status: ('A' for Active; 'I' for Inactive)
REMARK    1  A    between atoms: C_1  and  O_2
REMARK    2  A    between atoms: O_2  and  C_3
REMARK    3  A    between atoms: C_6  and  O_7
REMARK    4  A    between atoms: O_7  and  C_8
REMARK    5  A    between atoms: C_8  and  C_9
REMARK    6  A    between atoms: N_11  and  N_12
REMARK    7  A    between atoms: C_13  and  C_14
REMARK    8  A    between atoms: C_17  and  O_18
REMARK    9  A    between atoms: O_18  and  C_19
REMARK                            x       y       z     vdW  Elec       q    Type
REMARK                         _______ _______ _______ _____ _____    ______ ____
ROOT
ATOM      1  N   UNL     1       5.327   5.198  18.261  0.00  0.00    +0.000 N 
ATOM      2  C   UNL     1       4.504   5.521  19.331  0.00  0.00    +0.000 A 
ATOM      3  N   UNL     1       4.282   4.561  20.187  0.00  0.00    +0.000 NA
ATOM      4  C   UNL     1       3.623   3.490  19.520  0.00  0.00    +0.000 A 
ATOM      5  C   UNL     1       2.689   2.746  20.242  0.00  0.00    +0.000 A 
ATOM      6  C   UNL     1       1.585   2.212  19.576  0.00  0.00    +0.000 A 
ATOM      7  C   UNL     1       1.442   2.409  18.201  0.00  0.00    +0.000 A 
ATOM      8  C   UNL     1       2.472   3.000  17.453  0.00  0.00    +0.000 A 
ATOM      9  C   UNL     1       3.603   3.488  18.109  0.00  0.00    +0.000 A 
ATOM     10  C   UNL     1       4.653   4.325  17.400  0.00  0.00    +0.000 A 
ATOM     11  O   UNL     1       4.708   4.299  16.178  0.00  0.00    +0.000 OA
ENDROOT
BRANCH   2  12
ATOM     12  C   UNL     1       3.401   6.548  19.029  0.00  0.00    +0.000 A 
ATOM     13  C   UNL     1       3.464   7.297  17.843  0.00  0.00    +0.000 A 
ATOM     14  C   UNL     1       2.603   8.386  17.639  0.00  0.00    +0.000 A 
ATOM     15  C   UNL     1       1.640   8.713  18.593  0.00  0.00    +0.000 A 
ATOM     16  C   UNL     1       1.608   8.018  19.793  0.00  0.00    +0.000 A 
ATOM     17  C   UNL     1       2.482   6.958  20.008  0.00  0.00    +0.000 A 
BRANCH  15  18
ATOM     18  O   UNL     1       0.793   9.742  18.293  0.00  0.00    +0.000 OA
ATOM     19  C   UNL     1       0.579  10.639  19.385  0.00  0.00    +0.000 C 
ENDBRANCH  15  18
ENDBRANCH   2  12
BRANCH   1  22
ATOM     20  C   UNL     1       7.408   6.617  18.249  0.00  0.00    +0.000 C 
ATOM     21  O   UNL     1       7.971   6.103  19.209  0.00  0.00    +0.000 OA
ATOM     22  N   UNL     1       6.149   6.279  17.778  0.00  0.00    +0.000 N 
ATOM     23  H   UNL     1       5.625   6.996  17.287  0.00  0.00    +0.000 HD
BRANCH  20  24
ATOM     24  C   UNL     1       8.057   7.784  17.438  0.00  0.00    +0.000 C 
BRANCH  24  25
ATOM     25  O   UNL     1       7.420   9.039  17.677  0.00  0.00    +0.000 OA
BRANCH  25  29
ATOM     26  C   UNL     1      10.062  12.008  19.034  0.00  0.00    +0.000 A 
ATOM     27  C   UNL     1      10.020  10.738  19.595  0.00  0.00    +0.000 A 
ATOM     28  C   UNL     1       9.115   9.777  19.125  0.00  0.00    +0.000 A 
ATOM     29  C   UNL     1       8.207  10.082  18.108  0.00  0.00    +0.000 A 
ATOM     30  C   UNL     1       8.232  11.368  17.563  0.00  0.00    +0.000 A 
ATOM     31  C   UNL     1       9.155  12.332  18.023  0.00  0.00    +0.000 A 
BRANCH  26  33
ATOM     32  C   UNL     1      11.011  14.195  19.091  0.00  0.00    +0.000 C 
ATOM     33  O   UNL     1      10.994  12.857  19.575  0.00  0.00    +0.000 OA
ENDBRANCH  26  33
ENDBRANCH  25  29
ENDBRANCH  24  25
ENDBRANCH  20  24
ENDBRANCH   1  22
TORSDOF 7
ENDMDL
MODEL 6
REMARK VINA RESULT:      -8.3      3.741      7.029
REMARK  Name = 
REMARK  9 active torsions:
REMARK  status: ('A' for Active; 'I' for Inactive)
REMARK    1  A    between atoms: C_1  and  O_2
REMARK    2  A    between atoms: O_2  and  C_3
REMARK    3  A    between atoms: C_6  and  O_7
REMARK    4  A    between atoms: O_7  and  C_8
REMARK    5  A    between atoms: C_8  and  C_9
REMARK    6  A    between atoms: N_11  and  N_12
REMARK    7  A    between atoms: C_13  and  C_14
REMARK    8  A    between atoms: C_17  and  O_18
REMARK    9  A    between atoms: O_18  and  C_19
REMARK                            x       y       z     vdW  Elec       q    Type
REMARK                         _______ _______ _______ _____ _____    ______ ____
ROOT
ATOM      1  N   UNL     1       0.708  10.205  20.417  0.00  0.00    +0.000 N 
ATOM      2  C   UNL     1       0.182  11.342  19.818  0.00  0.00    +0.000 A 
ATOM      3  N   UNL     1       0.484  12.476  20.386  0.00  0.00    +0.000 NA
ATOM      4  C   UNL     1      -0.034  12.480  21.713  0.00  0.00    +0.000 A 
ATOM      5  C   UNL     1      -0.482  13.694  22.236  0.00  0.00    +0.000 A 
ATOM      6  C   UNL     1      -1.550  13.693  23.134  0.00  0.00    +0.000 A 
ATOM      7  C   UNL     1      -2.137  12.484  23.513  0.00  0.00    +0.000 A 
ATOM      8  C   UNL     1      -1.568  11.261  23.125  0.00  0.00    +0.000 A 
ATOM      9  C   UNL     1      -0.466  11.258  22.269  0.00  0.00    +0.000 A 
ATOM     10  C   UNL     1       0.068   9.984  21.641  0.00  0.00    +0.000 A 
ATOM     11  O   UNL     1      -0.233   8.905  22.135  0.00  0.00    +0.000 OA
ENDROOT
BRANCH   2  12
ATOM     12  C   UNL     1      -1.193  11.159  19.153  0.00  0.00    +0.000 A 
ATOM     13  C   UNL     1      -1.300  10.366  17.999  0.00  0.00    +0.000 A 
ATOM     14  C   UNL     1      -2.485  10.355  17.249  0.00  0.00    +0.000 A 
ATOM     15  C   UNL     1      -3.591  11.096  17.662  0.00  0.00    +0.000 A 
ATOM     16  C   UNL     1      -3.477  11.929  18.766  0.00  0.00    +0.000 A 
ATOM     17  C   UNL     1      -2.292  11.964  19.493  0.00  0.00    +0.000 A 
BRANCH  15  18
ATOM     18  O   UNL     1      -4.731  10.980  16.919  0.00  0.00    +0.000 OA
ATOM     19  C   UNL     1      -5.903  11.429  17.601  0.00  0.00    +0.000 C 
ENDBRANCH  15  18
ENDBRANCH   2  12
BRANCH   1  22
ATOM     20  C   UNL     1       1.877   9.226  18.412  0.00  0.00    +0.000 C 
ATOM     21  O   UNL     1       2.397  10.255  17.997  0.00  0.00    +0.000 OA
ATOM     22  N   UNL     1       1.035   9.135  19.509  0.00  0.00    +0.000 N 
ATOM     23  H   UNL     1       0.359   8.378  19.519  0.00  0.00    +0.000 HD
BRANCH  20  24
ATOM     24  C   UNL     1       2.083   7.852  17.699  0.00  0.00    +0.000 C 
BRANCH  24  25
ATOM     25  O   UNL     1       3.053   7.034  18.354  0.00  0.00    +0.000 OA
BRANCH  25  29
ATOM     26  C   UNL     1       5.354   4.537  15.881  0.00  0.00    +0.000 A 
ATOM     27  C   UNL     1       4.397   4.039  16.757  0.00  0.00    +0.000 A 
ATOM     28  C   UNL     1       3.658   4.902  17.577  0.00  0.00    +0.000 A 
ATOM     29  C   UNL     1       3.890   6.280  17.563  0.00  0.00    +0.000 A 
ATOM     30  C   UNL     1       4.870   6.777  16.702  0.00  0.00    +0.000 A 
ATOM     31  C   UNL     1       5.605   5.911  15.863  0.00  0.00    +0.000 A 
BRANCH  26  33
ATOM     32  C   UNL     1       6.252   3.911  13.763  0.00  0.00    +0.000 C 
ATOM     33  O   UNL     1       6.007   3.594  15.128  0.00  0.00    +0.000 OA
ENDBRANCH  26  33
ENDBRANCH  25  29
ENDBRANCH  24  25
ENDBRANCH  20  24
ENDBRANCH   1  22
TORSDOF 7
ENDMDL
MODEL 7
REMARK VINA RESULT:      -8.3      0.877      1.521
REMARK  Name = 
REMARK  9 active torsions:
REMARK  status: ('A' for Active; 'I' for Inactive)
REMARK    1  A    between atoms: C_1  and  O_2
REMARK    2  A    between atoms: O_2  and  C_3
REMARK    3  A    between atoms: C_6  and  O_7
REMARK    4  A    between atoms: O_7  and  C_8
REMARK    5  A    between atoms: C_8  and  C_9
REMARK    6  A    between atoms: N_11  and  N_12
REMARK    7  A    between atoms: C_13  and  C_14
REMARK    8  A    between atoms: C_17  and  O_18
REMARK    9  A    between atoms: O_18  and  C_19
REMARK                            x       y       z     vdW  Elec       q    Type
REMARK                         _______ _______ _______ _____ _____    ______ ____
ROOT
ATOM      1  N   UNL     1       4.710   4.162  18.048  0.00  0.00    +0.000 N 
ATOM      2  C   UNL     1       4.489   4.888  19.211  0.00  0.00    +0.000 A 
ATOM      3  N   UNL     1       4.351   4.186  20.303  0.00  0.00    +0.000 NA
ATOM      4  C   UNL     1       3.213   3.341  20.168  0.00  0.00    +0.000 A 
ATOM      5  C   UNL     1       2.459   3.073  21.312  0.00  0.00    +0.000 A 
ATOM      6  C   UNL     1       1.083   2.884  21.189  0.00  0.00    +0.000 A 
ATOM      7  C   UNL     1       0.484   2.942  19.928  0.00  0.00    +0.000 A 
ATOM      8  C   UNL     1       1.269   3.031  18.768  0.00  0.00    +0.000 A 
ATOM      9  C   UNL     1       2.653   3.167  18.885  0.00  0.00    +0.000 A 
ATOM     10  C   UNL     1       3.540   3.481  17.694  0.00  0.00    +0.000 A 
ATOM     11  O   UNL     1       3.112   3.283  16.565  0.00  0.00    +0.000 OA
ENDROOT
BRANCH   2  12
ATOM     12  C   UNL     1       3.692   6.192  19.034  0.00  0.00    +0.000 A 
ATOM     13  C   UNL     1       2.721   6.541  19.986  0.00  0.00    +0.000 A 
ATOM     14  C   UNL     1       1.833   7.599  19.744  0.00  0.00    +0.000 A 
ATOM     15  C   UNL     1       1.931   8.351  18.575  0.00  0.00    +0.000 A 
ATOM     16  C   UNL     1       2.846   7.978  17.601  0.00  0.00    +0.000 A 
ATOM     17  C   UNL     1       3.707   6.909  17.827  0.00  0.00    +0.000 A 
BRANCH  15  18
ATOM     18  O   UNL     1       1.077   9.409  18.442  0.00  0.00    +0.000 OA
ATOM     19  C   UNL     1       0.660   9.964  19.691  0.00  0.00    +0.000 C 
ENDBRANCH  15  18
ENDBRANCH   2  12
BRANCH   1  22
ATOM     20  C   UNL     1       6.938   4.834  17.086  0.00  0.00    +0.000 C 
ATOM     21  O   UNL     1       7.652   4.381  17.972  0.00  0.00    +0.000 OA
ATOM     22  N   UNL     1       5.552   4.812  17.077  0.00  0.00    +0.000 N 
ATOM     23  H   UNL     1       5.075   5.539  16.552  0.00  0.00    +0.000 HD
BRANCH  20  24
ATOM     24  C   UNL     1       7.533   5.550  15.831  0.00  0.00    +0.000 C 
BRANCH  24  25
ATOM     25  O   UNL     1       6.554   5.790  14.820  0.00  0.00    +0.000 OA
BRANCH  25  29
ATOM     26  C   UNL     1       6.437   2.853  11.821  0.00  0.00    +0.000 A 
ATOM     27  C   UNL     1       7.456   3.794  11.900  0.00  0.00    +0.000 A 
ATOM     28  C   UNL     1       7.454   4.768  12.908  0.00  0.00    +0.000 A 
ATOM     29  C   UNL     1       6.410   4.842  13.833  0.00  0.00    +0.000 A 
ATOM     30  C   UNL     1       5.373   3.913  13.735  0.00  0.00    +0.000 A 
ATOM     31  C   UNL     1       5.381   2.919  12.732  0.00  0.00    +0.000 A 
BRANCH  26  33
ATOM     32  C   UNL     1       6.193   0.601  11.075  0.00  0.00    +0.000 C 
ATOM     33  O   UNL     1       6.554   1.948  10.796  0.00  0.00    +0.000 OA
ENDBRANCH  26  33
ENDBRANCH  25  29
ENDBRANCH  24  25
ENDBRANCH  20  24
ENDBRANCH   1  22
TORSDOF 7
ENDMDL
MODEL 8
REMARK VINA RESULT:      -8.3      1.049      1.435
REMARK  Name = 
REMARK  9 active torsions:
REMARK  status: ('A' for Active; 'I' for Inactive)
REMARK    1  A    between atoms: C_1  and  O_2
REMARK    2  A    between atoms: O_2  and  C_3
REMARK    3  A    between atoms: C_6  and  O_7
REMARK    4  A    between atoms: O_7  and  C_8
REMARK    5  A    between atoms: C_8  and  C_9
REMARK    6  A    between atoms: N_11  and  N_12
REMARK    7  A    between atoms: C_13  and  C_14
REMARK    8  A    between atoms: C_17  and  O_18
REMARK    9  A    between atoms: O_18  and  C_19
REMARK                            x       y       z     vdW  Elec       q    Type
REMARK                         _______ _______ _______ _____ _____    ______ ____
ROOT
ATOM      1  N   UNL     1       4.967   3.861  18.381  0.00  0.00    +0.000 N 
ATOM      2  C   UNL     1       4.556   4.803  19.315  0.00  0.00    +0.000 A 
ATOM      3  N   UNL     1       4.332   4.351  20.518  0.00  0.00    +0.000 NA
ATOM      4  C   UNL     1       3.279   3.394  20.464  0.00  0.00    +0.000 A 
ATOM      5  C   UNL     1       2.410   3.317  21.554  0.00  0.00    +0.000 A 
ATOM      6  C   UNL     1       1.075   2.977  21.334  0.00  0.00    +0.000 A 
ATOM      7  C   UNL     1       0.634   2.697  20.039  0.00  0.00    +0.000 A 
ATOM      8  C   UNL     1       1.548   2.600  18.979  0.00  0.00    +0.000 A 
ATOM      9  C   UNL     1       2.895   2.888  19.205  0.00  0.00    +0.000 A 
ATOM     10  C   UNL     1       3.898   3.012  18.073  0.00  0.00    +0.000 A 
ATOM     11  O   UNL     1       3.627   2.528  16.982  0.00  0.00    +0.000 OA
ENDROOT
BRANCH   2  12
ATOM     12  C   UNL     1       3.701   5.954  18.758  0.00  0.00    +0.000 A 
ATOM     13  C   UNL     1       4.060   6.550  17.538  0.00  0.00    +0.000 A 
ATOM     14  C   UNL     1       3.439   7.733  17.112  0.00  0.00    +0.000 A 
ATOM     15  C   UNL     1       2.423   8.311  17.871  0.00  0.00    +0.000 A 
ATOM     16  C   UNL     1       2.102   7.765  19.106  0.00  0.00    +0.000 A 
ATOM     17  C   UNL     1       2.740   6.608  19.543  0.00  0.00    +0.000 A 
BRANCH  15  18
ATOM     18  O   UNL     1       1.818   9.423  17.358  0.00  0.00    +0.000 OA
ATOM     19  C   UNL     1       2.061  10.606  18.121  0.00  0.00    +0.000 C 
ENDBRANCH  15  18
ENDBRANCH   2  12
BRANCH   1  22
ATOM     20  C   UNL     1       7.201   4.706  17.585  0.00  0.00    +0.000 C 
ATOM     21  O   UNL     1       7.770   4.735  18.669  0.00  0.00    +0.000 OA
ATOM     22  N   UNL     1       5.876   4.355  17.379  0.00  0.00    +0.000 N 
ATOM     23  H   UNL     1       5.409   4.747  16.568  0.00  0.00    +0.000 HD
BRANCH  20  24
ATOM     24  C   UNL     1       7.925   5.114  16.262  0.00  0.00    +0.000 C 
BRANCH  24  25
ATOM     25  O   UNL     1       7.040   5.710  15.313  0.00  0.00    +0.000 OA
BRANCH  25  29
ATOM     26  C   UNL     1       5.943   3.188  12.139  0.00  0.00    +0.000 A 
ATOM     27  C   UNL     1       7.141   3.891  12.149  0.00  0.00    +0.000 A 
ATOM     28  C   UNL     1       7.467   4.735  13.220  0.00  0.00    +0.000 A 
ATOM     29  C   UNL     1       6.580   4.919  14.284  0.00  0.00    +0.000 A 
ATOM     30  C   UNL     1       5.365   4.232  14.260  0.00  0.00    +0.000 A 
ATOM     31  C   UNL     1       5.042   3.368  13.190  0.00  0.00    +0.000 A 
BRANCH  26  33
ATOM     32  C   UNL     1       6.517   1.203  10.949  0.00  0.00    +0.000 C 
ATOM     33  O   UNL     1       5.741   2.391  11.040  0.00  0.00    +0.000 OA
ENDBRANCH  26  33
ENDBRANCH  25  29
ENDBRANCH  24  25
ENDBRANCH  20  24
ENDBRANCH   1  22
TORSDOF 7
ENDMDL
MODEL 9
REMARK VINA RESULT:      -8.2      4.452      8.109
REMARK  Name = 
REMARK  9 active torsions:
REMARK  status: ('A' for Active; 'I' for Inactive)
REMARK    1  A    between atoms: C_1  and  O_2
REMARK    2  A    between atoms: O_2  and  C_3
REMARK    3  A    between atoms: C_6  and  O_7
REMARK    4  A    between atoms: O_7  and  C_8
REMARK    5  A    between atoms: C_8  and  C_9
REMARK    6  A    between atoms: N_11  and  N_12
REMARK    7  A    between atoms: C_13  and  C_14
REMARK    8  A    between atoms: C_17  and  O_18
REMARK    9  A    between atoms: O_18  and  C_19
REMARK                            x       y       z     vdW  Elec       q    Type
REMARK                         _______ _______ _______ _____ _____    ______ ____
ROOT
ATOM      1  N   UNL     1       0.570  10.544  20.288  0.00  0.00    +0.000 N 
ATOM      2  C   UNL     1       0.016  11.706  19.766  0.00  0.00    +0.000 A 
ATOM      3  N   UNL     1       0.281  12.804  20.418  0.00  0.00    +0.000 NA
ATOM      4  C   UNL     1      -0.249  12.698  21.736  0.00  0.00    +0.000 A 
ATOM      5  C   UNL     1      -0.736  13.858  22.341  0.00  0.00    +0.000 A 
ATOM      6  C   UNL     1      -1.811  13.762  23.224  0.00  0.00    +0.000 A 
ATOM      7  C   UNL     1      -2.367  12.513  23.509  0.00  0.00    +0.000 A 
ATOM      8  C   UNL     1      -1.760  11.338  23.040  0.00  0.00    +0.000 A 
ATOM      9  C   UNL     1      -0.650  11.427  22.198  0.00  0.00    +0.000 A 
ATOM     10  C   UNL     1      -0.074  10.217  21.486  0.00  0.00    +0.000 A 
ATOM     11  O   UNL     1      -0.349   9.098  21.897  0.00  0.00    +0.000 OA
ENDROOT
BRANCH   2  12
ATOM     12  C   UNL     1      -1.347  11.534  19.075  0.00  0.00    +0.000 A 
ATOM     13  C   UNL     1      -2.422  12.351  19.460  0.00  0.00    +0.000 A 
ATOM     14  C   UNL     1      -3.722  12.079  19.010  0.00  0.00    +0.000 A 
ATOM     15  C   UNL     1      -3.960  11.018  18.138  0.00  0.00    +0.000 A 
ATOM     16  C   UNL     1      -2.918  10.169  17.799  0.00  0.00    +0.000 A 
ATOM     17  C   UNL     1      -1.632  10.420  18.269  0.00  0.00    +0.000 A 
BRANCH  15  18
ATOM     18  O   UNL     1      -5.241  10.857  17.689  0.00  0.00    +0.000 OA
ATOM     19  C   UNL     1      -6.048  12.026  17.842  0.00  0.00    +0.000 C 
ENDBRANCH  15  18
ENDBRANCH   2  12
BRANCH   1  22
ATOM     20  C   UNL     1       1.846   9.722  18.279  0.00  0.00    +0.000 C 
ATOM     21  O   UNL     1       2.409  10.771  17.991  0.00  0.00    +0.000 OA
ATOM     22  N   UNL     1       0.935   9.552  19.309  0.00  0.00    +0.000 N 
ATOM     23  H   UNL     1       0.247   8.813  19.208  0.00  0.00    +0.000 HD
BRANCH  20  24
ATOM     24  C   UNL     1       2.073   8.411  17.458  0.00  0.00    +0.000 C 
BRANCH  24  25
ATOM     25  O   UNL     1       3.064   7.564  18.041  0.00  0.00    +0.000 OA
BRANCH  25  29
ATOM     26  C   UNL     1       1.968   3.935  19.849  0.00  0.00    +0.000 A 
ATOM     27  C   UNL     1       2.301   4.024  18.504  0.00  0.00    +0.000 A 
ATOM     28  C   UNL     1       2.649   5.255  17.932  0.00  0.00    +0.000 A 
ATOM     29  C   UNL     1       2.631   6.429  18.689  0.00  0.00    +0.000 A 
ATOM     30  C   UNL     1       2.270   6.343  20.035  0.00  0.00    +0.000 A 
ATOM     31  C   UNL     1       1.936   5.101  20.618  0.00  0.00    +0.000 A 
BRANCH  26  33
ATOM     32  C   UNL     1       1.502   2.501  21.697  0.00  0.00    +0.000 C 
ATOM     33  O   UNL     1       1.652   2.676  20.293  0.00  0.00    +0.000 OA
ENDBRANCH  26  33
ENDBRANCH  25  29
ENDBRANCH  24  25
ENDBRANCH  20  24
ENDBRANCH   1  22
TORSDOF 7
ENDMDL
