MODEL 1
REMARK VINA RESULT:      -8.2      0.000      0.000
REMARK  Name = 
REMARK  7 active torsions:
REMARK  status: ('A' for Active; 'I' for Inactive)
REMARK    1  A    between atoms: C_1  and  S_2
REMARK    2  A    between atoms: S_2  and  C_3
REMARK    3  A    between atoms: C_7  and  O_8
REMARK    4  A    between atoms: O_8  and  C_9
REMARK    5  A    between atoms: C_10  and  C_11
REMARK    6  A    between atoms: C_17  and  C_18
REMARK    7  A    between atoms: C_21  and  N_22
REMARK                            x       y       z     vdW  Elec       q    Type
REMARK                         _______ _______ _______ _____ _____    ______ ____
ROOT
ATOM      1  C   UNL     1       3.551   5.341  18.887  0.00  0.00    +0.000 A 
ATOM      2  C   UNL     1       2.828   4.139  19.063  0.00  0.00    +0.000 A 
ATOM      3  C   UNL     1       3.096   3.119  18.127  0.00  0.00    +0.000 A 
ATOM      4  C   UNL     1       4.030   3.271  17.095  0.00  0.00    +0.000 A 
ATOM      5  C   UNL     1       4.771   4.450  16.951  0.00  0.00    +0.000 A 
ATOM      6  C   UNL     1       4.551   5.452  17.903  0.00  0.00    +0.000 A 
ATOM      7  F   UNL     1       5.347   6.535  17.895  0.00  0.00    +0.000 F 
ENDROOT
BRANCH   5   8
ATOM      8  C   UNL     1       5.700   4.624  15.824  0.00  0.00    +0.000 A 
ATOM      9  C   UNL     1       6.890   5.350  15.911  0.00  0.00    +0.000 A 
ATOM     10  N   UNL     1       7.713   5.588  14.854  0.00  0.00    +0.000 NA
ATOM     11  C   UNL     1       7.314   5.078  13.680  0.00  0.00    +0.000 A 
ATOM     12  C   UNL     1       6.127   4.356  13.579  0.00  0.00    +0.000 A 
ATOM     13  N   UNL     1       5.305   4.109  14.631  0.00  0.00    +0.000 NA
BRANCH  11  14
ATOM     14  N   UNL     1       8.108   5.357  12.573  0.00  0.00    +0.000 N 
ATOM     15  H   UNL     1       7.687   4.878  11.779  0.00  0.00    +0.000 HD
ATOM     16  H   UNL     1       8.199   6.353  12.410  0.00  0.00    +0.000 HD
ENDBRANCH  11  14
ENDBRANCH   5   8
BRANCH   2  17
ATOM     17  C   UNL     1       1.774   3.913  20.238  0.00  0.00    +0.000 C 
ATOM     18  C   UNL     1       1.055   2.528  20.332  0.00  0.00    +0.000 C 
ATOM     19  C   UNL     1       1.106   2.667  21.862  0.00  0.00    +0.000 C 
ATOM     20  C   UNL     1       2.308   3.607  21.669  0.00  0.00    +0.000 C 
ENDBRANCH   2  17
BRANCH   1  21
ATOM     21  O   UNL     1       3.274   6.361  19.777  0.00  0.00    +0.000 OA
BRANCH  21  26
ATOM     22  C   UNL     1       0.994   9.042  19.936  0.00  0.00    +0.000 A 
ATOM     23  C   UNL     1       0.999   9.555  18.656  0.00  0.00    +0.000 A 
ATOM     24  C   UNL     1       1.775   8.882  17.745  0.00  0.00    +0.000 A 
ATOM     25  N   UNL     1       2.506   7.797  18.052  0.00  0.00    +0.000 NA
ATOM     26  C   UNL     1       2.487   7.423  19.347  0.00  0.00    +0.000 A 
ATOM     27  N   UNL     1       1.731   7.979  20.302  0.00  0.00    +0.000 NA
BRANCH  22  29
ATOM     28  C   UNL     1      -0.755  11.170  20.183  0.00  0.00    +0.000 C 
ATOM     29  S   UNL     1      -0.040   9.825  21.166  0.00  0.00    +0.000 S 
ENDBRANCH  22  29
ENDBRANCH  21  26
ENDBRANCH   1  21
TORSDOF 6
ENDMDL
MODEL 2
REMARK VINA RESULT:      -7.7      3.078      6.868
REMARK  Name = 
REMARK  7 active torsions:
REMARK  status: ('A' for Active; 'I' for Inactive)
REMARK    1  A    between atoms: C_1  and  S_2
REMARK    2  A    between atoms: S_2  and  C_3
REMARK    3  A    between atoms: C_7  and  O_8
REMARK    4  A    between atoms: O_8  and  C_9
REMARK    5  A    between atoms: C_10  and  C_11
REMARK    6  A    between atoms: C_17  and  C_18
REMARK    7  A    between atoms: C_21  and  N_22
REMARK                            x       y       z     vdW  Elec       q    Type
REMARK                         _______ _______ _______ _____ _____    ______ ____
ROOT
ATOM      1  C   UNL     1       2.507   6.355  18.667  0.00  0.00    +0.000 A 
ATOM      2  C   UNL     1       2.084   5.782  19.888  0.00  0.00    +0.000 A 
ATOM      3  C   UNL     1       1.507   6.672  20.817  0.00  0.00    +0.000 A 
ATOM      4  C   UNL     1       1.342   8.036  20.548  0.00  0.00    +0.000 A 
ATOM      5  C   UNL     1       1.727   8.589  19.321  0.00  0.00    +0.000 A 
ATOM      6  C   UNL     1       2.256   7.707  18.372  0.00  0.00    +0.000 A 
ATOM      7  F   UNL     1       2.494   8.163  17.130  0.00  0.00    +0.000 F 
ENDROOT
BRANCH   5   8
ATOM      8  C   UNL     1       1.611  10.034  19.075  0.00  0.00    +0.000 A 
ATOM      9  C   UNL     1       2.390  10.723  18.143  0.00  0.00    +0.000 A 
ATOM     10  N   UNL     1       2.351  12.072  17.968  0.00  0.00    +0.000 NA
ATOM     11  C   UNL     1       1.501  12.736  18.764  0.00  0.00    +0.000 A 
ATOM     12  C   UNL     1       0.721  12.062  19.700  0.00  0.00    +0.000 A 
ATOM     13  N   UNL     1       0.751  10.717  19.875  0.00  0.00    +0.000 NA
BRANCH  11  14
ATOM     14  N   UNL     1       1.485  14.122  18.645  0.00  0.00    +0.000 N 
ATOM     15  H   UNL     1       0.922  14.478  19.416  0.00  0.00    +0.000 HD
ATOM     16  H   UNL     1       2.418  14.516  18.644  0.00  0.00    +0.000 HD
ENDBRANCH  11  14
ENDBRANCH   5   8
BRANCH   2  17
ATOM     17  C   UNL     1       2.229   4.230  20.227  0.00  0.00    +0.000 C 
ATOM     18  C   UNL     1       2.282   3.801  21.729  0.00  0.00    +0.000 C 
ATOM     19  C   UNL     1       1.496   2.540  21.340  0.00  0.00    +0.000 C 
ATOM     20  C   UNL     1       0.965   3.325  20.129  0.00  0.00    +0.000 C 
ENDBRANCH   2  17
BRANCH   1  21
ATOM     21  O   UNL     1       3.105   5.499  17.762  0.00  0.00    +0.000 OA
BRANCH  21  26
ATOM     22  C   UNL     1       6.339   5.194  16.396  0.00  0.00    +0.000 A 
ATOM     23  C   UNL     1       7.172   5.435  17.468  0.00  0.00    +0.000 A 
ATOM     24  C   UNL     1       6.551   5.637  18.676  0.00  0.00    +0.000 A 
ATOM     25  N   UNL     1       5.217   5.621  18.835  0.00  0.00    +0.000 NA
ATOM     26  C   UNL     1       4.493   5.450  17.711  0.00  0.00    +0.000 A 
ATOM     27  N   UNL     1       4.999   5.199  16.496  0.00  0.00    +0.000 NA
BRANCH  22  29
ATOM     28  C   UNL     1       5.685   4.047  13.966  0.00  0.00    +0.000 C 
ATOM     29  S   UNL     1       7.073   4.861  14.801  0.00  0.00    +0.000 S 
ENDBRANCH  22  29
ENDBRANCH  21  26
ENDBRANCH   1  21
TORSDOF 6
ENDMDL
MODEL 3
REMARK VINA RESULT:      -7.6      3.135      6.990
REMARK  Name = 
REMARK  7 active torsions:
REMARK  status: ('A' for Active; 'I' for Inactive)
REMARK    1  A    between atoms: C_1  and  S_2
REMARK    2  A    between atoms: S_2  and  C_3
REMARK    3  A    between atoms: C_7  and  O_8
REMARK    4  A    between atoms: O_8  and  C_9
REMARK    5  A    between atoms: C_10  and  C_11
REMARK    6  A    between atoms: C_17  and  C_18
REMARK    7  A    between atoms: C_21  and  N_22
REMARK                            x       y       z     vdW  Elec       q    Type
REMARK                         _______ _______ _______ _____ _____    ______ ____
ROOT
ATOM      1  C   UNL     1       3.390   6.034  18.427  0.00  0.00    +0.000 A 
ATOM      2  C   UNL     1       2.958   4.783  18.924  0.00  0.00    +0.000 A 
ATOM      3  C   UNL     1       1.991   4.830  19.949  0.00  0.00    +0.000 A 
ATOM      4  C   UNL     1       1.472   6.034  20.438  0.00  0.00    +0.000 A 
ATOM      5  C   UNL     1       1.874   7.269  19.913  0.00  0.00    +0.000 A 
ATOM      6  C   UNL     1       2.797   7.234  18.862  0.00  0.00    +0.000 A 
ATOM      7  F   UNL     1       3.094   8.381  18.227  0.00  0.00    +0.000 F 
ENDROOT
BRANCH   5   8
ATOM      8  C   UNL     1       1.373   8.529  20.481  0.00  0.00    +0.000 A 
ATOM      9  C   UNL     1       1.381   8.817  21.847  0.00  0.00    +0.000 A 
ATOM     10  N   UNL     1       0.842   9.943  22.389  0.00  0.00    +0.000 NA
ATOM     11  C   UNL     1       0.279  10.794  21.521  0.00  0.00    +0.000 A 
ATOM     12  C   UNL     1       0.261  10.517  20.156  0.00  0.00    +0.000 A 
ATOM     13  N   UNL     1       0.802   9.400  19.608  0.00  0.00    +0.000 NA
BRANCH  11  14
ATOM     14  N   UNL     1      -0.330  11.925  22.056  0.00  0.00    +0.000 N 
ATOM     15  H   UNL     1       0.012  12.723  21.525  0.00  0.00    +0.000 HD
ATOM     16  H   UNL     1      -1.341  11.860  22.034  0.00  0.00    +0.000 HD
ENDBRANCH  11  14
ENDBRANCH   5   8
BRANCH   2  17
ATOM     17  C   UNL     1       3.503   3.387  18.379  0.00  0.00    +0.000 C 
ATOM     18  C   UNL     1       4.154   2.397  19.398  0.00  0.00    +0.000 C 
ATOM     19  C   UNL     1       3.537   1.245  18.591  0.00  0.00    +0.000 C 
ATOM     20  C   UNL     1       2.480   2.247  18.095  0.00  0.00    +0.000 C 
ENDBRANCH   2  17
BRANCH   1  21
ATOM     21  O   UNL     1       4.361   6.004  17.445  0.00  0.00    +0.000 OA
BRANCH  21  26
ATOM     22  C   UNL     1       7.407   7.713  17.909  0.00  0.00    +0.000 A 
ATOM     23  C   UNL     1       8.200   6.799  18.571  0.00  0.00    +0.000 A 
ATOM     24  C   UNL     1       7.642   5.561  18.778  0.00  0.00    +0.000 A 
ATOM     25  N   UNL     1       6.399   5.234  18.385  0.00  0.00    +0.000 NA
ATOM     26  C   UNL     1       5.684   6.223  17.813  0.00  0.00    +0.000 A 
ATOM     27  N   UNL     1       6.148   7.446  17.524  0.00  0.00    +0.000 NA
BRANCH  22  29
ATOM     28  C   UNL     1       8.989   9.653  19.085  0.00  0.00    +0.000 C 
ATOM     29  S   UNL     1       8.085   9.326  17.548  0.00  0.00    +0.000 S 
ENDBRANCH  22  29
ENDBRANCH  21  26
ENDBRANCH   1  21
TORSDOF 6
ENDMDL
MODEL 4
REMARK VINA RESULT:      -7.5      3.361      6.147
REMARK  Name = 
REMARK  7 active torsions:
REMARK  status: ('A' for Active; 'I' for Inactive)
REMARK    1  A    between atoms: C_1  and  S_2
REMARK    2  A    between atoms: S_2  and  C_3
REMARK    3  A    between atoms: C_7  and  O_8
REMARK    4  A    between atoms: O_8  and  C_9
REMARK    5  A    between atoms: C_10  and  C_11
REMARK    6  A    between atoms: C_17  and  C_18
REMARK    7  A    between atoms: C_21  and  N_22
REMARK                            x       y       z     vdW  Elec       q    Type
REMARK                         _______ _______ _______ _____ _____    ______ ____
ROOT
ATOM      1  C   UNL     1       0.349  10.045  19.220  0.00  0.00    +0.000 A 
ATOM      2  C   UNL     1       0.089   9.941  20.605  0.00  0.00    +0.000 A 
ATOM      3  C   UNL     1       0.712   8.864  21.268  0.00  0.00    +0.000 A 
ATOM      4  C   UNL     1       1.552   7.959  20.608  0.00  0.00    +0.000 A 
ATOM      5  C   UNL     1       1.837   8.092  19.243  0.00  0.00    +0.000 A 
ATOM      6  C   UNL     1       1.265   9.186  18.585  0.00  0.00    +0.000 A 
ATOM      7  F   UNL     1       1.632   9.440  17.317  0.00  0.00    +0.000 F 
ENDROOT
BRANCH   5   8
ATOM      8  C   UNL     1       2.666   7.098  18.546  0.00  0.00    +0.000 A 
ATOM      9  C   UNL     1       2.541   5.720  18.734  0.00  0.00    +0.000 A 
ATOM     10  N   UNL     1       3.358   4.797  18.159  0.00  0.00    +0.000 NA
ATOM     11  C   UNL     1       4.329   5.288  17.376  0.00  0.00    +0.000 A 
ATOM     12  C   UNL     1       4.468   6.660  17.183  0.00  0.00    +0.000 A 
ATOM     13  N   UNL     1       3.652   7.586  17.748  0.00  0.00    +0.000 NA
BRANCH  11  14
ATOM     14  N   UNL     1       5.214   4.368  16.823  0.00  0.00    +0.000 N 
ATOM     15  H   UNL     1       5.828   4.061  17.575  0.00  0.00    +0.000 HD
ATOM     16  H   UNL     1       4.732   3.591  16.387  0.00  0.00    +0.000 HD
ENDBRANCH  11  14
ENDBRANCH   5   8
BRANCH   2  17
ATOM     17  C   UNL     1      -0.841  10.962  21.403  0.00  0.00    +0.000 C 
ATOM     18  C   UNL     1      -0.983  10.782  22.949  0.00  0.00    +0.000 C 
ATOM     19  C   UNL     1      -1.042  12.313  23.067  0.00  0.00    +0.000 C 
ATOM     20  C   UNL     1      -0.281  12.378  21.732  0.00  0.00    +0.000 C 
ENDBRANCH   2  17
BRANCH   1  21
ATOM     21  O   UNL     1      -0.282  11.077  18.552  0.00  0.00    +0.000 OA
BRANCH  21  26
ATOM     22  C   UNL     1      -3.757  11.343  18.030  0.00  0.00    +0.000 A 
ATOM     23  C   UNL     1      -3.986  10.541  16.932  0.00  0.00    +0.000 A 
ATOM     24  C   UNL     1      -2.894   9.868  16.442  0.00  0.00    +0.000 A 
ATOM     25  N   UNL     1      -1.662   9.974  16.969  0.00  0.00    +0.000 NA
ATOM     26  C   UNL     1      -1.533  10.840  17.993  0.00  0.00    +0.000 A 
ATOM     27  N   UNL     1      -2.539  11.507  18.574  0.00  0.00    +0.000 NA
BRANCH  22  29
ATOM     28  C   UNL     1      -6.172  12.473  17.297  0.00  0.00    +0.000 C 
ATOM     29  S   UNL     1      -5.140  12.203  18.764  0.00  0.00    +0.000 S 
ENDBRANCH  22  29
ENDBRANCH  21  26
ENDBRANCH   1  21
TORSDOF 6
ENDMDL
MODEL 5
REMARK VINA RESULT:      -7.5      3.264      6.159
REMARK  Name = 
REMARK  7 active torsions:
REMARK  status: ('A' for Active; 'I' for Inactive)
REMARK    1  A    between atoms: C_1  and  S_2
REMARK    2  A    between atoms: S_2  and  C_3
REMARK    3  A    between atoms: C_7  and  O_8
REMARK    4  A    between atoms: O_8  and  C_9
REMARK    5  A    between atoms: C_10  and  C_11
REMARK    6  A    between atoms: C_17  and  C_18
REMARK    7  A    between atoms: C_21  and  N_22
REMARK                            x       y       z     vdW  Elec       q    Type
REMARK                         _______ _______ _______ _____ _____    ______ ____
ROOT
ATOM      1  C   UNL     1       0.325  10.087  19.338  0.00  0.00    +0.000 A 
ATOM      2  C   UNL     1       0.019  10.025  20.717  0.00  0.00    +0.000 A 
ATOM      3  C   UNL     1       0.609   8.961  21.429  0.00  0.00    +0.000 A 
ATOM      4  C   UNL     1       1.460   8.030  20.822  0.00  0.00    +0.000 A 
ATOM      5  C   UNL     1       1.790   8.121  19.464  0.00  0.00    +0.000 A 
ATOM      6  C   UNL     1       1.251   9.201  18.757  0.00  0.00    +0.000 A 
ATOM      7  F   UNL     1       1.662   9.416  17.495  0.00  0.00    +0.000 F 
ENDROOT
BRANCH   5   8
ATOM      8  C   UNL     1       2.631   7.100  18.822  0.00  0.00    +0.000 A 
ATOM      9  C   UNL     1       3.565   7.386  17.824  0.00  0.00    +0.000 A 
ATOM     10  N   UNL     1       4.286   6.439  17.165  0.00  0.00    +0.000 NA
ATOM     11  C   UNL     1       4.049   5.170  17.528  0.00  0.00    +0.000 A 
ATOM     12  C   UNL     1       3.117   4.871  18.519  0.00  0.00    +0.000 A 
ATOM     13  N   UNL     1       2.399   5.811  19.184  0.00  0.00    +0.000 NA
BRANCH  11  14
ATOM     14  N   UNL     1       4.731   4.180  16.828  0.00  0.00    +0.000 N 
ATOM     15  H   UNL     1       5.326   3.701  17.500  0.00  0.00    +0.000 HD
ATOM     16  H   UNL     1       4.100   3.542  16.358  0.00  0.00    +0.000 HD
ENDBRANCH  11  14
ENDBRANCH   5   8
BRANCH   2  17
ATOM     17  C   UNL     1      -0.925  11.078  21.455  0.00  0.00    +0.000 C 
ATOM     18  C   UNL     1      -1.122  10.941  22.999  0.00  0.00    +0.000 C 
ATOM     19  C   UNL     1      -1.166  12.475  23.075  0.00  0.00    +0.000 C 
ATOM     20  C   UNL     1      -0.359  12.496  21.765  0.00  0.00    +0.000 C 
ENDBRANCH   2  17
BRANCH   1  21
ATOM     21  O   UNL     1      -0.274  11.106  18.621  0.00  0.00    +0.000 OA
BRANCH  21  26
ATOM     22  C   UNL     1      -3.737  11.361  18.023  0.00  0.00    +0.000 A 
ATOM     23  C   UNL     1      -3.939  10.565  16.916  0.00  0.00    +0.000 A 
ATOM     24  C   UNL     1      -2.834   9.898  16.448  0.00  0.00    +0.000 A 
ATOM     25  N   UNL     1      -1.614  10.006  17.002  0.00  0.00    +0.000 NA
ATOM     26  C   UNL     1      -1.511  10.867  18.034  0.00  0.00    +0.000 A 
ATOM     27  N   UNL     1      -2.532  11.527  18.595  0.00  0.00    +0.000 NA
BRANCH  22  29
ATOM     28  C   UNL     1      -4.476  12.637  20.363  0.00  0.00    +0.000 C 
ATOM     29  S   UNL     1      -5.139  12.214  18.730  0.00  0.00    +0.000 S 
ENDBRANCH  22  29
ENDBRANCH  21  26
ENDBRANCH   1  21
TORSDOF 6
ENDMDL
MODEL 6
REMARK VINA RESULT:      -7.4      2.882      7.056
REMARK  Name = 
REMARK  7 active torsions:
REMARK  status: ('A' for Active; 'I' for Inactive)
REMARK    1  A    between atoms: C_1  and  S_2
REMARK    2  A    between atoms: S_2  and  C_3
REMARK    3  A    between atoms: C_7  and  O_8
REMARK    4  A    between atoms: O_8  and  C_9
REMARK    5  A    between atoms: C_10  and  C_11
REMARK    6  A    between atoms: C_17  and  C_18
REMARK    7  A    between atoms: C_21  and  N_22
REMARK                            x       y       z     vdW  Elec       q    Type
REMARK                         _______ _______ _______ _____ _____    ______ ____
ROOT
ATOM      1  C   UNL     1       2.617   5.396  18.649  0.00  0.00    +0.000 A 
ATOM      2  C   UNL     1       2.264   4.389  19.576  0.00  0.00    +0.000 A 
ATOM      3  C   UNL     1       1.637   4.834  20.758  0.00  0.00    +0.000 A 
ATOM      4  C   UNL     1       1.362   6.185  21.000  0.00  0.00    +0.000 A 
ATOM      5  C   UNL     1       1.678   7.173  20.059  0.00  0.00    +0.000 A 
ATOM      6  C   UNL     1       2.255   6.739  18.861  0.00  0.00    +0.000 A 
ATOM      7  F   UNL     1       2.432   7.630  17.870  0.00  0.00    +0.000 F 
ENDROOT
BRANCH   5   8
ATOM      8  C   UNL     1       1.445   8.595  20.352  0.00  0.00    +0.000 A 
ATOM      9  C   UNL     1       1.366   9.113  21.647  0.00  0.00    +0.000 A 
ATOM     10  N   UNL     1       1.067  10.410  21.929  0.00  0.00    +0.000 NA
ATOM     11  C   UNL     1       0.840  11.198  20.869  0.00  0.00    +0.000 A 
ATOM     12  C   UNL     1       0.913  10.694  19.573  0.00  0.00    +0.000 A 
ATOM     13  N   UNL     1       1.217   9.403  19.284  0.00  0.00    +0.000 NA
BRANCH  11  14
ATOM     14  N   UNL     1       0.476  12.514  21.133  0.00  0.00    +0.000 N 
ATOM     15  H   UNL     1      -0.541  12.553  21.093  0.00  0.00    +0.000 HD
ATOM     16  H   UNL     1       0.832  12.837  22.025  0.00  0.00    +0.000 HD
ENDBRANCH  11  14
ENDBRANCH   5   8
BRANCH   2  17
ATOM     17  C   UNL     1       2.535   2.836  19.331  0.00  0.00    +0.000 C 
ATOM     18  C   UNL     1       2.512   2.302  17.863  0.00  0.00    +0.000 C 
ATOM     19  C   UNL     1       3.640   1.335  18.254  0.00  0.00    +0.000 C 
ATOM     20  C   UNL     1       4.005   2.321  19.377  0.00  0.00    +0.000 C 
ENDBRANCH   2  17
BRANCH   1  21
ATOM     21  O   UNL     1       3.261   4.976  17.501  0.00  0.00    +0.000 OA
BRANCH  21  26
ATOM     22  C   UNL     1       6.417   5.300  15.968  0.00  0.00    +0.000 A 
ATOM     23  C   UNL     1       7.223   5.788  16.975  0.00  0.00    +0.000 A 
ATOM     24  C   UNL     1       6.627   5.927  18.205  0.00  0.00    +0.000 A 
ATOM     25  N   UNL     1       5.338   5.629  18.441  0.00  0.00    +0.000 NA
ATOM     26  C   UNL     1       4.622   5.230  17.372  0.00  0.00    +0.000 A 
ATOM     27  N   UNL     1       5.115   5.017  16.145  0.00  0.00    +0.000 NA
BRANCH  22  29
ATOM     28  C   UNL     1       5.981   3.805  13.682  0.00  0.00    +0.000 C 
ATOM     29  S   UNL     1       7.134   5.033  14.354  0.00  0.00    +0.000 S 
ENDBRANCH  22  29
ENDBRANCH  21  26
ENDBRANCH   1  21
TORSDOF 6
ENDMDL
MODEL 7
REMARK VINA RESULT:      -7.3      3.628      7.048
REMARK  Name = 
REMARK  7 active torsions:
REMARK  status: ('A' for Active; 'I' for Inactive)
REMARK    1  A    between atoms: C_1  and  S_2
REMARK    2  A    between atoms: S_2  and  C_3
REMARK    3  A    between atoms: C_7  and  O_8
REMARK    4  A    between atoms: O_8  and  C_9
REMARK    5  A    between atoms: C_10  and  C_11
REMARK    6  A    between atoms: C_17  and  C_18
REMARK    7  A    between atoms: C_21  and  N_22
REMARK                            x       y       z     vdW  Elec       q    Type
REMARK                         _______ _______ _______ _____ _____    ______ ____
ROOT
ATOM      1  C   UNL     1       4.953   5.622  16.616  0.00  0.00    +0.000 A 
ATOM      2  C   UNL     1       5.082   4.686  15.564  0.00  0.00    +0.000 A 
ATOM      3  C   UNL     1       4.480   3.430  15.782  0.00  0.00    +0.000 A 
ATOM      4  C   UNL     1       3.781   3.125  16.956  0.00  0.00    +0.000 A 
ATOM      5  C   UNL     1       3.623   4.070  17.977  0.00  0.00    +0.000 A 
ATOM      6  C   UNL     1       4.173   5.337  17.752  0.00  0.00    +0.000 A 
ATOM      7  F   UNL     1       3.915   6.318  18.633  0.00  0.00    +0.000 F 
ENDROOT
BRANCH   5   8
ATOM      8  C   UNL     1       2.946   3.717  19.233  0.00  0.00    +0.000 A 
ATOM      9  C   UNL     1       3.540   2.958  20.243  0.00  0.00    +0.000 A 
ATOM     10  N   UNL     1       2.894   2.555  21.370  0.00  0.00    +0.000 NA
ATOM     11  C   UNL     1       1.611   2.930  21.471  0.00  0.00    +0.000 A 
ATOM     12  C   UNL     1       1.005   3.684  20.469  0.00  0.00    +0.000 A 
ATOM     13  N   UNL     1       1.645   4.095  19.345  0.00  0.00    +0.000 NA
BRANCH  11  14
ATOM     14  N   UNL     1       0.912   2.481  22.586  0.00  0.00    +0.000 N 
ATOM     15  H   UNL     1       1.032   3.184  23.313  0.00  0.00    +0.000 HD
ATOM     16  H   UNL     1      -0.066   2.313  22.382  0.00  0.00    +0.000 HD
ENDBRANCH  11  14
ENDBRANCH   5   8
BRANCH   2  17
ATOM     17  C   UNL     1       5.848   4.999  14.200  0.00  0.00    +0.000 C 
ATOM     18  C   UNL     1       7.405   4.867  14.176  0.00  0.00    +0.000 C 
ATOM     19  C   UNL     1       7.285   4.348  12.735  0.00  0.00    +0.000 C 
ATOM     20  C   UNL     1       5.850   3.914  13.082  0.00  0.00    +0.000 C 
ENDBRANCH   2  17
BRANCH   1  21
ATOM     21  O   UNL     1       5.567   6.845  16.428  0.00  0.00    +0.000 OA
BRANCH  21  26
ATOM     22  C   UNL     1       8.019   8.840  17.985  0.00  0.00    +0.000 A 
ATOM     23  C   UNL     1       8.647   7.972  18.853  0.00  0.00    +0.000 A 
ATOM     24  C   UNL     1       8.218   6.668  18.811  0.00  0.00    +0.000 A 
ATOM     25  N   UNL     1       7.239   6.236  17.997  0.00  0.00    +0.000 NA
ATOM     26  C   UNL     1       6.643   7.181  17.243  0.00  0.00    +0.000 A 
ATOM     27  N   UNL     1       7.015   8.465  17.175  0.00  0.00    +0.000 NA
BRANCH  22  29
ATOM     28  C   UNL     1       9.612  10.591  19.415  0.00  0.00    +0.000 C 
ATOM     29  S   UNL     1       8.564  10.541  17.937  0.00  0.00    +0.000 S 
ENDBRANCH  22  29
ENDBRANCH  21  26
ENDBRANCH   1  21
TORSDOF 6
ENDMDL
MODEL 8
REMARK VINA RESULT:      -7.3      3.002      7.486
REMARK  Name = 
REMARK  7 active torsions:
REMARK  status: ('A' for Active; 'I' for Inactive)
REMARK    1  A    between atoms: C_1  and  S_2
REMARK    2  A    between atoms: S_2  and  C_3
REMARK    3  A    between atoms: C_7  and  O_8
REMARK    4  A    between atoms: O_8  and  C_9
REMARK    5  A    between atoms: C_10  and  C_11
REMARK    6  A    between atoms: C_17  and  C_18
REMARK    7  A    between atoms: C_21  and  N_22
REMARK                            x       y       z     vdW  Elec       q    Type
REMARK                         _______ _______ _______ _____ _____    ______ ____
ROOT
ATOM      1  C   UNL     1       2.767   6.438  18.384  0.00  0.00    +0.000 A 
ATOM      2  C   UNL     1       2.696   5.165  18.995  0.00  0.00    +0.000 A 
ATOM      3  C   UNL     1       2.049   5.120  20.246  0.00  0.00    +0.000 A 
ATOM      4  C   UNL     1       1.492   6.255  20.847  0.00  0.00    +0.000 A 
ATOM      5  C   UNL     1       1.530   7.505  20.217  0.00  0.00    +0.000 A 
ATOM      6  C   UNL     1       2.126   7.555  18.952  0.00  0.00    +0.000 A 
ATOM      7  F   UNL     1       2.048   8.696  18.247  0.00  0.00    +0.000 F 
ENDROOT
BRANCH   5   8
ATOM      8  C   UNL     1       1.002   8.703  20.887  0.00  0.00    +0.000 A 
ATOM      9  C   UNL     1       1.223   8.993  22.235  0.00  0.00    +0.000 A 
ATOM     10  N   UNL     1       0.669  10.053  22.884  0.00  0.00    +0.000 NA
ATOM     11  C   UNL     1      -0.131  10.834  22.145  0.00  0.00    +0.000 A 
ATOM     12  C   UNL     1      -0.362  10.554  20.801  0.00  0.00    +0.000 A 
ATOM     13  N   UNL     1       0.192   9.502  20.146  0.00  0.00    +0.000 NA
BRANCH  11  14
ATOM     14  N   UNL     1      -0.755  11.891  22.800  0.00  0.00    +0.000 N 
ATOM     15  H   UNL     1      -1.360  11.481  23.510  0.00  0.00    +0.000 HD
ATOM     16  H   UNL     1      -0.088  12.539  23.201  0.00  0.00    +0.000 HD
ENDBRANCH  11  14
ENDBRANCH   5   8
BRANCH   2  17
ATOM     17  C   UNL     1       3.294   3.841  18.336  0.00  0.00    +0.000 C 
ATOM     18  C   UNL     1       3.947   2.776  19.275  0.00  0.00    +0.000 C 
ATOM     19  C   UNL     1       3.383   1.690  18.346  0.00  0.00    +0.000 C 
ATOM     20  C   UNL     1       2.311   2.708  17.918  0.00  0.00    +0.000 C 
ENDBRANCH   2  17
BRANCH   1  21
ATOM     21  O   UNL     1       3.427   6.503  17.172  0.00  0.00    +0.000 OA
BRANCH  21  26
ATOM     22  C   UNL     1       6.537   5.438  15.904  0.00  0.00    +0.000 A 
ATOM     23  C   UNL     1       7.422   5.718  16.925  0.00  0.00    +0.000 A 
ATOM     24  C   UNL     1       6.868   6.223  18.075  0.00  0.00    +0.000 A 
ATOM     25  N   UNL     1       5.553   6.456  18.224  0.00  0.00    +0.000 NA
ATOM     26  C   UNL     1       4.787   6.217  17.141  0.00  0.00    +0.000 A 
ATOM     27  N   UNL     1       5.219   5.682  15.991  0.00  0.00    +0.000 NA
BRANCH  22  29
ATOM     28  C   UNL     1       5.666   3.955  13.738  0.00  0.00    +0.000 C 
ATOM     29  S   UNL     1       7.173   4.720  14.396  0.00  0.00    +0.000 S 
ENDBRANCH  22  29
ENDBRANCH  21  26
ENDBRANCH   1  21
TORSDOF 6
ENDMDL
MODEL 9
REMARK VINA RESULT:      -7.3      2.744      7.079
REMARK  Name = 
REMARK  7 active torsions:
REMARK  status: ('A' for Active; 'I' for Inactive)
REMARK    1  A    between atoms: C_1  and  S_2
REMARK    2  A    between atoms: S_2  and  C_3
REMARK    3  A    between atoms: C_7  and  O_8
REMARK    4  A    between atoms: O_8  and  C_9
REMARK    5  A    between atoms: C_10  and  C_11
REMARK    6  A    between atoms: C_17  and  C_18
REMARK    7  A    between atoms: C_21  and  N_22
REMARK                            x       y       z     vdW  Elec       q    Type
REMARK                         _______ _______ _______ _____ _____    ______ ____
ROOT
ATOM      1  C   UNL     1       2.925   6.102  18.235  0.00  0.00    +0.000 A 
ATOM      2  C   UNL     1       2.892   4.894  18.969  0.00  0.00    +0.000 A 
ATOM      3  C   UNL     1       2.309   4.970  20.251  0.00  0.00    +0.000 A 
ATOM      4  C   UNL     1       1.778   6.158  20.766  0.00  0.00    +0.000 A 
ATOM      5  C   UNL     1       1.778   7.341  20.017  0.00  0.00    +0.000 A 
ATOM      6  C   UNL     1       2.308   7.268  18.725  0.00  0.00    +0.000 A 
ATOM      7  F   UNL     1       2.189   8.336  17.917  0.00  0.00    +0.000 F 
ENDROOT
BRANCH   5   8
ATOM      8  C   UNL     1       1.278   8.598  20.594  0.00  0.00    +0.000 A 
ATOM      9  C   UNL     1       1.319   8.891  21.958  0.00  0.00    +0.000 A 
ATOM     10  N   UNL     1       0.783  10.013  22.512  0.00  0.00    +0.000 NA
ATOM     11  C   UNL     1       0.188  10.855  21.656  0.00  0.00    +0.000 A 
ATOM     12  C   UNL     1       0.136  10.573  20.293  0.00  0.00    +0.000 A 
ATOM     13  N   UNL     1       0.674   9.460  19.734  0.00  0.00    +0.000 NA
BRANCH  11  14
ATOM     14  N   UNL     1      -0.419  11.981  22.204  0.00  0.00    +0.000 N 
ATOM     15  H   UNL     1      -0.670  11.743  23.162  0.00  0.00    +0.000 HD
ATOM     16  H   UNL     1       0.181  12.796  22.161  0.00  0.00    +0.000 HD
ENDBRANCH  11  14
ENDBRANCH   5   8
BRANCH   2  17
ATOM     17  C   UNL     1       3.463   3.513  18.412  0.00  0.00    +0.000 C 
ATOM     18  C   UNL     1       3.960   2.447  19.442  0.00  0.00    +0.000 C 
ATOM     19  C   UNL     1       3.415   1.362  18.500  0.00  0.00    +0.000 C 
ATOM     20  C   UNL     1       2.452   2.425  17.942  0.00  0.00    +0.000 C 
ENDBRANCH   2  17
BRANCH   1  21
ATOM     21  O   UNL     1       3.523   6.049  16.991  0.00  0.00    +0.000 OA
BRANCH  21  26
ATOM     22  C   UNL     1       6.986   6.064  17.645  0.00  0.00    +0.000 A 
ATOM     23  C   UNL     1       7.461   4.990  16.923  0.00  0.00    +0.000 A 
ATOM     24  C   UNL     1       6.534   4.322  16.162  0.00  0.00    +0.000 A 
ATOM     25  N   UNL     1       5.234   4.660  16.113  0.00  0.00    +0.000 NA
ATOM     26  C   UNL     1       4.861   5.678  16.913  0.00  0.00    +0.000 A 
ATOM     27  N   UNL     1       5.691   6.423  17.655  0.00  0.00    +0.000 NA
BRANCH  22  29
ATOM     28  C   UNL     1       7.986   8.638  17.804  0.00  0.00    +0.000 C 
ATOM     29  S   UNL     1       8.143   7.023  18.613  0.00  0.00    +0.000 S 
ENDBRANCH  22  29
ENDBRANCH  21  26
ENDBRANCH   1  21
TORSDOF 6
ENDMDL
