MODEL 1
REMARK VINA RESULT:      -7.9      0.000      0.000
REMARK  Name = 
REMARK  7 active torsions:
REMARK  status: ('A' for Active; 'I' for Inactive)
REMARK    1  A    between atoms: C_1  and  O_2
REMARK    2  A    between atoms: O_2  and  C_3
REMARK    3  A    between atoms: C_7  and  C_8
REMARK    4  A    between atoms: N_12  and  N_13
REMARK    5  A    between atoms: C_16  and  C_17
REMARK    6  A    between atoms: C_18  and  C_19
REMARK    7  A    between atoms: C_24  and  O_25
REMARK                            x       y       z     vdW  Elec       q    Type
REMARK                         _______ _______ _______ _____ _____    ______ ____
ROOT
ATOM      1  C   UNL     1       5.219   4.107  16.924  0.00  0.00    +0.000 C 
ATOM      2  C   UNL     1       5.914   5.247  17.048  0.00  0.00    +0.000 C 
ATOM      3  S   UNL     1       5.605   6.567  18.116  0.00  0.00    +0.000 S 
ATOM      4  C   UNL     1       7.001   7.445  17.549  0.00  0.00    +0.000 C 
ATOM      5  N   UNL     1       7.374   8.565  18.068  0.00  0.00    +0.000 NA
ATOM      6  N   UNL     1       7.608   6.775  16.538  0.00  0.00    +0.000 N 
ATOM      7  C   UNL     1       7.107   5.550  16.208  0.00  0.00    +0.000 C 
ATOM      8  O   UNL     1       7.557   4.816  15.343  0.00  0.00    +0.000 OA
ATOM      9  H   UNL     1       8.449   7.128  16.111  0.00  0.00    +0.000 HD
ENDROOT
BRANCH   5  10
ATOM     10  N   UNL     1       8.480   9.164  17.512  0.00  0.00    +0.000 N 
ATOM     11  C   UNL     1       9.101  10.212  18.132  0.00  0.00    +0.000 A 
ATOM     12  N   UNL     1       9.676  11.186  17.462  0.00  0.00    +0.000 NA
ATOM     13  C   UNL     1      10.218  12.129  18.325  0.00  0.00    +0.000 A 
ATOM     14  C   UNL     1      10.862  13.337  17.744  0.00  0.00    +0.000 C 
ATOM     15  C   UNL     1      10.094  11.823  19.669  0.00  0.00    +0.000 A 
ATOM     16  C   UNL     1      10.580  12.556  20.869  0.00  0.00    +0.000 C 
ATOM     17  S   UNL     1       9.224  10.358  19.847  0.00  0.00    +0.000 S 
ATOM     18  H   UNL     1       8.394   9.363  16.515  0.00  0.00    +0.000 HD
ENDBRANCH   5  10
BRANCH   1  23
ATOM     19  C   UNL     1       2.809   2.859  19.582  0.00  0.00    +0.000 A 
ATOM     20  C   UNL     1       1.592   3.144  18.950  0.00  0.00    +0.000 A 
ATOM     21  C   UNL     1       1.556   3.764  17.698  0.00  0.00    +0.000 A 
ATOM     22  C   UNL     1       2.749   4.087  17.051  0.00  0.00    +0.000 A 
ATOM     23  C   UNL     1       3.979   3.809  17.659  0.00  0.00    +0.000 A 
ATOM     24  C   UNL     1       4.006   3.212  18.940  0.00  0.00    +0.000 A 
BRANCH  19  26
ATOM     25  C   UNL     1       1.592   2.683  21.639  0.00  0.00    +0.000 C 
ATOM     26  O   UNL     1       2.644   2.241  20.793  0.00  0.00    +0.000 OA
ENDBRANCH  19  26
BRANCH  24  27
ATOM     27  O   UNL     1       5.208   2.981  19.558  0.00  0.00    +0.000 OA
ATOM     28  H   UNL     1       5.821   3.706  19.366  0.00  0.00    +0.000 HD
ENDBRANCH  24  27
ENDBRANCH   1  23
TORSDOF 4
ENDMDL
MODEL 2
REMARK VINA RESULT:      -7.5      5.672      7.923
REMARK  Name = 
REMARK  7 active torsions:
REMARK  status: ('A' for Active; 'I' for Inactive)
REMARK    1  A    between atoms: C_1  and  O_2
REMARK    2  A    between atoms: O_2  and  C_3
REMARK    3  A    between atoms: C_7  and  C_8
REMARK    4  A    between atoms: N_12  and  N_13
REMARK    5  A    between atoms: C_16  and  C_17
REMARK    6  A    between atoms: C_18  and  C_19
REMARK    7  A    between atoms: C_24  and  O_25
REMARK                            x       y       z     vdW  Elec       q    Type
REMARK                         _______ _______ _______ _____ _____    ______ ____
ROOT
ATOM      1  C   UNL     1       4.121   4.214  19.312  0.00  0.00    +0.000 C 
ATOM      2  C   UNL     1       3.331   5.222  19.709  0.00  0.00    +0.000 C 
ATOM      3  S   UNL     1       3.258   6.825  19.076  0.00  0.00    +0.000 S 
ATOM      4  C   UNL     1       1.987   7.280  20.179  0.00  0.00    +0.000 C 
ATOM      5  N   UNL     1       1.410   8.432  20.137  0.00  0.00    +0.000 NA
ATOM      6  N   UNL     1       1.707   6.262  21.032  0.00  0.00    +0.000 N 
ATOM      7  C   UNL     1       2.369   5.084  20.839  0.00  0.00    +0.000 C 
ATOM      8  O   UNL     1       2.208   4.072  21.501  0.00  0.00    +0.000 OA
ATOM      9  H   UNL     1       0.977   6.345  21.719  0.00  0.00    +0.000 HD
ENDROOT
BRANCH   5  10
ATOM     10  N   UNL     1       0.437   8.671  21.079  0.00  0.00    +0.000 N 
ATOM     11  C   UNL     1      -0.219   9.869  21.129  0.00  0.00    +0.000 A 
ATOM     12  N   UNL     1      -0.631  10.399  22.259  0.00  0.00    +0.000 NA
ATOM     13  C   UNL     1      -1.252  11.621  22.035  0.00  0.00    +0.000 A 
ATOM     14  C   UNL     1      -1.735  12.398  23.208  0.00  0.00    +0.000 C 
ATOM     15  C   UNL     1      -1.356  11.983  20.704  0.00  0.00    +0.000 A 
ATOM     16  C   UNL     1      -1.985  13.178  20.081  0.00  0.00    +0.000 C 
ATOM     17  S   UNL     1      -0.601  10.796  19.726  0.00  0.00    +0.000 S 
ATOM     18  H   UNL     1       0.688   8.382  22.025  0.00  0.00    +0.000 HD
ENDBRANCH   5  10
BRANCH   1  23
ATOM     19  C   UNL     1       5.918   4.025  15.971  0.00  0.00    +0.000 A 
ATOM     20  C   UNL     1       7.192   4.451  16.364  0.00  0.00    +0.000 A 
ATOM     21  C   UNL     1       7.453   4.829  17.684  0.00  0.00    +0.000 A 
ATOM     22  C   UNL     1       6.436   4.760  18.637  0.00  0.00    +0.000 A 
ATOM     23  C   UNL     1       5.154   4.332  18.270  0.00  0.00    +0.000 A 
ATOM     24  C   UNL     1       4.891   3.985  16.926  0.00  0.00    +0.000 A 
BRANCH  19  26
ATOM     25  C   UNL     1       6.689   4.390  13.731  0.00  0.00    +0.000 C 
ATOM     26  O   UNL     1       5.859   3.686  14.645  0.00  0.00    +0.000 OA
ENDBRANCH  19  26
BRANCH  24  27
ATOM     27  O   UNL     1       3.626   3.610  16.555  0.00  0.00    +0.000 OA
ATOM     28  H   UNL     1       2.991   3.877  17.237  0.00  0.00    +0.000 HD
ENDBRANCH  24  27
ENDBRANCH   1  23
TORSDOF 4
ENDMDL
MODEL 3
REMARK VINA RESULT:      -7.2      6.687      7.929
REMARK  Name = 
REMARK  7 active torsions:
REMARK  status: ('A' for Active; 'I' for Inactive)
REMARK    1  A    between atoms: C_1  and  O_2
REMARK    2  A    between atoms: O_2  and  C_3
REMARK    3  A    between atoms: C_7  and  C_8
REMARK    4  A    between atoms: N_12  and  N_13
REMARK    5  A    between atoms: C_16  and  C_17
REMARK    6  A    between atoms: C_18  and  C_19
REMARK    7  A    between atoms: C_24  and  O_25
REMARK                            x       y       z     vdW  Elec       q    Type
REMARK                         _______ _______ _______ _____ _____    ______ ____
ROOT
ATOM      1  C   UNL     1       2.654   6.534  18.024  0.00  0.00    +0.000 C 
ATOM      2  C   UNL     1       2.155   7.544  18.752  0.00  0.00    +0.000 C 
ATOM      3  S   UNL     1       1.606   7.502  20.387  0.00  0.00    +0.000 S 
ATOM      4  C   UNL     1       1.227   9.204  20.379  0.00  0.00    +0.000 C 
ATOM      5  N   UNL     1       0.818   9.829  21.429  0.00  0.00    +0.000 NA
ATOM      6  N   UNL     1       1.443   9.735  19.149  0.00  0.00    +0.000 N 
ATOM      7  C   UNL     1       1.977   8.916  18.198  0.00  0.00    +0.000 C 
ATOM      8  O   UNL     1       2.254   9.251  17.058  0.00  0.00    +0.000 OA
ATOM      9  H   UNL     1       1.301  10.716  18.974  0.00  0.00    +0.000 HD
ENDROOT
BRANCH   5  10
ATOM     10  N   UNL     1       0.533  11.166  21.280  0.00  0.00    +0.000 N 
ATOM     11  C   UNL     1      -0.639  11.694  21.745  0.00  0.00    +0.000 A 
ATOM     12  N   UNL     1      -1.252  12.687  21.139  0.00  0.00    +0.000 NA
ATOM     13  C   UNL     1      -2.425  13.024  21.803  0.00  0.00    +0.000 A 
ATOM     14  C   UNL     1      -3.284  14.093  21.229  0.00  0.00    +0.000 C 
ATOM     15  C   UNL     1      -2.662  12.304  22.962  0.00  0.00    +0.000 A 
ATOM     16  C   UNL     1      -3.771  12.410  23.946  0.00  0.00    +0.000 C 
ATOM     17  S   UNL     1      -1.422  11.142  23.179  0.00  0.00    +0.000 S 
ATOM     18  H   UNL     1       0.725  11.536  20.349  0.00  0.00    +0.000 HD
ENDBRANCH   5  10
BRANCH   1  23
ATOM     19  C   UNL     1       4.036   3.296  19.449  0.00  0.00    +0.000 A 
ATOM     20  C   UNL     1       2.931   2.459  19.249  0.00  0.00    +0.000 A 
ATOM     21  C   UNL     1       1.745   2.949  18.695  0.00  0.00    +0.000 A 
ATOM     22  C   UNL     1       1.661   4.288  18.311  0.00  0.00    +0.000 A 
ATOM     23  C   UNL     1       2.754   5.144  18.495  0.00  0.00    +0.000 A 
ATOM     24  C   UNL     1       3.938   4.648  19.087  0.00  0.00    +0.000 A 
BRANCH  19  26
ATOM     25  C   UNL     1       4.859   1.492  20.794  0.00  0.00    +0.000 C 
ATOM     26  O   UNL     1       5.107   2.636  19.990  0.00  0.00    +0.000 OA
ENDBRANCH  19  26
BRANCH  24  27
ATOM     27  O   UNL     1       4.992   5.495  19.312  0.00  0.00    +0.000 OA
ATOM     28  H   UNL     1       4.754   6.395  19.043  0.00  0.00    +0.000 HD
ENDBRANCH  24  27
ENDBRANCH   1  23
TORSDOF 4
ENDMDL
MODEL 4
REMARK VINA RESULT:      -7.1      5.507      8.117
REMARK  Name = 
REMARK  7 active torsions:
REMARK  status: ('A' for Active; 'I' for Inactive)
REMARK    1  A    between atoms: C_1  and  O_2
REMARK    2  A    between atoms: O_2  and  C_3
REMARK    3  A    between atoms: C_7  and  C_8
REMARK    4  A    between atoms: N_12  and  N_13
REMARK    5  A    between atoms: C_16  and  C_17
REMARK    6  A    between atoms: C_18  and  C_19
REMARK    7  A    between atoms: C_24  and  O_25
REMARK                            x       y       z     vdW  Elec       q    Type
REMARK                         _______ _______ _______ _____ _____    ______ ____
ROOT
ATOM      1  C   UNL     1       4.112   4.723  19.097  0.00  0.00    +0.000 C 
ATOM      2  C   UNL     1       3.344   5.805  19.288  0.00  0.00    +0.000 C 
ATOM      3  S   UNL     1       3.323   7.266  18.371  0.00  0.00    +0.000 S 
ATOM      4  C   UNL     1       2.050   7.946  19.348  0.00  0.00    +0.000 C 
ATOM      5  N   UNL     1       1.505   9.084  19.085  0.00  0.00    +0.000 NA
ATOM      6  N   UNL     1       1.731   7.109  20.368  0.00  0.00    +0.000 N 
ATOM      7  C   UNL     1       2.363   5.900  20.406  0.00  0.00    +0.000 C 
ATOM      8  O   UNL     1       2.166   5.031  21.240  0.00  0.00    +0.000 OA
ATOM      9  H   UNL     1       0.994   7.334  21.015  0.00  0.00    +0.000 HD
ENDROOT
BRANCH   5  10
ATOM     10  N   UNL     1       0.525   9.515  19.949  0.00  0.00    +0.000 N 
ATOM     11  C   UNL     1      -0.542  10.241  19.501  0.00  0.00    +0.000 A 
ATOM     12  N   UNL     1      -1.116  11.173  20.229  0.00  0.00    +0.000 NA
ATOM     13  C   UNL     1      -2.164  11.767  19.538  0.00  0.00    +0.000 A 
ATOM     14  C   UNL     1      -2.897  12.888  20.186  0.00  0.00    +0.000 C 
ATOM     15  C   UNL     1      -2.414  11.227  18.289  0.00  0.00    +0.000 A 
ATOM     16  C   UNL     1      -3.464  11.564  17.291  0.00  0.00    +0.000 C 
ATOM     17  S   UNL     1      -1.269   9.997  17.956  0.00  0.00    +0.000 S 
ATOM     18  H   UNL     1       0.879   9.931  20.812  0.00  0.00    +0.000 HD
ENDBRANCH   5  10
BRANCH   1  23
ATOM     19  C   UNL     1       5.919   3.971  15.841  0.00  0.00    +0.000 A 
ATOM     20  C   UNL     1       7.222   4.331  16.206  0.00  0.00    +0.000 A 
ATOM     21  C   UNL     1       7.501   4.843  17.476  0.00  0.00    +0.000 A 
ATOM     22  C   UNL     1       6.473   4.980  18.409  0.00  0.00    +0.000 A 
ATOM     23  C   UNL     1       5.162   4.623  18.071  0.00  0.00    +0.000 A 
ATOM     24  C   UNL     1       4.883   4.137  16.773  0.00  0.00    +0.000 A 
BRANCH  19  26
ATOM     25  C   UNL     1       6.608   4.116  13.551  0.00  0.00    +0.000 C 
ATOM     26  O   UNL     1       5.844   3.479  14.565  0.00  0.00    +0.000 OA
ENDBRANCH  19  26
BRANCH  24  27
ATOM     27  O   UNL     1       3.593   3.831  16.424  0.00  0.00    +0.000 OA
ATOM     28  H   UNL     1       3.459   2.873  16.469  0.00  0.00    +0.000 HD
ENDBRANCH  24  27
ENDBRANCH   1  23
TORSDOF 4
ENDMDL
MODEL 5
REMARK VINA RESULT:      -7.1      5.558      7.100
REMARK  Name = 
REMARK  7 active torsions:
REMARK  status: ('A' for Active; 'I' for Inactive)
REMARK    1  A    between atoms: C_1  and  O_2
REMARK    2  A    between atoms: O_2  and  C_3
REMARK    3  A    between atoms: C_7  and  C_8
REMARK    4  A    between atoms: N_12  and  N_13
REMARK    5  A    between atoms: C_16  and  C_17
REMARK    6  A    between atoms: C_18  and  C_19
REMARK    7  A    between atoms: C_24  and  O_25
REMARK                            x       y       z     vdW  Elec       q    Type
REMARK                         _______ _______ _______ _____ _____    ______ ____
ROOT
ATOM      1  C   UNL     1       3.954   5.519  19.213  0.00  0.00    +0.000 C 
ATOM      2  C   UNL     1       3.182   6.600  19.029  0.00  0.00    +0.000 C 
ATOM      3  S   UNL     1       3.317   7.803  17.800  0.00  0.00    +0.000 S 
ATOM      4  C   UNL     1       1.924   8.667  18.392  0.00  0.00    +0.000 C 
ATOM      5  N   UNL     1       1.440   9.700  17.791  0.00  0.00    +0.000 NA
ATOM      6  N   UNL     1       1.447   8.088  19.523  0.00  0.00    +0.000 N 
ATOM      7  C   UNL     1       2.049   6.936  19.938  0.00  0.00    +0.000 C 
ATOM      8  O   UNL     1       1.720   6.284  20.915  0.00  0.00    +0.000 OA
ATOM      9  H   UNL     1       0.626   8.444  19.984  0.00  0.00    +0.000 HD
ENDROOT
BRANCH   5  10
ATOM     10  N   UNL     1       0.351  10.302  18.376  0.00  0.00    +0.000 N 
ATOM     11  C   UNL     1       0.506  11.290  19.308  0.00  0.00    +0.000 A 
ATOM     12  N   UNL     1      -0.329  11.449  20.311  0.00  0.00    +0.000 NA
ATOM     13  C   UNL     1       0.062  12.510  21.117  0.00  0.00    +0.000 A 
ATOM     14  C   UNL     1      -0.734  12.806  22.338  0.00  0.00    +0.000 C 
ATOM     15  C   UNL     1       1.181  13.194  20.673  0.00  0.00    +0.000 A 
ATOM     16  C   UNL     1       1.860  14.391  21.237  0.00  0.00    +0.000 C 
ATOM     17  S   UNL     1       1.786  12.445  19.256  0.00  0.00    +0.000 S 
ATOM     18  H   UNL     1      -0.371   9.652  18.689  0.00  0.00    +0.000 HD
ENDBRANCH   5  10
BRANCH   1  23
ATOM     19  C   UNL     1       6.191   4.144  16.469  0.00  0.00    +0.000 A 
ATOM     20  C   UNL     1       7.442   4.511  16.978  0.00  0.00    +0.000 A 
ATOM     21  C   UNL     1       7.554   5.225  18.174  0.00  0.00    +0.000 A 
ATOM     22  C   UNL     1       6.405   5.562  18.890  0.00  0.00    +0.000 A 
ATOM     23  C   UNL     1       5.142   5.202  18.405  0.00  0.00    +0.000 A 
ATOM     24  C   UNL     1       5.036   4.509  17.177  0.00  0.00    +0.000 A 
BRANCH  19  26
ATOM     25  C   UNL     1       6.298   4.164  14.075  0.00  0.00    +0.000 C 
ATOM     26  O   UNL     1       6.283   3.440  15.297  0.00  0.00    +0.000 OA
ENDBRANCH  19  26
BRANCH  24  27
ATOM     27  O   UNL     1       3.799   4.197  16.677  0.00  0.00    +0.000 OA
ATOM     28  H   UNL     1       3.390   4.987  16.292  0.00  0.00    +0.000 HD
ENDBRANCH  24  27
ENDBRANCH   1  23
TORSDOF 4
ENDMDL
MODEL 6
REMARK VINA RESULT:      -7.0      5.815      7.994
REMARK  Name = 
REMARK  7 active torsions:
REMARK  status: ('A' for Active; 'I' for Inactive)
REMARK    1  A    between atoms: C_1  and  O_2
REMARK    2  A    between atoms: O_2  and  C_3
REMARK    3  A    between atoms: C_7  and  C_8
REMARK    4  A    between atoms: N_12  and  N_13
REMARK    5  A    between atoms: C_16  and  C_17
REMARK    6  A    between atoms: C_18  and  C_19
REMARK    7  A    between atoms: C_24  and  O_25
REMARK                            x       y       z     vdW  Elec       q    Type
REMARK                         _______ _______ _______ _____ _____    ______ ____
ROOT
ATOM      1  C   UNL     1       3.477   4.303  19.083  0.00  0.00    +0.000 C 
ATOM      2  C   UNL     1       2.811   5.341  19.609  0.00  0.00    +0.000 C 
ATOM      3  S   UNL     1       2.908   7.003  19.157  0.00  0.00    +0.000 S 
ATOM      4  C   UNL     1       1.712   7.468  20.337  0.00  0.00    +0.000 C 
ATOM      5  N   UNL     1       1.267   8.674  20.436  0.00  0.00    +0.000 NA
ATOM      6  N   UNL     1       1.332   6.398  21.080  0.00  0.00    +0.000 N 
ATOM      7  C   UNL     1       1.855   5.184  20.742  0.00  0.00    +0.000 C 
ATOM      8  O   UNL     1       1.592   4.128  21.295  0.00  0.00    +0.000 OA
ATOM      9  H   UNL     1       0.626   6.483  21.792  0.00  0.00    +0.000 HD
ENDROOT
BRANCH   5  10
ATOM     10  N   UNL     1       0.340   8.911  21.424  0.00  0.00    +0.000 N 
ATOM     11  C   UNL     1      -0.386  10.069  21.448  0.00  0.00    +0.000 A 
ATOM     12  N   UNL     1      -0.761  10.641  22.570  0.00  0.00    +0.000 NA
ATOM     13  C   UNL     1      -1.471  11.808  22.318  0.00  0.00    +0.000 A 
ATOM     14  C   UNL     1      -1.929  12.625  23.473  0.00  0.00    +0.000 C 
ATOM     15  C   UNL     1      -1.679  12.082  20.977  0.00  0.00    +0.000 A 
ATOM     16  C   UNL     1      -2.420  13.196  20.329  0.00  0.00    +0.000 C 
ATOM     17  S   UNL     1      -0.911  10.884  20.022  0.00  0.00    +0.000 S 
ATOM     18  H   UNL     1       0.666   8.697  22.367  0.00  0.00    +0.000 HD
ENDBRANCH   5  10
BRANCH   1  23
ATOM     19  C   UNL     1       6.653   5.257  17.232  0.00  0.00    +0.000 A 
ATOM     20  C   UNL     1       6.355   4.735  15.967  0.00  0.00    +0.000 A 
ATOM     21  C   UNL     1       5.158   4.053  15.731  0.00  0.00    +0.000 A 
ATOM     22  C   UNL     1       4.230   3.906  16.762  0.00  0.00    +0.000 A 
ATOM     23  C   UNL     1       4.502   4.423  18.034  0.00  0.00    +0.000 A 
ATOM     24  C   UNL     1       5.729   5.082  18.273  0.00  0.00    +0.000 A 
BRANCH  19  26
ATOM     25  C   UNL     1       7.872   7.308  17.460  0.00  0.00    +0.000 C 
ATOM     26  O   UNL     1       7.862   5.901  17.266  0.00  0.00    +0.000 OA
ENDBRANCH  19  26
BRANCH  24  27
ATOM     27  O   UNL     1       6.018   5.547  19.529  0.00  0.00    +0.000 OA
ATOM     28  H   UNL     1       6.948   5.817  19.574  0.00  0.00    +0.000 HD
ENDBRANCH  24  27
ENDBRANCH   1  23
TORSDOF 4
ENDMDL
MODEL 7
REMARK VINA RESULT:      -6.7      5.117      7.576
REMARK  Name = 
REMARK  7 active torsions:
REMARK  status: ('A' for Active; 'I' for Inactive)
REMARK    1  A    between atoms: C_1  and  O_2
REMARK    2  A    between atoms: O_2  and  C_3
REMARK    3  A    between atoms: C_7  and  C_8
REMARK    4  A    between atoms: N_12  and  N_13
REMARK    5  A    between atoms: C_16  and  C_17
REMARK    6  A    between atoms: C_18  and  C_19
REMARK    7  A    between atoms: C_24  and  O_25
REMARK                            x       y       z     vdW  Elec       q    Type
REMARK                         _______ _______ _______ _____ _____    ______ ____
ROOT
ATOM      1  C   UNL     1       5.017   4.266  17.420  0.00  0.00    +0.000 C 
ATOM      2  C   UNL     1       4.271   5.238  17.964  0.00  0.00    +0.000 C 
ATOM      3  S   UNL     1       3.732   6.700  17.224  0.00  0.00    +0.000 S 
ATOM      4  C   UNL     1       2.875   7.195  18.660  0.00  0.00    +0.000 C 
ATOM      5  N   UNL     1       2.148   8.259  18.702  0.00  0.00    +0.000 NA
ATOM      6  N   UNL     1       3.074   6.306  19.665  0.00  0.00    +0.000 N 
ATOM      7  C   UNL     1       3.801   5.187  19.377  0.00  0.00    +0.000 C 
ATOM      8  O   UNL     1       4.043   4.286  20.163  0.00  0.00    +0.000 OA
ATOM      9  H   UNL     1       2.629   6.424  20.560  0.00  0.00    +0.000 HD
ENDROOT
BRANCH   5  10
ATOM     10  N   UNL     1       1.543   8.546  19.904  0.00  0.00    +0.000 N 
ATOM     11  C   UNL     1       0.701   9.615  20.033  0.00  0.00    +0.000 A 
ATOM     12  N   UNL     1       0.609  10.308  21.146  0.00  0.00    +0.000 NA
ATOM     13  C   UNL     1      -0.304  11.346  21.009  0.00  0.00    +0.000 A 
ATOM     14  C   UNL     1      -0.499  12.275  22.154  0.00  0.00    +0.000 C 
ATOM     15  C   UNL     1      -0.948  11.393  19.785  0.00  0.00    +0.000 A 
ATOM     16  C   UNL     1      -2.003  12.318  19.292  0.00  0.00    +0.000 C 
ATOM     17  S   UNL     1      -0.346  10.151  18.771  0.00  0.00    +0.000 S 
ATOM     18  H   UNL     1       2.169   8.509  20.709  0.00  0.00    +0.000 HD
ENDBRANCH   5  10
BRANCH   1  23
ATOM     19  C   UNL     1       7.277   5.104  14.485  0.00  0.00    +0.000 A 
ATOM     20  C   UNL     1       6.553   4.500  13.449  0.00  0.00    +0.000 A 
ATOM     21  C   UNL     1       5.370   3.801  13.707  0.00  0.00    +0.000 A 
ATOM     22  C   UNL     1       4.885   3.719  15.012  0.00  0.00    +0.000 A 
ATOM     23  C   UNL     1       5.587   4.319  16.064  0.00  0.00    +0.000 A 
ATOM     24  C   UNL     1       6.800   4.995  15.800  0.00  0.00    +0.000 A 
BRANCH  19  26
ATOM     25  C   UNL     1       8.551   5.948  12.639  0.00  0.00    +0.000 C 
ATOM     26  O   UNL     1       8.398   5.751  14.038  0.00  0.00    +0.000 OA
ENDBRANCH  19  26
BRANCH  24  27
ATOM     27  O   UNL     1       7.513   5.542  16.834  0.00  0.00    +0.000 OA
ATOM     28  H   UNL     1       7.300   5.083  17.660  0.00  0.00    +0.000 HD
ENDBRANCH  24  27
ENDBRANCH   1  23
TORSDOF 4
ENDMDL
MODEL 8
REMARK VINA RESULT:      -6.7      5.492      6.472
REMARK  Name = 
REMARK  7 active torsions:
REMARK  status: ('A' for Active; 'I' for Inactive)
REMARK    1  A    between atoms: C_1  and  O_2
REMARK    2  A    between atoms: O_2  and  C_3
REMARK    3  A    between atoms: C_7  and  C_8
REMARK    4  A    between atoms: N_12  and  N_13
REMARK    5  A    between atoms: C_16  and  C_17
REMARK    6  A    between atoms: C_18  and  C_19
REMARK    7  A    between atoms: C_24  and  O_25
REMARK                            x       y       z     vdW  Elec       q    Type
REMARK                         _______ _______ _______ _____ _____    ______ ____
ROOT
ATOM      1  C   UNL     1       2.393   6.065  19.839  0.00  0.00    +0.000 C 
ATOM      2  C   UNL     1       2.031   7.324  19.558  0.00  0.00    +0.000 C 
ATOM      3  S   UNL     1       2.219   8.174  18.068  0.00  0.00    +0.000 S 
ATOM      4  C   UNL     1       1.450   9.604  18.704  0.00  0.00    +0.000 C 
ATOM      5  N   UNL     1       1.207  10.642  17.980  0.00  0.00    +0.000 NA
ATOM      6  N   UNL     1       1.147   9.440  20.017  0.00  0.00    +0.000 N 
ATOM      7  C   UNL     1       1.400   8.218  20.570  0.00  0.00    +0.000 C 
ATOM      8  O   UNL     1       1.159   7.907  21.725  0.00  0.00    +0.000 OA
ATOM      9  H   UNL     1       0.673  10.161  20.535  0.00  0.00    +0.000 HD
ENDROOT
BRANCH   5  10
ATOM     10  N   UNL     1       0.616  11.712  18.611  0.00  0.00    +0.000 N 
ATOM     11  C   UNL     1       1.365  12.739  19.112  0.00  0.00    +0.000 A 
ATOM     12  N   UNL     1       1.022  13.398  20.196  0.00  0.00    +0.000 NA
ATOM     13  C   UNL     1       1.958  14.379  20.497  0.00  0.00    +0.000 A 
ATOM     14  C   UNL     1       1.764  15.191  21.728  0.00  0.00    +0.000 C 
ATOM     15  C   UNL     1       2.993  14.492  19.585  0.00  0.00    +0.000 A 
ATOM     16  C   UNL     1       4.139  15.439  19.547  0.00  0.00    +0.000 C 
ATOM     17  S   UNL     1       2.817  13.300  18.367  0.00  0.00    +0.000 S 
ATOM     18  H   UNL     1      -0.102  11.455  19.289  0.00  0.00    +0.000 HD
ENDBRANCH   5  10
BRANCH   1  23
ATOM     19  C   UNL     1       5.177   4.351  17.905  0.00  0.00    +0.000 A 
ATOM     20  C   UNL     1       4.411   3.580  17.022  0.00  0.00    +0.000 A 
ATOM     21  C   UNL     1       3.014   3.590  17.079  0.00  0.00    +0.000 A 
ATOM     22  C   UNL     1       2.365   4.396  18.015  0.00  0.00    +0.000 A 
ATOM     23  C   UNL     1       3.108   5.180  18.906  0.00  0.00    +0.000 A 
ATOM     24  C   UNL     1       4.520   5.139  18.863  0.00  0.00    +0.000 A 
BRANCH  19  26
ATOM     25  C   UNL     1       7.033   4.533  16.400  0.00  0.00    +0.000 C 
ATOM     26  O   UNL     1       6.523   4.221  17.689  0.00  0.00    +0.000 OA
ENDBRANCH  19  26
BRANCH  24  27
ATOM     27  O   UNL     1       5.250   5.869  19.765  0.00  0.00    +0.000 OA
ATOM     28  H   UNL     1       5.565   5.292  20.477  0.00  0.00    +0.000 HD
ENDBRANCH  24  27
ENDBRANCH   1  23
TORSDOF 4
ENDMDL
MODEL 9
REMARK VINA RESULT:      -6.6      1.999      2.275
REMARK  Name = 
REMARK  7 active torsions:
REMARK  status: ('A' for Active; 'I' for Inactive)
REMARK    1  A    between atoms: C_1  and  O_2
REMARK    2  A    between atoms: O_2  and  C_3
REMARK    3  A    between atoms: C_7  and  C_8
REMARK    4  A    between atoms: N_12  and  N_13
REMARK    5  A    between atoms: C_16  and  C_17
REMARK    6  A    between atoms: C_18  and  C_19
REMARK    7  A    between atoms: C_24  and  O_25
REMARK                            x       y       z     vdW  Elec       q    Type
REMARK                         _______ _______ _______ _____ _____    ______ ____
ROOT
ATOM      1  C   UNL     1       5.996   4.651  19.006  0.00  0.00    +0.000 C 
ATOM      2  C   UNL     1       6.699   5.768  18.771  0.00  0.00    +0.000 C 
ATOM      3  S   UNL     1       6.237   7.132  17.822  0.00  0.00    +0.000 S 
ATOM      4  C   UNL     1       7.725   7.971  18.171  0.00  0.00    +0.000 C 
ATOM      5  N   UNL     1       7.954   9.175  17.772  0.00  0.00    +0.000 NA
ATOM      6  N   UNL     1       8.551   7.190  18.912  0.00  0.00    +0.000 N 
ATOM      7  C   UNL     1       8.071   5.977  19.315  0.00  0.00    +0.000 C 
ATOM      8  O   UNL     1       8.679   5.176  20.006  0.00  0.00    +0.000 OA
ATOM      9  H   UNL     1       9.444   7.529  19.227  0.00  0.00    +0.000 HD
ENDROOT
BRANCH   5  10
ATOM     10  N   UNL     1       9.178   9.712  18.097  0.00  0.00    +0.000 N 
ATOM     11  C   UNL     1       9.428  11.046  17.941  0.00  0.00    +0.000 A 
ATOM     12  N   UNL     1      10.615  11.506  17.612  0.00  0.00    +0.000 NA
ATOM     13  C   UNL     1      10.597  12.890  17.503  0.00  0.00    +0.000 A 
ATOM     14  C   UNL     1      11.842  13.586  17.081  0.00  0.00    +0.000 C 
ATOM     15  C   UNL     1       9.384  13.480  17.813  0.00  0.00    +0.000 A 
ATOM     16  C   UNL     1       8.998  14.916  17.853  0.00  0.00    +0.000 C 
ATOM     17  S   UNL     1       8.233  12.266  18.183  0.00  0.00    +0.000 S 
ATOM     18  H   UNL     1       9.976   9.175  17.756  0.00  0.00    +0.000 HD
ENDBRANCH   5  10
BRANCH   1  23
ATOM     19  C   UNL     1       2.253   4.178  18.571  0.00  0.00    +0.000 A 
ATOM     20  C   UNL     1       2.230   3.658  17.271  0.00  0.00    +0.000 A 
ATOM     21  C   UNL     1       3.408   3.499  16.536  0.00  0.00    +0.000 A 
ATOM     22  C   UNL     1       4.633   3.840  17.109  0.00  0.00    +0.000 A 
ATOM     23  C   UNL     1       4.683   4.357  18.409  0.00  0.00    +0.000 A 
ATOM     24  C   UNL     1       3.485   4.547  19.133  0.00  0.00    +0.000 A 
BRANCH  19  26
ATOM     25  C   UNL     1       0.610   3.215  20.027  0.00  0.00    +0.000 C 
ATOM     26  O   UNL     1       1.006   4.247  19.135  0.00  0.00    +0.000 OA
ENDBRANCH  19  26
BRANCH  24  27
ATOM     27  O   UNL     1       3.527   5.096  20.388  0.00  0.00    +0.000 OA
ATOM     28  H   UNL     1       3.654   6.055  20.323  0.00  0.00    +0.000 HD
ENDBRANCH  24  27
ENDBRANCH   1  23
TORSDOF 4
ENDMDL
