MODEL 1
REMARK VINA RESULT:      -6.6      0.000      0.000
REMARK  Name = 
REMARK  9 active torsions:
REMARK  status: ('A' for Active; 'I' for Inactive)
REMARK    1  A    between atoms: C_1  and  C_2
REMARK    2  A    between atoms: C_2  and  C_3
REMARK    3  A    between atoms: C_3  and  C_4
REMARK    4  A    between atoms: C_9  and  C_11
REMARK    5  A    between atoms: N_13  and  C_14
REMARK    6  A    between atoms: C_14  and  C_15
REMARK    7  A    between atoms: C_15  and  N_16
REMARK    8  A    between atoms: N_16  and  C_17
REMARK    9  A    between atoms: N_16  and  C_18
REMARK                            x       y       z     vdW  Elec       q    Type
REMARK                         _______ _______ _______ _____ _____    ______ ____
ROOT
ATOM      1  C   UNL     1       6.928   4.458  13.340  0.00  0.00    +0.000 A 
ATOM      2  N   UNL     1       7.834   5.240  13.891  0.00  0.00    +0.000 NA
ATOM      3  N   UNL     1       7.457   5.663  15.156  0.00  0.00    +0.000 NA
ATOM      4  C   UNL     1       6.309   5.143  15.531  0.00  0.00    +0.000 A 
ATOM      5  N   UNL     1       5.710   5.401  16.737  0.00  0.00    +0.000 N 
ATOM      6  C   UNL     1       4.708   4.642  17.301  0.00  0.00    +0.000 C 
ATOM      7  O   UNL     1       4.173   3.632  16.873  0.00  0.00    +0.000 OA
ATOM      8  S   UNL     1       5.555   4.189  14.334  0.00  0.00    +0.000 S 
ATOM      9  H   UNL     1       6.124   6.136  17.301  0.00  0.00    +0.000 HD
ENDROOT
BRANCH   6  10
ATOM     10  C   UNL     1       4.288   5.142  18.696  0.00  0.00    +0.000 C 
ATOM     11  O   UNL     1       5.136   5.314  19.568  0.00  0.00    +0.000 OA
ATOM     12  N   UNL     1       2.934   5.331  18.828  0.00  0.00    +0.000 N 
ATOM     13  H   UNL     1       2.374   5.228  17.982  0.00  0.00    +0.000 HD
BRANCH  12  14
ATOM     14  C   UNL     1       2.321   5.836  20.036  0.00  0.00    +0.000 C 
BRANCH  14  15
ATOM     15  C   UNL     1       1.351   4.836  20.707  0.00  0.00    +0.000 C 
BRANCH  15  16
ATOM     16  N   UNL     1       1.675   3.413  20.462  0.00  0.00    +0.000 NA
ATOM     17  C   UNL     1       1.652   2.617  21.692  0.00  0.00    +0.000 C 
ATOM     18  C   UNL     1       0.736   2.833  19.493  0.00  0.00    +0.000 C 
ENDBRANCH  15  16
ENDBRANCH  14  15
ENDBRANCH  12  14
ENDBRANCH   6  10
BRANCH   1  19
ATOM     19  C   UNL     1       7.016   3.843  11.978  0.00  0.00    +0.000 C 
BRANCH  19  21
ATOM     20  C   UNL     1       6.599   1.498  11.138  0.00  0.00    +0.000 C 
ATOM     21  C   UNL     1       5.987   2.727  11.794  0.00  0.00    +0.000 C 
ENDBRANCH  19  21
ENDBRANCH   1  19
TORSDOF 6
ENDMDL
MODEL 2
REMARK VINA RESULT:      -6.3      2.278      7.530
REMARK  Name = 
REMARK  9 active torsions:
REMARK  status: ('A' for Active; 'I' for Inactive)
REMARK    1  A    between atoms: C_1  and  C_2
REMARK    2  A    between atoms: C_2  and  C_3
REMARK    3  A    between atoms: C_3  and  C_4
REMARK    4  A    between atoms: C_9  and  C_11
REMARK    5  A    between atoms: N_13  and  C_14
REMARK    6  A    between atoms: C_14  and  C_15
REMARK    7  A    between atoms: C_15  and  N_16
REMARK    8  A    between atoms: N_16  and  C_17
REMARK    9  A    between atoms: N_16  and  C_18
REMARK                            x       y       z     vdW  Elec       q    Type
REMARK                         _______ _______ _______ _____ _____    ______ ____
ROOT
ATOM      1  C   UNL     1       2.496   2.861  18.982  0.00  0.00    +0.000 A 
ATOM      2  N   UNL     1       1.892   2.678  17.825  0.00  0.00    +0.000 NA
ATOM      3  N   UNL     1       2.641   3.164  16.764  0.00  0.00    +0.000 NA
ATOM      4  C   UNL     1       3.800   3.646  17.156  0.00  0.00    +0.000 A 
ATOM      5  N   UNL     1       4.729   4.189  16.306  0.00  0.00    +0.000 N 
ATOM      6  C   UNL     1       6.057   4.392  16.611  0.00  0.00    +0.000 C 
ATOM      7  O   UNL     1       6.658   4.140  17.643  0.00  0.00    +0.000 OA
ATOM      8  S   UNL     1       4.019   3.640  18.848  0.00  0.00    +0.000 S 
ATOM      9  H   UNL     1       4.434   4.339  15.348  0.00  0.00    +0.000 HD
ENDROOT
BRANCH   6  10
ATOM     10  C   UNL     1       6.866   4.952  15.427  0.00  0.00    +0.000 C 
ATOM     11  O   UNL     1       7.564   5.951  15.578  0.00  0.00    +0.000 OA
ATOM     12  N   UNL     1       6.694   4.248  14.260  0.00  0.00    +0.000 N 
ATOM     13  H   UNL     1       6.149   3.388  14.322  0.00  0.00    +0.000 HD
BRANCH  12  14
ATOM     14  C   UNL     1       7.388   4.569  13.033  0.00  0.00    +0.000 C 
BRANCH  14  15
ATOM     15  C   UNL     1       6.797   3.877  11.784  0.00  0.00    +0.000 C 
BRANCH  15  16
ATOM     16  N   UNL     1       5.723   2.901  12.077  0.00  0.00    +0.000 NA
ATOM     17  C   UNL     1       4.412   3.356  11.606  0.00  0.00    +0.000 C 
ATOM     18  C   UNL     1       6.032   1.601  11.466  0.00  0.00    +0.000 C 
ENDBRANCH  15  16
ENDBRANCH  14  15
ENDBRANCH  12  14
ENDBRANCH   6  10
BRANCH   1  19
ATOM     19  C   UNL     1       1.955   2.467  20.321  0.00  0.00    +0.000 C 
BRANCH  19  21
ATOM     20  C   UNL     1       1.400   4.906  20.668  0.00  0.00    +0.000 C 
ATOM     21  C   UNL     1       0.920   3.472  20.830  0.00  0.00    +0.000 C 
ENDBRANCH  19  21
ENDBRANCH   1  19
TORSDOF 6
ENDMDL
MODEL 3
REMARK VINA RESULT:      -6.0      2.247      3.087
REMARK  Name = 
REMARK  9 active torsions:
REMARK  status: ('A' for Active; 'I' for Inactive)
REMARK    1  A    between atoms: C_1  and  C_2
REMARK    2  A    between atoms: C_2  and  C_3
REMARK    3  A    between atoms: C_3  and  C_4
REMARK    4  A    between atoms: C_9  and  C_11
REMARK    5  A    between atoms: N_13  and  C_14
REMARK    6  A    between atoms: C_14  and  C_15
REMARK    7  A    between atoms: C_15  and  N_16
REMARK    8  A    between atoms: N_16  and  C_17
REMARK    9  A    between atoms: N_16  and  C_18
REMARK                            x       y       z     vdW  Elec       q    Type
REMARK                         _______ _______ _______ _____ _____    ______ ____
ROOT
ATOM      1  C   UNL     1       6.791   4.622  13.990  0.00  0.00    +0.000 A 
ATOM      2  N   UNL     1       7.708   5.305  14.644  0.00  0.00    +0.000 NA
ATOM      3  N   UNL     1       7.216   5.836  15.827  0.00  0.00    +0.000 NA
ATOM      4  C   UNL     1       5.967   5.489  16.044  0.00  0.00    +0.000 A 
ATOM      5  N   UNL     1       5.243   5.881  17.141  0.00  0.00    +0.000 N 
ATOM      6  C   UNL     1       4.078   5.288  17.573  0.00  0.00    +0.000 C 
ATOM      7  O   UNL     1       3.476   4.336  17.102  0.00  0.00    +0.000 OA
ATOM      8  S   UNL     1       5.268   4.583  14.778  0.00  0.00    +0.000 S 
ATOM      9  H   UNL     1       5.668   6.583  17.737  0.00  0.00    +0.000 HD
ENDROOT
BRANCH   6  10
ATOM     10  C   UNL     1       3.536   5.906  18.876  0.00  0.00    +0.000 C 
ATOM     11  O   UNL     1       3.899   5.465  19.963  0.00  0.00    +0.000 OA
ATOM     12  N   UNL     1       2.639   6.926  18.669  0.00  0.00    +0.000 N 
ATOM     13  H   UNL     1       2.510   7.233  17.705  0.00  0.00    +0.000 HD
BRANCH  12  14
ATOM     14  C   UNL     1       2.036   7.679  19.747  0.00  0.00    +0.000 C 
BRANCH  14  15
ATOM     15  C   UNL     1       1.518   9.071  19.319  0.00  0.00    +0.000 C 
BRANCH  15  16
ATOM     16  N   UNL     1       0.576   9.693  20.276  0.00  0.00    +0.000 NA
ATOM     17  C   UNL     1      -0.676  10.107  19.636  0.00  0.00    +0.000 C 
ATOM     18  C   UNL     1       0.274   8.767  21.375  0.00  0.00    +0.000 C 
ENDBRANCH  15  16
ENDBRANCH  14  15
ENDBRANCH  12  14
ENDBRANCH   6  10
BRANCH   1  19
ATOM     19  C   UNL     1       6.987   3.934  12.674  0.00  0.00    +0.000 C 
BRANCH  19  21
ATOM     20  C   UNL     1       6.026   1.966  11.419  0.00  0.00    +0.000 C 
ATOM     21  C   UNL     1       5.714   3.226  12.211  0.00  0.00    +0.000 C 
ENDBRANCH  19  21
ENDBRANCH   1  19
TORSDOF 6
ENDMDL
MODEL 4
REMARK VINA RESULT:      -6.0      4.141      5.784
REMARK  Name = 
REMARK  9 active torsions:
REMARK  status: ('A' for Active; 'I' for Inactive)
REMARK    1  A    between atoms: C_1  and  C_2
REMARK    2  A    between atoms: C_2  and  C_3
REMARK    3  A    between atoms: C_3  and  C_4
REMARK    4  A    between atoms: C_9  and  C_11
REMARK    5  A    between atoms: N_13  and  C_14
REMARK    6  A    between atoms: C_14  and  C_15
REMARK    7  A    between atoms: C_15  and  N_16
REMARK    8  A    between atoms: N_16  and  C_17
REMARK    9  A    between atoms: N_16  and  C_18
REMARK                            x       y       z     vdW  Elec       q    Type
REMARK                         _______ _______ _______ _____ _____    ______ ____
ROOT
ATOM      1  C   UNL     1       6.346   3.566  12.490  0.00  0.00    +0.000 A 
ATOM      2  N   UNL     1       7.298   4.369  12.059  0.00  0.00    +0.000 NA
ATOM      3  N   UNL     1       7.716   5.254  13.041  0.00  0.00    +0.000 NA
ATOM      4  C   UNL     1       7.103   5.051  14.186  0.00  0.00    +0.000 A 
ATOM      5  N   UNL     1       7.331   5.790  15.318  0.00  0.00    +0.000 N 
ATOM      6  C   UNL     1       6.975   5.412  16.594  0.00  0.00    +0.000 C 
ATOM      7  O   UNL     1       6.417   4.394  16.969  0.00  0.00    +0.000 OA
ATOM      8  S   UNL     1       5.900   3.842  14.124  0.00  0.00    +0.000 S 
ATOM      9  H   UNL     1       7.909   6.616  15.212  0.00  0.00    +0.000 HD
ENDROOT
BRANCH   6  10
ATOM     10  C   UNL     1       7.429   6.419  17.667  0.00  0.00    +0.000 C 
ATOM     11  O   UNL     1       7.852   6.017  18.748  0.00  0.00    +0.000 OA
ATOM     12  N   UNL     1       7.285   7.731  17.287  0.00  0.00    +0.000 N 
ATOM     13  H   UNL     1       7.001   7.899  16.321  0.00  0.00    +0.000 HD
BRANCH  12  14
ATOM     14  C   UNL     1       7.686   8.844  18.118  0.00  0.00    +0.000 C 
BRANCH  14  15
ATOM     15  C   UNL     1       8.885   9.641  17.554  0.00  0.00    +0.000 C 
BRANCH  15  16
ATOM     16  N   UNL     1       9.235  10.851  18.331  0.00  0.00    +0.000 NA
ATOM     17  C   UNL     1       9.515  10.549  19.737  0.00  0.00    +0.000 C 
ATOM     18  C   UNL     1      10.400  11.522  17.739  0.00  0.00    +0.000 C 
ENDBRANCH  15  16
ENDBRANCH  14  15
ENDBRANCH  12  14
ENDBRANCH   6  10
BRANCH   1  19
ATOM     19  C   UNL     1       5.665   2.507  11.682  0.00  0.00    +0.000 C 
BRANCH  19  21
ATOM     20  C   UNL     1       6.149   0.075  11.203  0.00  0.00    +0.000 C 
ATOM     21  C   UNL     1       6.666   1.503  11.109  0.00  0.00    +0.000 C 
ENDBRANCH  19  21
ENDBRANCH   1  19
TORSDOF 6
ENDMDL
MODEL 5
REMARK VINA RESULT:      -6.0      6.451      8.695
REMARK  Name = 
REMARK  9 active torsions:
REMARK  status: ('A' for Active; 'I' for Inactive)
REMARK    1  A    between atoms: C_1  and  C_2
REMARK    2  A    between atoms: C_2  and  C_3
REMARK    3  A    between atoms: C_3  and  C_4
REMARK    4  A    between atoms: C_9  and  C_11
REMARK    5  A    between atoms: N_13  and  C_14
REMARK    6  A    between atoms: C_14  and  C_15
REMARK    7  A    between atoms: C_15  and  N_16
REMARK    8  A    between atoms: N_16  and  C_17
REMARK    9  A    between atoms: N_16  and  C_18
REMARK                            x       y       z     vdW  Elec       q    Type
REMARK                         _______ _______ _______ _____ _____    ______ ____
ROOT
ATOM      1  C   UNL     1       6.666   4.938  17.569  0.00  0.00    +0.000 A 
ATOM      2  N   UNL     1       7.157   4.596  18.743  0.00  0.00    +0.000 NA
ATOM      3  N   UNL     1       7.919   5.609  19.305  0.00  0.00    +0.000 NA
ATOM      4  C   UNL     1       7.929   6.692  18.559  0.00  0.00    +0.000 A 
ATOM      5  N   UNL     1       8.608   7.838  18.884  0.00  0.00    +0.000 N 
ATOM      6  C   UNL     1       8.383   9.076  18.324  0.00  0.00    +0.000 C 
ATOM      7  O   UNL     1       7.574   9.401  17.471  0.00  0.00    +0.000 OA
ATOM      8  S   UNL     1       7.103   6.522  17.075  0.00  0.00    +0.000 S 
ATOM      9  H   UNL     1       9.236   7.783  19.678  0.00  0.00    +0.000 HD
ENDROOT
BRANCH   6  10
ATOM     10  C   UNL     1       9.255  10.184  18.946  0.00  0.00    +0.000 C 
ATOM     11  O   UNL     1       9.302  10.316  20.166  0.00  0.00    +0.000 OA
ATOM     12  N   UNL     1       9.903  10.960  18.017  0.00  0.00    +0.000 N 
ATOM     13  H   UNL     1       9.829  10.665  17.043  0.00  0.00    +0.000 HD
BRANCH  12  14
ATOM     14  C   UNL     1      10.807  12.031  18.374  0.00  0.00    +0.000 C 
BRANCH  14  15
ATOM     15  C   UNL     1      10.713  13.261  17.442  0.00  0.00    +0.000 C 
BRANCH  15  16
ATOM     16  N   UNL     1      10.686  14.562  18.147  0.00  0.00    +0.000 NA
ATOM     17  C   UNL     1      11.739  14.669  19.160  0.00  0.00    +0.000 C 
ATOM     18  C   UNL     1      10.822  15.667  17.189  0.00  0.00    +0.000 C 
ENDBRANCH  15  16
ENDBRANCH  14  15
ENDBRANCH  12  14
ENDBRANCH   6  10
BRANCH   1  19
ATOM     19  C   UNL     1       5.815   4.073  16.692  0.00  0.00    +0.000 C 
BRANCH  19  21
ATOM     20  C   UNL     1       6.249   3.984  14.206  0.00  0.00    +0.000 C 
ATOM     21  C   UNL     1       5.552   4.728  15.336  0.00  0.00    +0.000 C 
ENDBRANCH  19  21
ENDBRANCH   1  19
TORSDOF 6
ENDMDL
MODEL 6
REMARK VINA RESULT:      -6.0      3.366      4.550
REMARK  Name = 
REMARK  9 active torsions:
REMARK  status: ('A' for Active; 'I' for Inactive)
REMARK    1  A    between atoms: C_1  and  C_2
REMARK    2  A    between atoms: C_2  and  C_3
REMARK    3  A    between atoms: C_3  and  C_4
REMARK    4  A    between atoms: C_9  and  C_11
REMARK    5  A    between atoms: N_13  and  C_14
REMARK    6  A    between atoms: C_14  and  C_15
REMARK    7  A    between atoms: C_15  and  N_16
REMARK    8  A    between atoms: N_16  and  C_17
REMARK    9  A    between atoms: N_16  and  C_18
REMARK                            x       y       z     vdW  Elec       q    Type
REMARK                         _______ _______ _______ _____ _____    ______ ____
ROOT
ATOM      1  C   UNL     1       6.590   4.618  16.865  0.00  0.00    +0.000 A 
ATOM      2  N   UNL     1       7.211   4.550  18.026  0.00  0.00    +0.000 NA
ATOM      3  N   UNL     1       6.405   4.974  19.072  0.00  0.00    +0.000 NA
ATOM      4  C   UNL     1       5.196   5.293  18.668  0.00  0.00    +0.000 A 
ATOM      5  N   UNL     1       4.205   5.744  19.502  0.00  0.00    +0.000 N 
ATOM      6  C   UNL     1       2.862   5.769  19.194  0.00  0.00    +0.000 C 
ATOM      7  O   UNL     1       2.299   5.410  18.173  0.00  0.00    +0.000 OA
ATOM      8  S   UNL     1       4.982   5.204  16.977  0.00  0.00    +0.000 S 
ATOM      9  H   UNL     1       4.478   5.962  20.454  0.00  0.00    +0.000 HD
ENDROOT
BRANCH   6  10
ATOM     10  C   UNL     1       1.987   6.263  20.361  0.00  0.00    +0.000 C 
ATOM     11  O   UNL     1       1.390   5.455  21.067  0.00  0.00    +0.000 OA
ATOM     12  N   UNL     1       1.950   7.631  20.480  0.00  0.00    +0.000 N 
ATOM     13  H   UNL     1       2.573   8.160  19.869  0.00  0.00    +0.000 HD
BRANCH  12  14
ATOM     14  C   UNL     1       1.227   8.314  21.529  0.00  0.00    +0.000 C 
BRANCH  14  15
ATOM     15  C   UNL     1       0.878   9.782  21.191  0.00  0.00    +0.000 C 
BRANCH  15  16
ATOM     16  N   UNL     1      -0.464  10.212  21.645  0.00  0.00    +0.000 NA
ATOM     17  C   UNL     1      -0.652  10.022  23.085  0.00  0.00    +0.000 C 
ATOM     18  C   UNL     1      -0.690  11.624  21.309  0.00  0.00    +0.000 C 
ENDBRANCH  15  16
ENDBRANCH  14  15
ENDBRANCH  12  14
ENDBRANCH   6  10
BRANCH   1  19
ATOM     19  C   UNL     1       7.178   4.250  15.538  0.00  0.00    +0.000 C 
BRANCH  19  21
ATOM     20  C   UNL     1       6.103   3.719  13.316  0.00  0.00    +0.000 C 
ATOM     21  C   UNL     1       6.333   4.782  14.380  0.00  0.00    +0.000 C 
ENDBRANCH  19  21
ENDBRANCH   1  19
TORSDOF 6
ENDMDL
MODEL 7
REMARK VINA RESULT:      -5.9      4.032      5.786
REMARK  Name = 
REMARK  9 active torsions:
REMARK  status: ('A' for Active; 'I' for Inactive)
REMARK    1  A    between atoms: C_1  and  C_2
REMARK    2  A    between atoms: C_2  and  C_3
REMARK    3  A    between atoms: C_3  and  C_4
REMARK    4  A    between atoms: C_9  and  C_11
REMARK    5  A    between atoms: N_13  and  C_14
REMARK    6  A    between atoms: C_14  and  C_15
REMARK    7  A    between atoms: C_15  and  N_16
REMARK    8  A    between atoms: N_16  and  C_17
REMARK    9  A    between atoms: N_16  and  C_18
REMARK                            x       y       z     vdW  Elec       q    Type
REMARK                         _______ _______ _______ _____ _____    ______ ____
ROOT
ATOM      1  C   UNL     1       6.298   3.645  12.746  0.00  0.00    +0.000 A 
ATOM      2  N   UNL     1       7.236   4.485  12.355  0.00  0.00    +0.000 NA
ATOM      3  N   UNL     1       7.652   5.316  13.384  0.00  0.00    +0.000 NA
ATOM      4  C   UNL     1       7.051   5.037  14.520  0.00  0.00    +0.000 A 
ATOM      5  N   UNL     1       7.280   5.712  15.692  0.00  0.00    +0.000 N 
ATOM      6  C   UNL     1       6.940   5.255  16.946  0.00  0.00    +0.000 C 
ATOM      7  O   UNL     1       6.398   4.209  17.265  0.00  0.00    +0.000 OA
ATOM      8  S   UNL     1       5.864   3.818  14.396  0.00  0.00    +0.000 S 
ATOM      9  H   UNL     1       7.846   6.550  15.629  0.00  0.00    +0.000 HD
ENDROOT
BRANCH   6  10
ATOM     10  C   UNL     1       7.391   6.203  18.073  0.00  0.00    +0.000 C 
ATOM     11  O   UNL     1       7.208   5.893  19.247  0.00  0.00    +0.000 OA
ATOM     12  N   UNL     1       7.961   7.367  17.618  0.00  0.00    +0.000 N 
ATOM     13  H   UNL     1       8.122   7.434  16.612  0.00  0.00    +0.000 HD
BRANCH  12  14
ATOM     14  C   UNL     1       8.495   8.383  18.498  0.00  0.00    +0.000 C 
BRANCH  14  15
ATOM     15  C   UNL     1       8.223   9.827  18.018  0.00  0.00    +0.000 C 
BRANCH  15  16
ATOM     16  N   UNL     1       9.304  10.788  18.328  0.00  0.00    +0.000 NA
ATOM     17  C   UNL     1       9.013  12.135  17.827  0.00  0.00    +0.000 C 
ATOM     18  C   UNL     1       9.536  10.851  19.777  0.00  0.00    +0.000 C 
ENDBRANCH  15  16
ENDBRANCH  14  15
ENDBRANCH  12  14
ENDBRANCH   6  10
BRANCH   1  19
ATOM     19  C   UNL     1       5.624   2.626  11.881  0.00  0.00    +0.000 C 
BRANCH  19  21
ATOM     20  C   UNL     1       3.246   3.077  11.161  0.00  0.00    +0.000 C 
ATOM     21  C   UNL     1       4.718   3.281  10.837  0.00  0.00    +0.000 C 
ENDBRANCH  19  21
ENDBRANCH   1  19
TORSDOF 6
ENDMDL
MODEL 8
REMARK VINA RESULT:      -5.9      4.381      7.575
REMARK  Name = 
REMARK  9 active torsions:
REMARK  status: ('A' for Active; 'I' for Inactive)
REMARK    1  A    between atoms: C_1  and  C_2
REMARK    2  A    between atoms: C_2  and  C_3
REMARK    3  A    between atoms: C_3  and  C_4
REMARK    4  A    between atoms: C_9  and  C_11
REMARK    5  A    between atoms: N_13  and  C_14
REMARK    6  A    between atoms: C_14  and  C_15
REMARK    7  A    between atoms: C_15  and  N_16
REMARK    8  A    between atoms: N_16  and  C_17
REMARK    9  A    between atoms: N_16  and  C_18
REMARK                            x       y       z     vdW  Elec       q    Type
REMARK                         _______ _______ _______ _____ _____    ______ ____
ROOT
ATOM      1  C   UNL     1       3.308   3.048  18.765  0.00  0.00    +0.000 A 
ATOM      2  N   UNL     1       4.300   2.701  19.561  0.00  0.00    +0.000 NA
ATOM      3  N   UNL     1       5.425   3.488  19.363  0.00  0.00    +0.000 NA
ATOM      4  C   UNL     1       5.221   4.428  18.467  0.00  0.00    +0.000 A 
ATOM      5  N   UNL     1       6.172   5.339  18.084  0.00  0.00    +0.000 N 
ATOM      6  C   UNL     1       5.915   6.518  17.420  0.00  0.00    +0.000 C 
ATOM      7  O   UNL     1       4.846   6.981  17.056  0.00  0.00    +0.000 OA
ATOM      8  S   UNL     1       3.686   4.359  17.725  0.00  0.00    +0.000 S 
ATOM      9  H   UNL     1       7.114   5.181  18.424  0.00  0.00    +0.000 HD
ENDROOT
BRANCH   6  10
ATOM     10  C   UNL     1       7.180   7.366  17.191  0.00  0.00    +0.000 C 
ATOM     11  O   UNL     1       8.054   6.972  16.423  0.00  0.00    +0.000 OA
ATOM     12  N   UNL     1       7.206   8.525  17.928  0.00  0.00    +0.000 N 
ATOM     13  H   UNL     1       6.361   8.752  18.453  0.00  0.00    +0.000 HD
BRANCH  12  14
ATOM     14  C   UNL     1       8.276   9.494  17.840  0.00  0.00    +0.000 C 
BRANCH  14  15
ATOM     15  C   UNL     1       9.050   9.689  19.164  0.00  0.00    +0.000 C 
BRANCH  15  16
ATOM     16  N   UNL     1       9.404  11.094  19.465  0.00  0.00    +0.000 NA
ATOM     17  C   UNL     1       9.295  11.402  20.894  0.00  0.00    +0.000 C 
ATOM     18  C   UNL     1      10.769  11.388  19.009  0.00  0.00    +0.000 C 
ENDBRANCH  15  16
ENDBRANCH  14  15
ENDBRANCH  12  14
ENDBRANCH   6  10
BRANCH   1  19
ATOM     19  C   UNL     1       1.962   2.395  18.712  0.00  0.00    +0.000 C 
BRANCH  19  21
ATOM     20  C   UNL     1       1.047   3.850  20.563  0.00  0.00    +0.000 C 
ATOM     21  C   UNL     1       1.265   2.426  20.073  0.00  0.00    +0.000 C 
ENDBRANCH  19  21
ENDBRANCH   1  19
TORSDOF 6
ENDMDL
MODEL 9
REMARK VINA RESULT:      -5.9      2.804      3.968
REMARK  Name = 
REMARK  9 active torsions:
REMARK  status: ('A' for Active; 'I' for Inactive)
REMARK    1  A    between atoms: C_1  and  C_2
REMARK    2  A    between atoms: C_2  and  C_3
REMARK    3  A    between atoms: C_3  and  C_4
REMARK    4  A    between atoms: C_9  and  C_11
REMARK    5  A    between atoms: N_13  and  C_14
REMARK    6  A    between atoms: C_14  and  C_15
REMARK    7  A    between atoms: C_15  and  N_16
REMARK    8  A    between atoms: N_16  and  C_17
REMARK    9  A    between atoms: N_16  and  C_18
REMARK                            x       y       z     vdW  Elec       q    Type
REMARK                         _______ _______ _______ _____ _____    ______ ____
ROOT
ATOM      1  C   UNL     1       6.695   4.867  15.898  0.00  0.00    +0.000 A 
ATOM      2  N   UNL     1       7.426   4.690  16.980  0.00  0.00    +0.000 NA
ATOM      3  N   UNL     1       6.725   4.988  18.138  0.00  0.00    +0.000 NA
ATOM      4  C   UNL     1       5.479   5.327  17.889  0.00  0.00    +0.000 A 
ATOM      5  N   UNL     1       4.572   5.672  18.858  0.00  0.00    +0.000 N 
ATOM      6  C   UNL     1       3.206   5.706  18.687  0.00  0.00    +0.000 C 
ATOM      7  O   UNL     1       2.547   5.445  17.693  0.00  0.00    +0.000 OA
ATOM      8  S   UNL     1       5.101   5.411  16.228  0.00  0.00    +0.000 S 
ATOM      9  H   UNL     1       4.936   5.794  19.797  0.00  0.00    +0.000 HD
ENDROOT
BRANCH   6  10
ATOM     10  C   UNL     1       2.447   6.060  19.979  0.00  0.00    +0.000 C 
ATOM     11  O   UNL     1       2.230   5.195  20.822  0.00  0.00    +0.000 OA
ATOM     12  N   UNL     1       2.054   7.375  20.043  0.00  0.00    +0.000 N 
ATOM     13  H   UNL     1       2.389   7.989  19.300  0.00  0.00    +0.000 HD
BRANCH  12  14
ATOM     14  C   UNL     1       1.365   7.940  21.182  0.00  0.00    +0.000 C 
BRANCH  14  15
ATOM     15  C   UNL     1       0.985   9.428  21.004  0.00  0.00    +0.000 C 
BRANCH  15  16
ATOM     16  N   UNL     1       0.430   9.763  19.673  0.00  0.00    +0.000 NA
ATOM     17  C   UNL     1      -0.896  10.381  19.762  0.00  0.00    +0.000 C 
ATOM     18  C   UNL     1       1.337  10.665  18.951  0.00  0.00    +0.000 C 
ENDBRANCH  15  16
ENDBRANCH  14  15
ENDBRANCH  12  14
ENDBRANCH   6  10
BRANCH   1  19
ATOM     19  C   UNL     1       7.151   4.650  14.490  0.00  0.00    +0.000 C 
BRANCH  19  21
ATOM     20  C   UNL     1       6.538   3.721  12.223  0.00  0.00    +0.000 C 
ATOM     21  C   UNL     1       6.138   3.833  13.687  0.00  0.00    +0.000 C 
ENDBRANCH  19  21
ENDBRANCH   1  19
TORSDOF 6
ENDMDL
