MODEL 1
REMARK VINA RESULT:      -8.2      0.000      0.000
REMARK  Name = 
REMARK  10 active torsions:
REMARK  status: ('A' for Active; 'I' for Inactive)
REMARK    1  A    between atoms: C_1  and  C_2
REMARK    2  A    between atoms: C_2  and  C_3
REMARK    3  A    between atoms: C_6  and  C_7
REMARK    4  A    between atoms: C_9  and  C_10
REMARK    5  A    between atoms: C_10  and  S_11
REMARK    6  A    between atoms: S_11  and  C_13
REMARK    7  A    between atoms: C_13  and  C_14
REMARK    8  A    between atoms: N_16  and  C_17
REMARK    9  A    between atoms: C_17  and  C_18
REMARK   10  A    between atoms: C_25  and  C_26
REMARK                            x       y       z     vdW  Elec       q    Type
REMARK                         _______ _______ _______ _____ _____    ______ ____
ROOT
ATOM      1  C   UNL     1       3.120   4.991  20.301  0.00  0.00    +0.000 C 
ENDROOT
BRANCH   1   4
ATOM      2  C   UNL     1       1.418   8.101  20.582  0.00  0.00    +0.000 A 
ATOM      3  N   UNL     1       1.779   6.945  21.088  0.00  0.00    +0.000 NA
ATOM      4  C   UNL     1       2.516   6.334  20.098  0.00  0.00    +0.000 A 
ATOM      5  C   UNL     1       2.567   7.177  19.003  0.00  0.00    +0.000 A 
ATOM      6  C   UNL     1       3.172   7.167  17.662  0.00  0.00    +0.000 C 
ATOM      7  O   UNL     1       1.860   8.303  19.307  0.00  0.00    +0.000 OA
BRANCH   2  11
ATOM      8  C   UNL     1      -0.813  11.253  22.389  0.00  0.00    +0.000 A 
ATOM      9  C   UNL     1      -0.605  10.051  23.073  0.00  0.00    +0.000 A 
ATOM     10  C   UNL     1       0.112   9.015  22.471  0.00  0.00    +0.000 A 
ATOM     11  C   UNL     1       0.634   9.168  21.180  0.00  0.00    +0.000 A 
ATOM     12  C   UNL     1       0.403  10.364  20.490  0.00  0.00    +0.000 A 
ATOM     13  C   UNL     1      -0.310  11.400  21.092  0.00  0.00    +0.000 A 
BRANCH   8  15
ATOM     14  C   UNL     1      -2.922  12.066  23.426  0.00  0.00    +0.000 C 
ATOM     15  C   UNL     1      -1.486  12.418  23.066  0.00  0.00    +0.000 C 
ENDBRANCH   8  15
ENDBRANCH   2  11
ENDBRANCH   1   4
BRANCH   1  16
ATOM     16  S   UNL     1       1.931   3.620  20.526  0.00  0.00    +0.000 S 
ATOM     17  O   UNL     1       0.499   4.033  20.031  0.00  0.00    +0.000 OA
BRANCH  16  18
ATOM     18  C   UNL     1       2.663   2.445  19.348  0.00  0.00    +0.000 C 
BRANCH  18  19
ATOM     19  C   UNL     1       3.223   3.194  18.158  0.00  0.00    +0.000 C 
ATOM     20  O   UNL     1       2.502   3.741  17.330  0.00  0.00    +0.000 OA
ATOM     21  N   UNL     1       4.593   3.208  18.052  0.00  0.00    +0.000 N 
ATOM     22  H   UNL     1       5.171   2.776  18.761  0.00  0.00    +0.000 HD
BRANCH  21  23
ATOM     23  C   UNL     1       5.245   3.862  16.935  0.00  0.00    +0.000 C 
BRANCH  23  24
ATOM     24  C   UNL     1       6.178   4.946  17.412  0.00  0.00    +0.000 A 
ATOM     25  C   UNL     1       6.705   4.906  18.713  0.00  0.00    +0.000 A 
ATOM     26  C   UNL     1       7.563   5.913  19.157  0.00  0.00    +0.000 A 
ATOM     27  C   UNL     1       7.882   6.965  18.308  0.00  0.00    +0.000 A 
ATOM     28  F   UNL     1       8.689   7.941  18.741  0.00  0.00    +0.000 F 
ATOM     29  C   UNL     1       7.369   7.023  17.018  0.00  0.00    +0.000 A 
ATOM     30  C   UNL     1       6.515   6.014  16.569  0.00  0.00    +0.000 A 
ENDBRANCH  23  24
ENDBRANCH  21  23
ENDBRANCH  18  19
ENDBRANCH  16  18
ENDBRANCH   1  16
TORSDOF 8
ENDMDL
MODEL 2
REMARK VINA RESULT:      -8.2      0.748      1.224
REMARK  Name = 
REMARK  10 active torsions:
REMARK  status: ('A' for Active; 'I' for Inactive)
REMARK    1  A    between atoms: C_1  and  C_2
REMARK    2  A    between atoms: C_2  and  C_3
REMARK    3  A    between atoms: C_6  and  C_7
REMARK    4  A    between atoms: C_9  and  C_10
REMARK    5  A    between atoms: C_10  and  S_11
REMARK    6  A    between atoms: S_11  and  C_13
REMARK    7  A    between atoms: C_13  and  C_14
REMARK    8  A    between atoms: N_16  and  C_17
REMARK    9  A    between atoms: C_17  and  C_18
REMARK   10  A    between atoms: C_25  and  C_26
REMARK                            x       y       z     vdW  Elec       q    Type
REMARK                         _______ _______ _______ _____ _____    ______ ____
ROOT
ATOM      1  C   UNL     1       3.062   5.277  19.902  0.00  0.00    +0.000 C 
ENDROOT
BRANCH   1   4
ATOM      2  C   UNL     1       1.397   8.357  20.528  0.00  0.00    +0.000 A 
ATOM      3  N   UNL     1       1.777   7.163  20.918  0.00  0.00    +0.000 NA
ATOM      4  C   UNL     1       2.456   6.633  19.843  0.00  0.00    +0.000 A 
ATOM      5  C   UNL     1       2.453   7.562  18.819  0.00  0.00    +0.000 A 
ATOM      6  C   UNL     1       2.985   7.660  17.451  0.00  0.00    +0.000 C 
ATOM      7  O   UNL     1       1.770   8.662  19.251  0.00  0.00    +0.000 OA
BRANCH   2  11
ATOM      8  C   UNL     1      -0.853  11.334  22.590  0.00  0.00    +0.000 A 
ATOM      9  C   UNL     1      -0.141  11.662  21.431  0.00  0.00    +0.000 A 
ATOM     10  C   UNL     1       0.609  10.687  20.769  0.00  0.00    +0.000 A 
ATOM     11  C   UNL     1       0.652   9.373  21.252  0.00  0.00    +0.000 A 
ATOM     12  C   UNL     1      -0.042   9.056  22.424  0.00  0.00    +0.000 A 
ATOM     13  C   UNL     1      -0.794  10.027  23.085  0.00  0.00    +0.000 A 
BRANCH   8  15
ATOM     14  C   UNL     1      -1.173  13.745  23.114  0.00  0.00    +0.000 C 
ATOM     15  C   UNL     1      -1.753  12.344  23.251  0.00  0.00    +0.000 C 
ENDBRANCH   8  15
ENDBRANCH   2  11
ENDBRANCH   1   4
BRANCH   1  16
ATOM     16  S   UNL     1       1.875   3.885  19.901  0.00  0.00    +0.000 S 
ATOM     17  O   UNL     1       0.440   4.372  20.315  0.00  0.00    +0.000 OA
BRANCH  16  18
ATOM     18  C   UNL     1       1.900   3.524  18.119  0.00  0.00    +0.000 C 
BRANCH  18  19
ATOM     19  C   UNL     1       3.314   3.210  17.680  0.00  0.00    +0.000 C 
ATOM     20  O   UNL     1       3.892   2.181  18.019  0.00  0.00    +0.000 OA
ATOM     21  N   UNL     1       3.920   4.158  16.891  0.00  0.00    +0.000 N 
ATOM     22  H   UNL     1       3.416   4.985  16.599  0.00  0.00    +0.000 HD
BRANCH  21  23
ATOM     23  C   UNL     1       5.286   3.986  16.439  0.00  0.00    +0.000 C 
BRANCH  23  24
ATOM     24  C   UNL     1       6.201   4.993  17.087  0.00  0.00    +0.000 A 
ATOM     25  C   UNL     1       6.906   4.663  18.256  0.00  0.00    +0.000 A 
ATOM     26  C   UNL     1       7.747   5.599  18.861  0.00  0.00    +0.000 A 
ATOM     27  C   UNL     1       7.873   6.866  18.305  0.00  0.00    +0.000 A 
ATOM     28  F   UNL     1       8.665   7.769  18.896  0.00  0.00    +0.000 F 
ATOM     29  C   UNL     1       7.184   7.212  17.150  0.00  0.00    +0.000 A 
ATOM     30  C   UNL     1       6.346   6.277  16.540  0.00  0.00    +0.000 A 
ENDBRANCH  23  24
ENDBRANCH  21  23
ENDBRANCH  18  19
ENDBRANCH  16  18
ENDBRANCH   1  16
TORSDOF 8
ENDMDL
MODEL 3
REMARK VINA RESULT:      -8.1      0.377      1.334
REMARK  Name = 
REMARK  10 active torsions:
REMARK  status: ('A' for Active; 'I' for Inactive)
REMARK    1  A    between atoms: C_1  and  C_2
REMARK    2  A    between atoms: C_2  and  C_3
REMARK    3  A    between atoms: C_6  and  C_7
REMARK    4  A    between atoms: C_9  and  C_10
REMARK    5  A    between atoms: C_10  and  S_11
REMARK    6  A    between atoms: S_11  and  C_13
REMARK    7  A    between atoms: C_13  and  C_14
REMARK    8  A    between atoms: N_16  and  C_17
REMARK    9  A    between atoms: C_17  and  C_18
REMARK   10  A    between atoms: C_25  and  C_26
REMARK                            x       y       z     vdW  Elec       q    Type
REMARK                         _______ _______ _______ _____ _____    ______ ____
ROOT
ATOM      1  C   UNL     1       3.150   4.970  20.073  0.00  0.00    +0.000 C 
ENDROOT
BRANCH   1   4
ATOM      2  C   UNL     1       1.411   8.038  20.539  0.00  0.00    +0.000 A 
ATOM      3  N   UNL     1       1.779   6.855  20.972  0.00  0.00    +0.000 NA
ATOM      4  C   UNL     1       2.533   6.317  19.952  0.00  0.00    +0.000 A 
ATOM      5  C   UNL     1       2.585   7.231  18.916  0.00  0.00    +0.000 A 
ATOM      6  C   UNL     1       3.205   7.316  17.584  0.00  0.00    +0.000 C 
ATOM      7  O   UNL     1       1.863   8.328  19.285  0.00  0.00    +0.000 OA
BRANCH   2  11
ATOM      8  C   UNL     1      -1.018  10.989  22.429  0.00  0.00    +0.000 A 
ATOM      9  C   UNL     1      -0.672  11.116  21.079  0.00  0.00    +0.000 A 
ATOM     10  C   UNL     1       0.138  10.156  20.469  0.00  0.00    +0.000 A 
ATOM     11  C   UNL     1       0.608   9.055  21.197  0.00  0.00    +0.000 A 
ATOM     12  C   UNL     1       0.279   8.945  22.552  0.00  0.00    +0.000 A 
ATOM     13  C   UNL     1      -0.532   9.901  23.163  0.00  0.00    +0.000 A 
BRANCH   8  15
ATOM     14  C   UNL     1      -2.105  13.217  22.231  0.00  0.00    +0.000 C 
ATOM     15  C   UNL     1      -1.979  11.954  23.071  0.00  0.00    +0.000 C 
ENDBRANCH   8  15
ENDBRANCH   2  11
ENDBRANCH   1   4
BRANCH   1  16
ATOM     16  S   UNL     1       1.973   3.575  20.197  0.00  0.00    +0.000 S 
ATOM     17  O   UNL     1       0.574   3.968  19.600  0.00  0.00    +0.000 OA
BRANCH  16  18
ATOM     18  C   UNL     1       2.813   2.426  19.066  0.00  0.00    +0.000 C 
BRANCH  18  19
ATOM     19  C   UNL     1       3.422   3.195  17.913  0.00  0.00    +0.000 C 
ATOM     20  O   UNL     1       2.736   3.724  17.044  0.00  0.00    +0.000 OA
ATOM     21  N   UNL     1       4.794   3.249  17.889  0.00  0.00    +0.000 N 
ATOM     22  H   UNL     1       5.341   2.831  18.631  0.00  0.00    +0.000 HD
BRANCH  21  23
ATOM     23  C   UNL     1       5.493   3.925  16.814  0.00  0.00    +0.000 C 
BRANCH  23  24
ATOM     24  C   UNL     1       6.346   5.047  17.346  0.00  0.00    +0.000 A 
ATOM     25  C   UNL     1       6.469   6.247  16.626  0.00  0.00    +0.000 A 
ATOM     26  C   UNL     1       7.265   7.284  17.114  0.00  0.00    +0.000 A 
ATOM     27  C   UNL     1       7.949   7.117  18.311  0.00  0.00    +0.000 A 
ATOM     28  F   UNL     1       8.728   8.105  18.770  0.00  0.00    +0.000 F 
ATOM     29  C   UNL     1       7.842   5.938  19.037  0.00  0.00    +0.000 A 
ATOM     30  C   UNL     1       7.042   4.901  18.554  0.00  0.00    +0.000 A 
ENDBRANCH  23  24
ENDBRANCH  21  23
ENDBRANCH  18  19
ENDBRANCH  16  18
ENDBRANCH   1  16
TORSDOF 8
ENDMDL
MODEL 4
REMARK VINA RESULT:      -7.8      1.981      2.649
REMARK  Name = 
REMARK  10 active torsions:
REMARK  status: ('A' for Active; 'I' for Inactive)
REMARK    1  A    between atoms: C_1  and  C_2
REMARK    2  A    between atoms: C_2  and  C_3
REMARK    3  A    between atoms: C_6  and  C_7
REMARK    4  A    between atoms: C_9  and  C_10
REMARK    5  A    between atoms: C_10  and  S_11
REMARK    6  A    between atoms: S_11  and  C_13
REMARK    7  A    between atoms: C_13  and  C_14
REMARK    8  A    between atoms: N_16  and  C_17
REMARK    9  A    between atoms: C_17  and  C_18
REMARK   10  A    between atoms: C_25  and  C_26
REMARK                            x       y       z     vdW  Elec       q    Type
REMARK                         _______ _______ _______ _____ _____    ______ ____
ROOT
ATOM      1  C   UNL     1       2.564   5.026  20.050  0.00  0.00    +0.000 C 
ENDROOT
BRANCH   1   4
ATOM      2  C   UNL     1       1.162   8.250  20.589  0.00  0.00    +0.000 A 
ATOM      3  N   UNL     1       1.343   7.004  20.962  0.00  0.00    +0.000 NA
ATOM      4  C   UNL     1       2.125   6.444  19.977  0.00  0.00    +0.000 A 
ATOM      5  C   UNL     1       2.388   7.409  19.022  0.00  0.00    +0.000 A 
ATOM      6  C   UNL     1       3.142   7.501  17.762  0.00  0.00    +0.000 C 
ATOM      7  O   UNL     1       1.767   8.561  19.406  0.00  0.00    +0.000 OA
BRANCH   2  11
ATOM      8  C   UNL     1      -1.077  11.351  22.471  0.00  0.00    +0.000 A 
ATOM      9  C   UNL     1      -0.598  11.516  21.167  0.00  0.00    +0.000 A 
ATOM     10  C   UNL     1       0.150  10.504  20.561  0.00  0.00    +0.000 A 
ATOM     11  C   UNL     1       0.424   9.314  21.247  0.00  0.00    +0.000 A 
ATOM     12  C   UNL     1      -0.038   9.164  22.559  0.00  0.00    +0.000 A 
ATOM     13  C   UNL     1      -0.788  10.172  23.164  0.00  0.00    +0.000 A 
BRANCH   8  15
ATOM     14  C   UNL     1      -2.867  13.024  22.039  0.00  0.00    +0.000 C 
ATOM     15  C   UNL     1      -1.977  12.384  23.096  0.00  0.00    +0.000 C 
ENDBRANCH   8  15
ENDBRANCH   2  11
ENDBRANCH   1   4
BRANCH   1  16
ATOM     16  S   UNL     1       1.577   3.846  19.059  0.00  0.00    +0.000 S 
ATOM     17  O   UNL     1       1.412   4.355  17.583  0.00  0.00    +0.000 OA
BRANCH  16  18
ATOM     18  C   UNL     1       2.738   2.447  19.091  0.00  0.00    +0.000 C 
BRANCH  18  19
ATOM     19  C   UNL     1       4.158   2.956  18.983  0.00  0.00    +0.000 C 
ATOM     20  O   UNL     1       5.022   2.668  19.807  0.00  0.00    +0.000 OA
ATOM     21  N   UNL     1       4.420   3.779  17.914  0.00  0.00    +0.000 N 
ATOM     22  H   UNL     1       3.702   3.980  17.231  0.00  0.00    +0.000 HD
BRANCH  21  23
ATOM     23  C   UNL     1       5.735   4.359  17.726  0.00  0.00    +0.000 C 
BRANCH  23  24
ATOM     24  C   UNL     1       6.093   4.423  16.264  0.00  0.00    +0.000 A 
ATOM     25  C   UNL     1       5.267   3.816  15.303  0.00  0.00    +0.000 A 
ATOM     26  C   UNL     1       5.603   3.868  13.950  0.00  0.00    +0.000 A 
ATOM     27  C   UNL     1       6.769   4.515  13.558  0.00  0.00    +0.000 A 
ATOM     28  F   UNL     1       7.100   4.549  12.261  0.00  0.00    +0.000 F 
ATOM     29  C   UNL     1       7.599   5.121  14.492  0.00  0.00    +0.000 A 
ATOM     30  C   UNL     1       7.263   5.074  15.847  0.00  0.00    +0.000 A 
ENDBRANCH  23  24
ENDBRANCH  21  23
ENDBRANCH  18  19
ENDBRANCH  16  18
ENDBRANCH   1  16
TORSDOF 8
ENDMDL
MODEL 5
REMARK VINA RESULT:      -7.8      1.261      1.676
REMARK  Name = 
REMARK  10 active torsions:
REMARK  status: ('A' for Active; 'I' for Inactive)
REMARK    1  A    between atoms: C_1  and  C_2
REMARK    2  A    between atoms: C_2  and  C_3
REMARK    3  A    between atoms: C_6  and  C_7
REMARK    4  A    between atoms: C_9  and  C_10
REMARK    5  A    between atoms: C_10  and  S_11
REMARK    6  A    between atoms: S_11  and  C_13
REMARK    7  A    between atoms: C_13  and  C_14
REMARK    8  A    between atoms: N_16  and  C_17
REMARK    9  A    between atoms: C_17  and  C_18
REMARK   10  A    between atoms: C_25  and  C_26
REMARK                            x       y       z     vdW  Elec       q    Type
REMARK                         _______ _______ _______ _____ _____    ______ ____
ROOT
ATOM      1  C   UNL     1       2.683   5.500  20.317  0.00  0.00    +0.000 C 
ENDROOT
BRANCH   1   4
ATOM      2  C   UNL     1       0.945   8.585  20.657  0.00  0.00    +0.000 A 
ATOM      3  N   UNL     1       1.266   7.397  21.113  0.00  0.00    +0.000 NA
ATOM      4  C   UNL     1       2.092   6.854  20.154  0.00  0.00    +0.000 A 
ATOM      5  C   UNL     1       2.235   7.771  19.128  0.00  0.00    +0.000 A 
ATOM      6  C   UNL     1       2.958   7.852  17.849  0.00  0.00    +0.000 C 
ATOM      7  O   UNL     1       1.497   8.874  19.444  0.00  0.00    +0.000 OA
BRANCH   2  11
ATOM      8  C   UNL     1      -1.448  11.626  22.447  0.00  0.00    +0.000 A 
ATOM      9  C   UNL     1      -0.968  10.560  23.215  0.00  0.00    +0.000 A 
ATOM     10  C   UNL     1      -0.199   9.557  22.621  0.00  0.00    +0.000 A 
ATOM     11  C   UNL     1       0.104   9.609  21.254  0.00  0.00    +0.000 A 
ATOM     12  C   UNL     1      -0.398  10.664  20.486  0.00  0.00    +0.000 A 
ATOM     13  C   UNL     1      -1.164  11.668  21.078  0.00  0.00    +0.000 A 
BRANCH   8  15
ATOM     14  C   UNL     1      -1.209  13.870  23.492  0.00  0.00    +0.000 C 
ATOM     15  C   UNL     1      -2.183  12.770  23.093  0.00  0.00    +0.000 C 
ENDBRANCH   8  15
ENDBRANCH   2  11
ENDBRANCH   1   4
BRANCH   1  16
ATOM     16  S   UNL     1       1.487   4.153  20.634  0.00  0.00    +0.000 S 
ATOM     17  O   UNL     1       0.792   3.697  19.302  0.00  0.00    +0.000 OA
BRANCH  16  18
ATOM     18  C   UNL     1       2.668   2.878  21.169  0.00  0.00    +0.000 C 
BRANCH  18  19
ATOM     19  C   UNL     1       3.701   2.651  20.086  0.00  0.00    +0.000 C 
ATOM     20  O   UNL     1       4.748   2.045  20.297  0.00  0.00    +0.000 OA
ATOM     21  N   UNL     1       3.403   3.181  18.854  0.00  0.00    +0.000 N 
ATOM     22  H   UNL     1       2.522   3.651  18.694  0.00  0.00    +0.000 HD
BRANCH  21  23
ATOM     23  C   UNL     1       4.332   3.060  17.748  0.00  0.00    +0.000 C 
BRANCH  23  24
ATOM     24  C   UNL     1       5.141   4.320  17.581  0.00  0.00    +0.000 A 
ATOM     25  C   UNL     1       5.023   5.089  16.411  0.00  0.00    +0.000 A 
ATOM     26  C   UNL     1       5.778   6.252  16.252  0.00  0.00    +0.000 A 
ATOM     27  C   UNL     1       6.660   6.638  17.254  0.00  0.00    +0.000 A 
ATOM     28  F   UNL     1       7.398   7.743  17.093  0.00  0.00    +0.000 F 
ATOM     29  C   UNL     1       6.792   5.890  18.417  0.00  0.00    +0.000 A 
ATOM     30  C   UNL     1       6.034   4.729  18.581  0.00  0.00    +0.000 A 
ENDBRANCH  23  24
ENDBRANCH  21  23
ENDBRANCH  18  19
ENDBRANCH  16  18
ENDBRANCH   1  16
TORSDOF 8
ENDMDL
MODEL 6
REMARK VINA RESULT:      -7.6      4.132      7.560
REMARK  Name = 
REMARK  10 active torsions:
REMARK  status: ('A' for Active; 'I' for Inactive)
REMARK    1  A    between atoms: C_1  and  C_2
REMARK    2  A    between atoms: C_2  and  C_3
REMARK    3  A    between atoms: C_6  and  C_7
REMARK    4  A    between atoms: C_9  and  C_10
REMARK    5  A    between atoms: C_10  and  S_11
REMARK    6  A    between atoms: S_11  and  C_13
REMARK    7  A    between atoms: C_13  and  C_14
REMARK    8  A    between atoms: N_16  and  C_17
REMARK    9  A    between atoms: C_17  and  C_18
REMARK   10  A    between atoms: C_25  and  C_26
REMARK                            x       y       z     vdW  Elec       q    Type
REMARK                         _______ _______ _______ _____ _____    ______ ____
ROOT
ATOM      1  C   UNL     1       5.630   6.445  16.936  0.00  0.00    +0.000 C 
ENDROOT
BRANCH   1   4
ATOM      2  C   UNL     1       8.057   8.768  18.104  0.00  0.00    +0.000 A 
ATOM      3  N   UNL     1       6.997   8.487  17.383  0.00  0.00    +0.000 NA
ATOM      4  C   UNL     1       6.771   7.144  17.584  0.00  0.00    +0.000 A 
ATOM      5  C   UNL     1       7.739   6.659  18.445  0.00  0.00    +0.000 A 
ATOM      6  C   UNL     1       8.076   5.372  19.073  0.00  0.00    +0.000 C 
ATOM      7  O   UNL     1       8.566   7.693  18.772  0.00  0.00    +0.000 OA
BRANCH   2  11
ATOM      8  C   UNL     1      10.001  12.520  18.672  0.00  0.00    +0.000 A 
ATOM      9  C   UNL     1       9.017  12.375  17.688  0.00  0.00    +0.000 A 
ATOM     10  C   UNL     1       8.396  11.139  17.493  0.00  0.00    +0.000 A 
ATOM     11  C   UNL     1       8.745  10.036  18.283  0.00  0.00    +0.000 A 
ATOM     12  C   UNL     1       9.745  10.181  19.250  0.00  0.00    +0.000 A 
ATOM     13  C   UNL     1      10.364  11.414  19.447  0.00  0.00    +0.000 A 
BRANCH   8  15
ATOM     14  C   UNL     1      11.926  13.715  19.697  0.00  0.00    +0.000 C 
ATOM     15  C   UNL     1      10.599  13.870  18.968  0.00  0.00    +0.000 C 
ENDBRANCH   8  15
ENDBRANCH   2  11
ENDBRANCH   1   4
BRANCH   1  16
ATOM     16  S   UNL     1       6.055   5.440  15.468  0.00  0.00    +0.000 S 
ATOM     17  O   UNL     1       7.529   5.719  15.006  0.00  0.00    +0.000 OA
BRANCH  16  18
ATOM     18  C   UNL     1       5.964   3.798  16.243  0.00  0.00    +0.000 C 
BRANCH  18  19
ATOM     19  C   UNL     1       4.838   3.769  17.253  0.00  0.00    +0.000 C 
ATOM     20  O   UNL     1       5.040   3.644  18.457  0.00  0.00    +0.000 OA
ATOM     21  N   UNL     1       3.569   3.873  16.737  0.00  0.00    +0.000 N 
ATOM     22  H   UNL     1       3.424   4.005  15.744  0.00  0.00    +0.000 HD
BRANCH  21  23
ATOM     23  C   UNL     1       2.407   3.821  17.602  0.00  0.00    +0.000 C 
BRANCH  23  24
ATOM     24  C   UNL     1       2.285   5.080  18.421  0.00  0.00    +0.000 A 
ATOM     25  C   UNL     1       2.000   5.008  19.794  0.00  0.00    +0.000 A 
ATOM     26  C   UNL     1       1.879   6.175  20.551  0.00  0.00    +0.000 A 
ATOM     27  C   UNL     1       2.029   7.410  19.934  0.00  0.00    +0.000 A 
ATOM     28  F   UNL     1       1.893   8.529  20.656  0.00  0.00    +0.000 F 
ATOM     29  C   UNL     1       2.310   7.502  18.576  0.00  0.00    +0.000 A 
ATOM     30  C   UNL     1       2.436   6.337  17.818  0.00  0.00    +0.000 A 
ENDBRANCH  23  24
ENDBRANCH  21  23
ENDBRANCH  18  19
ENDBRANCH  16  18
ENDBRANCH   1  16
TORSDOF 8
ENDMDL
MODEL 7
REMARK VINA RESULT:      -7.5      4.150      5.412
REMARK  Name = 
REMARK  10 active torsions:
REMARK  status: ('A' for Active; 'I' for Inactive)
REMARK    1  A    between atoms: C_1  and  C_2
REMARK    2  A    between atoms: C_2  and  C_3
REMARK    3  A    between atoms: C_6  and  C_7
REMARK    4  A    between atoms: C_9  and  C_10
REMARK    5  A    between atoms: C_10  and  S_11
REMARK    6  A    between atoms: S_11  and  C_13
REMARK    7  A    between atoms: C_13  and  C_14
REMARK    8  A    between atoms: N_16  and  C_17
REMARK    9  A    between atoms: C_17  and  C_18
REMARK   10  A    between atoms: C_25  and  C_26
REMARK                            x       y       z     vdW  Elec       q    Type
REMARK                         _______ _______ _______ _____ _____    ______ ____
ROOT
ATOM      1  C   UNL     1       4.914   6.256  16.644  0.00  0.00    +0.000 C 
ENDROOT
BRANCH   1   4
ATOM      2  C   UNL     1       2.450   7.420  18.931  0.00  0.00    +0.000 A 
ATOM      3  N   UNL     1       3.388   7.654  18.043  0.00  0.00    +0.000 NA
ATOM      4  C   UNL     1       3.842   6.411  17.663  0.00  0.00    +0.000 A 
ATOM      5  C   UNL     1       3.134   5.451  18.363  0.00  0.00    +0.000 A 
ATOM      6  C   UNL     1       3.092   3.982  18.436  0.00  0.00    +0.000 C 
ATOM      7  O   UNL     1       2.250   6.094  19.179  0.00  0.00    +0.000 OA
BRANCH   2  11
ATOM      8  C   UNL     1       0.078  10.196  21.132  0.00  0.00    +0.000 A 
ATOM      9  C   UNL     1       0.483   8.991  21.717  0.00  0.00    +0.000 A 
ATOM     10  C   UNL     1       1.245   8.077  20.986  0.00  0.00    +0.000 A 
ATOM     11  C   UNL     1       1.617   8.357  19.665  0.00  0.00    +0.000 A 
ATOM     12  C   UNL     1       1.190   9.553  19.077  0.00  0.00    +0.000 A 
ATOM     13  C   UNL     1       0.432  10.468  19.806  0.00  0.00    +0.000 A 
BRANCH   8  15
ATOM     14  C   UNL     1      -1.210  10.625  23.216  0.00  0.00    +0.000 C 
ATOM     15  C   UNL     1      -0.647  11.238  21.941  0.00  0.00    +0.000 C 
ENDBRANCH   8  15
ENDBRANCH   2  11
ENDBRANCH   1   4
BRANCH   1  16
ATOM     16  S   UNL     1       6.595   5.976  17.308  0.00  0.00    +0.000 S 
ATOM     17  O   UNL     1       7.335   4.849  16.502  0.00  0.00    +0.000 OA
BRANCH  16  18
ATOM     18  C   UNL     1       7.313   7.592  16.886  0.00  0.00    +0.000 C 
BRANCH  18  19
ATOM     19  C   UNL     1       8.130   8.109  18.050  0.00  0.00    +0.000 C 
ATOM     20  O   UNL     1       8.512   7.378  18.959  0.00  0.00    +0.000 OA
ATOM     21  N   UNL     1       8.405   9.455  18.037  0.00  0.00    +0.000 N 
ATOM     22  H   UNL     1       8.106  10.036  17.264  0.00  0.00    +0.000 HD
BRANCH  21  23
ATOM     23  C   UNL     1       9.148  10.073  19.117  0.00  0.00    +0.000 C 
BRANCH  23  24
ATOM     24  C   UNL     1       9.900  11.286  18.632  0.00  0.00    +0.000 A 
ATOM     25  C   UNL     1      11.295  11.363  18.784  0.00  0.00    +0.000 A 
ATOM     26  C   UNL     1      11.991  12.490  18.342  0.00  0.00    +0.000 A 
ATOM     27  C   UNL     1      11.293  13.542  17.761  0.00  0.00    +0.000 A 
ATOM     28  F   UNL     1      11.959  14.630  17.354  0.00  0.00    +0.000 F 
ATOM     29  C   UNL     1       9.914  13.484  17.603  0.00  0.00    +0.000 A 
ATOM     30  C   UNL     1       9.216  12.357  18.039  0.00  0.00    +0.000 A 
ENDBRANCH  23  24
ENDBRANCH  21  23
ENDBRANCH  18  19
ENDBRANCH  16  18
ENDBRANCH   1  16
TORSDOF 8
ENDMDL
MODEL 8
REMARK VINA RESULT:      -7.5      4.256      9.628
REMARK  Name = 
REMARK  10 active torsions:
REMARK  status: ('A' for Active; 'I' for Inactive)
REMARK    1  A    between atoms: C_1  and  C_2
REMARK    2  A    between atoms: C_2  and  C_3
REMARK    3  A    between atoms: C_6  and  C_7
REMARK    4  A    between atoms: C_9  and  C_10
REMARK    5  A    between atoms: C_10  and  S_11
REMARK    6  A    between atoms: S_11  and  C_13
REMARK    7  A    between atoms: C_13  and  C_14
REMARK    8  A    between atoms: N_16  and  C_17
REMARK    9  A    between atoms: C_17  and  C_18
REMARK   10  A    between atoms: C_25  and  C_26
REMARK                            x       y       z     vdW  Elec       q    Type
REMARK                         _______ _______ _______ _____ _____    ______ ____
ROOT
ATOM      1  C   UNL     1       1.566   7.828  20.372  0.00  0.00    +0.000 C 
ENDROOT
BRANCH   1   4
ATOM      2  C   UNL     1       3.501   5.746  18.233  0.00  0.00    +0.000 A 
ATOM      3  N   UNL     1       3.003   6.920  18.541  0.00  0.00    +0.000 NA
ATOM      4  C   UNL     1       2.279   6.713  19.694  0.00  0.00    +0.000 A 
ATOM      5  C   UNL     1       2.375   5.377  20.039  0.00  0.00    +0.000 A 
ATOM      6  C   UNL     1       1.884   4.505  21.117  0.00  0.00    +0.000 C 
ATOM      7  O   UNL     1       3.149   4.756  19.103  0.00  0.00    +0.000 OA
BRANCH   2  11
ATOM      8  C   UNL     1       5.932   4.604  14.922  0.00  0.00    +0.000 A 
ATOM      9  C   UNL     1       5.417   3.635  15.789  0.00  0.00    +0.000 A 
ATOM     10  C   UNL     1       4.635   4.014  16.882  0.00  0.00    +0.000 A 
ATOM     11  C   UNL     1       4.355   5.366  17.120  0.00  0.00    +0.000 A 
ATOM     12  C   UNL     1       4.892   6.333  16.264  0.00  0.00    +0.000 A 
ATOM     13  C   UNL     1       5.670   5.955  15.170  0.00  0.00    +0.000 A 
BRANCH   8  15
ATOM     14  C   UNL     1       5.740   3.549  12.678  0.00  0.00    +0.000 C 
ATOM     15  C   UNL     1       6.681   4.204  13.679  0.00  0.00    +0.000 C 
ENDBRANCH   8  15
ENDBRANCH   2  11
ENDBRANCH   1   4
BRANCH   1  16
ATOM     16  S   UNL     1       1.631   9.440  19.511  0.00  0.00    +0.000 S 
ATOM     17  O   UNL     1       0.737   9.422  18.220  0.00  0.00    +0.000 OA
BRANCH  16  18
ATOM     18  C   UNL     1       0.825  10.450  20.791  0.00  0.00    +0.000 C 
BRANCH  18  19
ATOM     19  C   UNL     1      -0.048  11.501  20.140  0.00  0.00    +0.000 C 
ATOM     20  O   UNL     1       0.380  12.611  19.837  0.00  0.00    +0.000 OA
ATOM     21  N   UNL     1      -1.357  11.143  19.925  0.00  0.00    +0.000 N 
ATOM     22  H   UNL     1      -1.682  10.213  20.156  0.00  0.00    +0.000 HD
BRANCH  21  23
ATOM     23  C   UNL     1      -2.298  12.079  19.343  0.00  0.00    +0.000 C 
BRANCH  23  24
ATOM     24  C   UNL     1      -2.843  11.556  18.039  0.00  0.00    +0.000 A 
ATOM     25  C   UNL     1      -4.204  11.710  17.727  0.00  0.00    +0.000 A 
ATOM     26  C   UNL     1      -4.712  11.219  16.523  0.00  0.00    +0.000 A 
ATOM     27  C   UNL     1      -3.864  10.564  15.639  0.00  0.00    +0.000 A 
ATOM     28  F   UNL     1      -4.355  10.076  14.493  0.00  0.00    +0.000 F 
ATOM     29  C   UNL     1      -2.516  10.401  15.930  0.00  0.00    +0.000 A 
ATOM     30  C   UNL     1      -2.004  10.895  17.131  0.00  0.00    +0.000 A 
ENDBRANCH  23  24
ENDBRANCH  21  23
ENDBRANCH  18  19
ENDBRANCH  16  18
ENDBRANCH   1  16
TORSDOF 8
ENDMDL
MODEL 9
REMARK VINA RESULT:      -7.5      4.133      5.534
REMARK  Name = 
REMARK  10 active torsions:
REMARK  status: ('A' for Active; 'I' for Inactive)
REMARK    1  A    between atoms: C_1  and  C_2
REMARK    2  A    between atoms: C_2  and  C_3
REMARK    3  A    between atoms: C_6  and  C_7
REMARK    4  A    between atoms: C_9  and  C_10
REMARK    5  A    between atoms: C_10  and  S_11
REMARK    6  A    between atoms: S_11  and  C_13
REMARK    7  A    between atoms: C_13  and  C_14
REMARK    8  A    between atoms: N_16  and  C_17
REMARK    9  A    between atoms: C_17  and  C_18
REMARK   10  A    between atoms: C_25  and  C_26
REMARK                            x       y       z     vdW  Elec       q    Type
REMARK                         _______ _______ _______ _____ _____    ______ ____
ROOT
ATOM      1  C   UNL     1       5.195   5.998  16.410  0.00  0.00    +0.000 C 
ENDROOT
BRANCH   1   4
ATOM      2  C   UNL     1       2.761   7.361  18.618  0.00  0.00    +0.000 A 
ATOM      3  N   UNL     1       3.522   7.460  17.553  0.00  0.00    +0.000 NA
ATOM      4  C   UNL     1       4.224   6.276  17.501  0.00  0.00    +0.000 A 
ATOM      5  C   UNL     1       3.842   5.491  18.574  0.00  0.00    +0.000 A 
ATOM      6  C   UNL     1       4.165   4.156  19.101  0.00  0.00    +0.000 C 
ATOM      7  O   UNL     1       2.914   6.185  19.293  0.00  0.00    +0.000 OA
BRANCH   2  11
ATOM      8  C   UNL     1       0.016  10.184  20.252  0.00  0.00    +0.000 A 
ATOM      9  C   UNL     1       0.543   9.164  21.052  0.00  0.00    +0.000 A 
ATOM     10  C   UNL     1       1.428   8.231  20.508  0.00  0.00    +0.000 A 
ATOM     11  C   UNL     1       1.802   8.308  19.160  0.00  0.00    +0.000 A 
ATOM     12  C   UNL     1       1.255   9.316  18.359  0.00  0.00    +0.000 A 
ATOM     13  C   UNL     1       0.373  10.250  18.902  0.00  0.00    +0.000 A 
BRANCH   8  15
ATOM     14  C   UNL     1      -1.383  12.180  19.760  0.00  0.00    +0.000 C 
ATOM     15  C   UNL     1      -0.850  11.261  20.850  0.00  0.00    +0.000 C 
ENDBRANCH   8  15
ENDBRANCH   2  11
ENDBRANCH   1   4
BRANCH   1  16
ATOM     16  S   UNL     1       6.924   5.736  16.946  0.00  0.00    +0.000 S 
ATOM     17  O   UNL     1       7.699   4.837  15.917  0.00  0.00    +0.000 OA
BRANCH  16  18
ATOM     18  C   UNL     1       7.503   7.454  16.805  0.00  0.00    +0.000 C 
BRANCH  18  19
ATOM     19  C   UNL     1       8.139   7.889  18.107  0.00  0.00    +0.000 C 
ATOM     20  O   UNL     1       8.355   7.103  19.026  0.00  0.00    +0.000 OA
ATOM     21  N   UNL     1       8.445   9.225  18.207  0.00  0.00    +0.000 N 
ATOM     22  H   UNL     1       8.286   9.850  17.427  0.00  0.00    +0.000 HD
BRANCH  21  23
ATOM     23  C   UNL     1       9.024   9.767  19.420  0.00  0.00    +0.000 C 
BRANCH  23  24
ATOM     24  C   UNL     1       9.896  10.958  19.118  0.00  0.00    +0.000 A 
ATOM     25  C   UNL     1      10.098  11.371  17.790  0.00  0.00    +0.000 A 
ATOM     26  C   UNL     1      10.912  12.469  17.510  0.00  0.00    +0.000 A 
ATOM     27  C   UNL     1      11.534  13.145  18.552  0.00  0.00    +0.000 A 
ATOM     28  F   UNL     1      12.330  14.187  18.281  0.00  0.00    +0.000 F 
ATOM     29  C   UNL     1      11.348  12.751  19.871  0.00  0.00    +0.000 A 
ATOM     30  C   UNL     1      10.530  11.656  20.156  0.00  0.00    +0.000 A 
ENDBRANCH  23  24
ENDBRANCH  21  23
ENDBRANCH  18  19
ENDBRANCH  16  18
ENDBRANCH   1  16
TORSDOF 8
ENDMDL
