MODEL 1
REMARK VINA RESULT:      -7.9      0.000      0.000
REMARK  Name = 
REMARK  7 active torsions:
REMARK  status: ('A' for Active; 'I' for Inactive)
REMARK    1  A    between atoms: C_1  and  S_2
REMARK    2  A    between atoms: S_2  and  C_3
REMARK    3  A    between atoms: C_6  and  C_7
REMARK    4  A    between atoms: C_7  and  N_8
REMARK    5  A    between atoms: C_9  and  C_11
REMARK    6  A    between atoms: C_11  and  C_12
REMARK    7  A    between atoms: C_12  and  C_13
REMARK                            x       y       z     vdW  Elec       q    Type
REMARK                         _______ _______ _______ _____ _____    ______ ____
ROOT
ATOM      1  N   UNL     1       3.833   7.330  17.815  0.00  0.00    +0.000 N 
ATOM      2  C   UNL     1       4.824   6.918  16.957  0.00  0.00    +0.000 C 
ATOM      3  O   UNL     1       4.806   7.130  15.750  0.00  0.00    +0.000 OA
ATOM      4  H   UNL     1       3.898   7.110  18.803  0.00  0.00    +0.000 HD
ENDROOT
BRANCH   1   5
ATOM      5  C   UNL     1       2.684   8.084  17.363  0.00  0.00    +0.000 C 
BRANCH   5   9
ATOM      6  C   UNL     1       0.479   9.950  20.579  0.00  0.00    +0.000 A 
ATOM      7  C   UNL     1       0.613  10.602  19.351  0.00  0.00    +0.000 A 
ATOM      8  C   UNL     1       1.342  10.011  18.313  0.00  0.00    +0.000 A 
ATOM      9  C   UNL     1       1.947   8.760  18.491  0.00  0.00    +0.000 A 
ATOM     10  C   UNL     1       1.841   8.131  19.741  0.00  0.00    +0.000 A 
ATOM     11  C   UNL     1       1.110   8.720  20.776  0.00  0.00    +0.000 A 
BRANCH   6  13
ATOM     12  C   UNL     1      -0.096   9.504  23.204  0.00  0.00    +0.000 C 
ATOM     13  S   UNL     1      -0.491  10.680  21.883  0.00  0.00    +0.000 S 
ENDBRANCH   6  13
ENDBRANCH   5   9
ENDBRANCH   1   5
BRANCH   2  14
ATOM     14  C   UNL     1       5.952   6.190  17.666  0.00  0.00    +0.000 C 
BRANCH  14  15
ATOM     15  C   UNL     1       6.054   4.682  17.377  0.00  0.00    +0.000 C 
ATOM     16  C   UNL     1       7.035   4.403  16.236  0.00  0.00    +0.000 C 
ATOM     17  C   UNL     1       4.752   3.919  17.193  0.00  0.00    +0.000 C 
ATOM     18  C   UNL     1       4.267   3.656  18.618  0.00  0.00    +0.000 C 
ATOM     19  C   UNL     1       3.824   2.202  18.852  0.00  0.00    +0.000 C 
ATOM     20  C   UNL     1       2.511   1.867  18.144  0.00  0.00    +0.000 C 
ATOM     21  C   UNL     1       1.398   2.841  18.526  0.00  0.00    +0.000 C 
ATOM     22  C   UNL     1       1.815   4.294  18.326  0.00  0.00    +0.000 C 
ATOM     23  C   UNL     1       3.130   4.602  19.038  0.00  0.00    +0.000 C 
ATOM     24  O   UNL     1       5.406   3.926  19.461  0.00  0.00    +0.000 OA
ATOM     25  O   UNL     1       6.567   4.047  18.563  0.00  0.00    +0.000 OA
ENDBRANCH  14  15
ENDBRANCH   2  14
TORSDOF 5
ENDMDL
MODEL 2
REMARK VINA RESULT:      -7.9      0.667      1.190
REMARK  Name = 
REMARK  7 active torsions:
REMARK  status: ('A' for Active; 'I' for Inactive)
REMARK    1  A    between atoms: C_1  and  S_2
REMARK    2  A    between atoms: S_2  and  C_3
REMARK    3  A    between atoms: C_6  and  C_7
REMARK    4  A    between atoms: C_7  and  N_8
REMARK    5  A    between atoms: C_9  and  C_11
REMARK    6  A    between atoms: C_11  and  C_12
REMARK    7  A    between atoms: C_12  and  C_13
REMARK                            x       y       z     vdW  Elec       q    Type
REMARK                         _______ _______ _______ _____ _____    ______ ____
ROOT
ATOM      1  N   UNL     1       3.764   7.376  18.037  0.00  0.00    +0.000 N 
ATOM      2  C   UNL     1       4.658   6.954  17.082  0.00  0.00    +0.000 C 
ATOM      3  O   UNL     1       4.530   7.187  15.886  0.00  0.00    +0.000 OA
ATOM      4  H   UNL     1       3.917   7.139  19.010  0.00  0.00    +0.000 HD
ENDROOT
BRANCH   1   5
ATOM      5  C   UNL     1       2.596   8.165  17.707  0.00  0.00    +0.000 C 
BRANCH   5   9
ATOM      6  C   UNL     1       0.397   9.404  21.217  0.00  0.00    +0.000 A 
ATOM      7  C   UNL     1       1.156   8.232  21.243  0.00  0.00    +0.000 A 
ATOM      8  C   UNL     1       1.854   7.816  20.103  0.00  0.00    +0.000 A 
ATOM      9  C   UNL     1       1.801   8.569  18.922  0.00  0.00    +0.000 A 
ATOM     10  C   UNL     1       1.004   9.722  18.893  0.00  0.00    +0.000 A 
ATOM     11  C   UNL     1       0.309  10.139  20.032  0.00  0.00    +0.000 A 
BRANCH   6  13
ATOM     12  C   UNL     1      -0.899  11.623  22.121  0.00  0.00    +0.000 C 
ATOM     13  S   UNL     1      -0.451   9.959  22.682  0.00  0.00    +0.000 S 
ENDBRANCH   6  13
ENDBRANCH   5   9
ENDBRANCH   1   5
BRANCH   2  14
ATOM     14  C   UNL     1       5.830   6.189  17.671  0.00  0.00    +0.000 C 
BRANCH  14  15
ATOM     15  C   UNL     1       5.913   4.702  17.281  0.00  0.00    +0.000 C 
ATOM     16  C   UNL     1       6.839   4.497  16.080  0.00  0.00    +0.000 C 
ATOM     17  C   UNL     1       4.601   3.953  17.109  0.00  0.00    +0.000 C 
ATOM     18  C   UNL     1       4.182   3.599  18.536  0.00  0.00    +0.000 C 
ATOM     19  C   UNL     1       3.744   2.133  18.697  0.00  0.00    +0.000 C 
ATOM     20  C   UNL     1       2.399   1.846  18.030  0.00  0.00    +0.000 C 
ATOM     21  C   UNL     1       1.309   2.793  18.525  0.00  0.00    +0.000 C 
ATOM     22  C   UNL     1       1.721   4.256  18.399  0.00  0.00    +0.000 C 
ATOM     23  C   UNL     1       3.068   4.518  19.067  0.00  0.00    +0.000 C 
ATOM     24  O   UNL     1       5.359   3.815  19.340  0.00  0.00    +0.000 OA
ATOM     25  O   UNL     1       6.477   3.993  18.400  0.00  0.00    +0.000 OA
ENDBRANCH  14  15
ENDBRANCH   2  14
TORSDOF 5
ENDMDL
MODEL 3
REMARK VINA RESULT:      -7.7      1.935      4.156
REMARK  Name = 
REMARK  7 active torsions:
REMARK  status: ('A' for Active; 'I' for Inactive)
REMARK    1  A    between atoms: C_1  and  S_2
REMARK    2  A    between atoms: S_2  and  C_3
REMARK    3  A    between atoms: C_6  and  C_7
REMARK    4  A    between atoms: C_7  and  N_8
REMARK    5  A    between atoms: C_9  and  C_11
REMARK    6  A    between atoms: C_11  and  C_12
REMARK    7  A    between atoms: C_12  and  C_13
REMARK                            x       y       z     vdW  Elec       q    Type
REMARK                         _______ _______ _______ _____ _____    ______ ____
ROOT
ATOM      1  N   UNL     1       2.423   6.008  20.344  0.00  0.00    +0.000 N 
ATOM      2  C   UNL     1       2.491   4.644  20.497  0.00  0.00    +0.000 C 
ATOM      3  O   UNL     1       1.770   4.012  21.259  0.00  0.00    +0.000 OA
ATOM      4  H   UNL     1       3.059   6.476  19.708  0.00  0.00    +0.000 HD
ENDROOT
BRANCH   1   5
ATOM      5  C   UNL     1       1.460   6.818  21.059  0.00  0.00    +0.000 C 
BRANCH   5   9
ATOM      6  C   UNL     1       1.023  10.813  19.464  0.00  0.00    +0.000 A 
ATOM      7  C   UNL     1       1.507   9.784  18.653  0.00  0.00    +0.000 A 
ATOM      8  C   UNL     1       1.669   8.494  19.170  0.00  0.00    +0.000 A 
ATOM      9  C   UNL     1       1.348   8.217  20.506  0.00  0.00    +0.000 A 
ATOM     10  C   UNL     1       0.902   9.265  21.324  0.00  0.00    +0.000 A 
ATOM     11  C   UNL     1       0.737  10.553  20.806  0.00  0.00    +0.000 A 
BRANCH   6  13
ATOM     12  C   UNL     1       2.451  12.751  18.188  0.00  0.00    +0.000 C 
ATOM     13  S   UNL     1       0.771  12.443  18.793  0.00  0.00    +0.000 S 
ENDBRANCH   6  13
ENDBRANCH   5   9
ENDBRANCH   1   5
BRANCH   2  14
ATOM     14  C   UNL     1       3.542   4.003  19.607  0.00  0.00    +0.000 C 
BRANCH  14  15
ATOM     15  C   UNL     1       3.166   3.881  18.120  0.00  0.00    +0.000 C 
ATOM     16  C   UNL     1       2.062   2.841  17.913  0.00  0.00    +0.000 C 
ATOM     17  C   UNL     1       4.302   3.694  17.128  0.00  0.00    +0.000 C 
ATOM     18  C   UNL     1       4.851   5.104  16.916  0.00  0.00    +0.000 C 
ATOM     19  C   UNL     1       5.063   5.460  15.435  0.00  0.00    +0.000 C 
ATOM     20  C   UNL     1       6.239   4.706  14.813  0.00  0.00    +0.000 C 
ATOM     21  C   UNL     1       7.526   4.912  15.608  0.00  0.00    +0.000 C 
ATOM     22  C   UNL     1       7.344   4.588  17.087  0.00  0.00    +0.000 C 
ATOM     23  C   UNL     1       6.161   5.348  17.684  0.00  0.00    +0.000 C 
ATOM     24  O   UNL     1       3.847   5.985  17.457  0.00  0.00    +0.000 OA
ATOM     25  O   UNL     1       2.653   5.158  17.696  0.00  0.00    +0.000 OA
ENDBRANCH  14  15
ENDBRANCH   2  14
TORSDOF 5
ENDMDL
MODEL 4
REMARK VINA RESULT:      -7.6      1.972      4.222
REMARK  Name = 
REMARK  7 active torsions:
REMARK  status: ('A' for Active; 'I' for Inactive)
REMARK    1  A    between atoms: C_1  and  S_2
REMARK    2  A    between atoms: S_2  and  C_3
REMARK    3  A    between atoms: C_6  and  C_7
REMARK    4  A    between atoms: C_7  and  N_8
REMARK    5  A    between atoms: C_9  and  C_11
REMARK    6  A    between atoms: C_11  and  C_12
REMARK    7  A    between atoms: C_12  and  C_13
REMARK                            x       y       z     vdW  Elec       q    Type
REMARK                         _______ _______ _______ _____ _____    ______ ____
ROOT
ATOM      1  N   UNL     1       2.269   6.616  20.345  0.00  0.00    +0.000 N 
ATOM      2  C   UNL     1       2.263   5.243  20.408  0.00  0.00    +0.000 C 
ATOM      3  O   UNL     1       1.500   4.602  21.121  0.00  0.00    +0.000 OA
ATOM      4  H   UNL     1       2.936   7.090  19.747  0.00  0.00    +0.000 HD
ENDROOT
BRANCH   1   5
ATOM      5  C   UNL     1       1.341   7.428  21.104  0.00  0.00    +0.000 C 
BRANCH   5   9
ATOM      6  C   UNL     1       1.044  11.434  19.506  0.00  0.00    +0.000 A 
ATOM      7  C   UNL     1       0.836  11.206  20.868  0.00  0.00    +0.000 A 
ATOM      8  C   UNL     1       0.912   9.908  21.387  0.00  0.00    +0.000 A 
ATOM      9  C   UNL     1       1.197   8.822  20.548  0.00  0.00    +0.000 A 
ATOM     10  C   UNL     1       1.363   9.056  19.175  0.00  0.00    +0.000 A 
ATOM     11  C   UNL     1       1.291  10.352  18.658  0.00  0.00    +0.000 A 
BRANCH   6  13
ATOM     12  C   UNL     1      -0.673  13.057  18.149  0.00  0.00    +0.000 C 
ATOM     13  S   UNL     1       0.996  13.091  18.855  0.00  0.00    +0.000 S 
ENDBRANCH   6  13
ENDBRANCH   5   9
ENDBRANCH   1   5
BRANCH   2  14
ATOM     14  C   UNL     1       3.289   4.607  19.488  0.00  0.00    +0.000 C 
BRANCH  14  15
ATOM     15  C   UNL     1       2.950   4.649  17.988  0.00  0.00    +0.000 C 
ATOM     16  C   UNL     1       1.667   3.870  17.688  0.00  0.00    +0.000 C 
ATOM     17  C   UNL     1       4.061   4.292  17.012  0.00  0.00    +0.000 C 
ATOM     18  C   UNL     1       4.890   5.571  16.904  0.00  0.00    +0.000 C 
ATOM     19  C   UNL     1       5.223   5.961  15.454  0.00  0.00    +0.000 C 
ATOM     20  C   UNL     1       6.245   5.022  14.813  0.00  0.00    +0.000 C 
ATOM     21  C   UNL     1       7.517   4.915  15.651  0.00  0.00    +0.000 C 
ATOM     22  C   UNL     1       7.220   4.550  17.101  0.00  0.00    +0.000 C 
ATOM     23  C   UNL     1       6.194   5.498  17.717  0.00  0.00    +0.000 C 
ATOM     24  O   UNL     1       4.066   6.606  17.477  0.00  0.00    +0.000 OA
ATOM     25  O   UNL     1       2.722   6.026  17.634  0.00  0.00    +0.000 OA
ENDBRANCH  14  15
ENDBRANCH   2  14
TORSDOF 5
ENDMDL
MODEL 5
REMARK VINA RESULT:      -7.6      2.051      4.223
REMARK  Name = 
REMARK  7 active torsions:
REMARK  status: ('A' for Active; 'I' for Inactive)
REMARK    1  A    between atoms: C_1  and  S_2
REMARK    2  A    between atoms: S_2  and  C_3
REMARK    3  A    between atoms: C_6  and  C_7
REMARK    4  A    between atoms: C_7  and  N_8
REMARK    5  A    between atoms: C_9  and  C_11
REMARK    6  A    between atoms: C_11  and  C_12
REMARK    7  A    between atoms: C_12  and  C_13
REMARK                            x       y       z     vdW  Elec       q    Type
REMARK                         _______ _______ _______ _____ _____    ______ ____
ROOT
ATOM      1  N   UNL     1       2.329   6.911  20.464  0.00  0.00    +0.000 N 
ATOM      2  C   UNL     1       2.282   5.537  20.446  0.00  0.00    +0.000 C 
ATOM      3  O   UNL     1       1.490   4.878  21.110  0.00  0.00    +0.000 OA
ATOM      4  H   UNL     1       3.018   7.399  19.903  0.00  0.00    +0.000 HD
ENDROOT
BRANCH   1   5
ATOM      5  C   UNL     1       1.414   7.704  21.257  0.00  0.00    +0.000 C 
BRANCH   5   9
ATOM      6  C   UNL     1      -0.309  10.998  19.050  0.00  0.00    +0.000 A 
ATOM      7  C   UNL     1       0.718  10.238  18.486  0.00  0.00    +0.000 A 
ATOM      8  C   UNL     1       1.292   9.183  19.204  0.00  0.00    +0.000 A 
ATOM      9  C   UNL     1       0.846   8.876  20.497  0.00  0.00    +0.000 A 
ATOM     10  C   UNL     1      -0.157   9.670  21.070  0.00  0.00    +0.000 A 
ATOM     11  C   UNL     1      -0.733  10.722  20.352  0.00  0.00    +0.000 A 
BRANCH   6  13
ATOM     12  C   UNL     1      -2.735  11.602  17.968  0.00  0.00    +0.000 C 
ATOM     13  S   UNL     1      -1.073  12.309  18.117  0.00  0.00    +0.000 S 
ENDBRANCH   6  13
ENDBRANCH   5   9
ENDBRANCH   1   5
BRANCH   2  14
ATOM     14  C   UNL     1       3.302   4.926  19.503  0.00  0.00    +0.000 C 
BRANCH  14  15
ATOM     15  C   UNL     1       2.933   4.968  18.010  0.00  0.00    +0.000 C 
ATOM     16  C   UNL     1       1.588   4.285  17.753  0.00  0.00    +0.000 C 
ATOM     17  C   UNL     1       3.990   4.510  17.018  0.00  0.00    +0.000 C 
ATOM     18  C   UNL     1       4.913   5.718  16.867  0.00  0.00    +0.000 C 
ATOM     19  C   UNL     1       5.241   6.056  15.403  0.00  0.00    +0.000 C 
ATOM     20  C   UNL     1       6.172   5.029  14.759  0.00  0.00    +0.000 C 
ATOM     21  C   UNL     1       7.452   4.839  15.570  0.00  0.00    +0.000 C 
ATOM     22  C   UNL     1       7.161   4.524  17.033  0.00  0.00    +0.000 C 
ATOM     23  C   UNL     1       6.226   5.559  17.653  0.00  0.00    +0.000 C 
ATOM     24  O   UNL     1       4.184   6.824  17.437  0.00  0.00    +0.000 OA
ATOM     25  O   UNL     1       2.803   6.352  17.635  0.00  0.00    +0.000 OA
ENDBRANCH  14  15
ENDBRANCH   2  14
TORSDOF 5
ENDMDL
MODEL 6
REMARK VINA RESULT:      -7.2      4.945      6.104
REMARK  Name = 
REMARK  7 active torsions:
REMARK  status: ('A' for Active; 'I' for Inactive)
REMARK    1  A    between atoms: C_1  and  S_2
REMARK    2  A    between atoms: S_2  and  C_3
REMARK    3  A    between atoms: C_6  and  C_7
REMARK    4  A    between atoms: C_7  and  N_8
REMARK    5  A    between atoms: C_9  and  C_11
REMARK    6  A    between atoms: C_11  and  C_12
REMARK    7  A    between atoms: C_12  and  C_13
REMARK                            x       y       z     vdW  Elec       q    Type
REMARK                         _______ _______ _______ _____ _____    ______ ____
ROOT
ATOM      1  N   UNL     1       7.883   8.544  17.913  0.00  0.00    +0.000 N 
ATOM      2  C   UNL     1       7.543   7.216  18.018  0.00  0.00    +0.000 C 
ATOM      3  O   UNL     1       8.142   6.419  18.730  0.00  0.00    +0.000 OA
ATOM      4  H   UNL     1       7.358   9.151  17.294  0.00  0.00    +0.000 HD
ENDROOT
BRANCH   1   5
ATOM      5  C   UNL     1       8.974   9.123  18.667  0.00  0.00    +0.000 C 
BRANCH   5   9
ATOM      6  C   UNL     1       9.419  13.378  18.042  0.00  0.00    +0.000 A 
ATOM      7  C   UNL     1       8.312  12.705  17.520  0.00  0.00    +0.000 A 
ATOM      8  C   UNL     1       8.174  11.325  17.703  0.00  0.00    +0.000 A 
ATOM      9  C   UNL     1       9.142  10.600  18.410  0.00  0.00    +0.000 A 
ATOM     10  C   UNL     1      10.270  11.277  18.896  0.00  0.00    +0.000 A 
ATOM     11  C   UNL     1      10.407  12.656  18.715  0.00  0.00    +0.000 A 
BRANCH   6  13
ATOM     12  C   UNL     1      11.244  15.198  17.158  0.00  0.00    +0.000 C 
ATOM     13  S   UNL     1       9.571  15.143  17.852  0.00  0.00    +0.000 S 
ENDBRANCH   6  13
ENDBRANCH   5   9
ENDBRANCH   1   5
BRANCH   2  14
ATOM     14  C   UNL     1       6.335   6.849  17.175  0.00  0.00    +0.000 C 
BRANCH  14  15
ATOM     15  C   UNL     1       6.257   5.378  16.732  0.00  0.00    +0.000 C 
ATOM     16  C   UNL     1       7.135   5.123  15.504  0.00  0.00    +0.000 C 
ATOM     17  C   UNL     1       4.873   4.773  16.563  0.00  0.00    +0.000 C 
ATOM     18  C   UNL     1       4.446   4.411  17.985  0.00  0.00    +0.000 C 
ATOM     19  C   UNL     1       3.863   2.993  18.104  0.00  0.00    +0.000 C 
ATOM     20  C   UNL     1       2.483   2.869  17.458  0.00  0.00    +0.000 C 
ATOM     21  C   UNL     1       1.506   3.904  18.011  0.00  0.00    +0.000 C 
ATOM     22  C   UNL     1       2.063   5.321  17.927  0.00  0.00    +0.000 C 
ATOM     23  C   UNL     1       3.443   5.418  18.574  0.00  0.00    +0.000 C 
ATOM     24  O   UNL     1       5.654   4.475  18.770  0.00  0.00    +0.000 OA
ATOM     25  O   UNL     1       6.767   4.573  17.812  0.00  0.00    +0.000 OA
ENDBRANCH  14  15
ENDBRANCH   2  14
TORSDOF 5
ENDMDL
MODEL 7
REMARK VINA RESULT:      -7.2      1.898      4.007
REMARK  Name = 
REMARK  7 active torsions:
REMARK  status: ('A' for Active; 'I' for Inactive)
REMARK    1  A    between atoms: C_1  and  S_2
REMARK    2  A    between atoms: S_2  and  C_3
REMARK    3  A    between atoms: C_6  and  C_7
REMARK    4  A    between atoms: C_7  and  N_8
REMARK    5  A    between atoms: C_9  and  C_11
REMARK    6  A    between atoms: C_11  and  C_12
REMARK    7  A    between atoms: C_12  and  C_13
REMARK                            x       y       z     vdW  Elec       q    Type
REMARK                         _______ _______ _______ _____ _____    ______ ____
ROOT
ATOM      1  N   UNL     1       2.169   5.875  19.730  0.00  0.00    +0.000 N 
ATOM      2  C   UNL     1       1.671   4.606  19.548  0.00  0.00    +0.000 C 
ATOM      3  O   UNL     1       0.776   4.126  20.234  0.00  0.00    +0.000 OA
ATOM      4  H   UNL     1       2.921   6.209  19.139  0.00  0.00    +0.000 HD
ENDROOT
BRANCH   1   5
ATOM      5  C   UNL     1       1.650   6.770  20.742  0.00  0.00    +0.000 C 
BRANCH   5   9
ATOM      6  C   UNL     1       1.036  10.796  19.290  0.00  0.00    +0.000 A 
ATOM      7  C   UNL     1       1.574   9.821  18.447  0.00  0.00    +0.000 A 
ATOM      8  C   UNL     1       1.793   8.522  18.917  0.00  0.00    +0.000 A 
ATOM      9  C   UNL     1       1.476   8.181  20.239  0.00  0.00    +0.000 A 
ATOM     10  C   UNL     1       0.975   9.176  21.090  0.00  0.00    +0.000 A 
ATOM     11  C   UNL     1       0.753  10.473  20.619  0.00  0.00    +0.000 A 
BRANCH   6  13
ATOM     12  C   UNL     1       2.405  12.894  18.220  0.00  0.00    +0.000 C 
ATOM     13  S   UNL     1       0.712  12.436  18.676  0.00  0.00    +0.000 S 
ENDBRANCH   6  13
ENDBRANCH   5   9
ENDBRANCH   1   5
BRANCH   2  14
ATOM     14  C   UNL     1       2.334   3.873  18.396  0.00  0.00    +0.000 C 
BRANCH  14  15
ATOM     15  C   UNL     1       3.733   3.303  18.689  0.00  0.00    +0.000 C 
ATOM     16  C   UNL     1       3.699   2.338  19.876  0.00  0.00    +0.000 C 
ATOM     17  C   UNL     1       4.878   4.296  18.809  0.00  0.00    +0.000 C 
ATOM     18  C   UNL     1       5.261   4.604  17.362  0.00  0.00    +0.000 C 
ATOM     19  C   UNL     1       6.776   4.544  17.107  0.00  0.00    +0.000 C 
ATOM     20  C   UNL     1       7.527   5.710  17.751  0.00  0.00    +0.000 C 
ATOM     21  C   UNL     1       6.958   7.058  17.315  0.00  0.00    +0.000 C 
ATOM     22  C   UNL     1       5.452   7.142  17.536  0.00  0.00    +0.000 C 
ATOM     23  C   UNL     1       4.724   5.966  16.889  0.00  0.00    +0.000 C 
ATOM     24  O   UNL     1       4.624   3.577  16.576  0.00  0.00    +0.000 OA
ATOM     25  O   UNL     1       4.150   2.560  17.529  0.00  0.00    +0.000 OA
ENDBRANCH  14  15
ENDBRANCH   2  14
TORSDOF 5
ENDMDL
MODEL 8
REMARK VINA RESULT:      -7.2      4.144      6.949
REMARK  Name = 
REMARK  7 active torsions:
REMARK  status: ('A' for Active; 'I' for Inactive)
REMARK    1  A    between atoms: C_1  and  S_2
REMARK    2  A    between atoms: S_2  and  C_3
REMARK    3  A    between atoms: C_6  and  C_7
REMARK    4  A    between atoms: C_7  and  N_8
REMARK    5  A    between atoms: C_9  and  C_11
REMARK    6  A    between atoms: C_11  and  C_12
REMARK    7  A    between atoms: C_12  and  C_13
REMARK                            x       y       z     vdW  Elec       q    Type
REMARK                         _______ _______ _______ _____ _____    ______ ____
ROOT
ATOM      1  N   UNL     1       6.470   5.856  16.746  0.00  0.00    +0.000 N 
ATOM      2  C   UNL     1       6.554   5.195  17.948  0.00  0.00    +0.000 C 
ATOM      3  O   UNL     1       7.428   4.377  18.211  0.00  0.00    +0.000 OA
ATOM      4  H   UNL     1       5.713   6.510  16.584  0.00  0.00    +0.000 HD
ENDROOT
BRANCH   1   5
ATOM      5  C   UNL     1       7.436   5.660  15.687  0.00  0.00    +0.000 C 
BRANCH   5   9
ATOM      6  C   UNL     1       5.844   3.390  12.370  0.00  0.00    +0.000 A 
ATOM      7  C   UNL     1       7.069   4.050  12.244  0.00  0.00    +0.000 A 
ATOM      8  C   UNL     1       7.579   4.802  13.308  0.00  0.00    +0.000 A 
ATOM      9  C   UNL     1       6.870   4.903  14.512  0.00  0.00    +0.000 A 
ATOM     10  C   UNL     1       5.622   4.271  14.616  0.00  0.00    +0.000 A 
ATOM     11  C   UNL     1       5.114   3.517  13.554  0.00  0.00    +0.000 A 
BRANCH   6  13
ATOM     12  C   UNL     1       3.607   3.195  10.828  0.00  0.00    +0.000 C 
ATOM     13  S   UNL     1       5.219   2.393  11.033  0.00  0.00    +0.000 S 
ENDBRANCH   6  13
ENDBRANCH   5   9
ENDBRANCH   1   5
BRANCH   2  14
ATOM     14  C   UNL     1       5.461   5.600  18.921  0.00  0.00    +0.000 C 
BRANCH  14  15
ATOM     15  C   UNL     1       4.045   5.690  18.328  0.00  0.00    +0.000 C 
ATOM     16  C   UNL     1       3.785   7.073  17.725  0.00  0.00    +0.000 C 
ATOM     17  C   UNL     1       2.891   5.240  19.208  0.00  0.00    +0.000 C 
ATOM     18  C   UNL     1       2.893   3.717  19.079  0.00  0.00    +0.000 C 
ATOM     19  C   UNL     1       1.498   3.125  18.815  0.00  0.00    +0.000 C 
ATOM     20  C   UNL     1       0.585   3.207  20.039  0.00  0.00    +0.000 C 
ATOM     21  C   UNL     1       1.224   2.560  21.265  0.00  0.00    +0.000 C 
ATOM     22  C   UNL     1       2.619   3.110  21.542  0.00  0.00    +0.000 C 
ATOM     23  C   UNL     1       3.510   3.023  20.306  0.00  0.00    +0.000 C 
ATOM     24  O   UNL     1       3.730   3.436  17.940  0.00  0.00    +0.000 OA
ATOM     25  O   UNL     1       3.958   4.724  17.264  0.00  0.00    +0.000 OA
ENDBRANCH  14  15
ENDBRANCH   2  14
TORSDOF 5
ENDMDL
MODEL 9
REMARK VINA RESULT:      -7.2      4.159      5.405
REMARK  Name = 
REMARK  7 active torsions:
REMARK  status: ('A' for Active; 'I' for Inactive)
REMARK    1  A    between atoms: C_1  and  S_2
REMARK    2  A    between atoms: S_2  and  C_3
REMARK    3  A    between atoms: C_6  and  C_7
REMARK    4  A    between atoms: C_7  and  N_8
REMARK    5  A    between atoms: C_9  and  C_11
REMARK    6  A    between atoms: C_11  and  C_12
REMARK    7  A    between atoms: C_12  and  C_13
REMARK                            x       y       z     vdW  Elec       q    Type
REMARK                         _______ _______ _______ _____ _____    ______ ____
ROOT
ATOM      1  N   UNL     1       7.151   7.393  18.144  0.00  0.00    +0.000 N 
ATOM      2  C   UNL     1       6.897   6.731  16.966  0.00  0.00    +0.000 C 
ATOM      3  O   UNL     1       7.757   6.482  16.130  0.00  0.00    +0.000 OA
ATOM      4  H   UNL     1       6.393   7.583  18.789  0.00  0.00    +0.000 HD
ENDROOT
BRANCH   1   5
ATOM      5  C   UNL     1       8.481   7.830  18.512  0.00  0.00    +0.000 C 
BRANCH   5   9
ATOM      6  C   UNL     1       8.958  12.127  18.458  0.00  0.00    +0.000 A 
ATOM      7  C   UNL     1       9.563  11.367  19.461  0.00  0.00    +0.000 A 
ATOM      8  C   UNL     1       9.396   9.978  19.495  0.00  0.00    +0.000 A 
ATOM      9  C   UNL     1       8.620   9.331  18.524  0.00  0.00    +0.000 A 
ATOM     10  C   UNL     1       7.982  10.106  17.544  0.00  0.00    +0.000 A 
ATOM     11  C   UNL     1       8.152  11.493  17.509  0.00  0.00    +0.000 A 
BRANCH   6  13
ATOM     12  C   UNL     1       7.529  14.385  17.933  0.00  0.00    +0.000 C 
ATOM     13  S   UNL     1       9.211  13.888  18.387  0.00  0.00    +0.000 S 
ENDBRANCH   6  13
ENDBRANCH   5   9
ENDBRANCH   1   5
BRANCH   2  14
ATOM     14  C   UNL     1       5.441   6.326  16.821  0.00  0.00    +0.000 C 
BRANCH  14  15
ATOM     15  C   UNL     1       5.165   4.813  16.873  0.00  0.00    +0.000 C 
ATOM     16  C   UNL     1       5.322   4.175  15.490  0.00  0.00    +0.000 C 
ATOM     17  C   UNL     1       3.883   4.362  17.554  0.00  0.00    +0.000 C 
ATOM     18  C   UNL     1       4.218   4.394  19.044  0.00  0.00    +0.000 C 
ATOM     19  C   UNL     1       3.781   3.125  19.795  0.00  0.00    +0.000 C 
ATOM     20  C   UNL     1       2.263   3.027  19.947  0.00  0.00    +0.000 C 
ATOM     21  C   UNL     1       1.679   4.274  20.607  0.00  0.00    +0.000 C 
ATOM     22  C   UNL     1       2.112   5.553  19.899  0.00  0.00    +0.000 C 
ATOM     23  C   UNL     1       3.630   5.626  19.754  0.00  0.00    +0.000 C 
ATOM     24  O   UNL     1       5.655   4.488  19.106  0.00  0.00    +0.000 OA
ATOM     25  O   UNL     1       6.148   4.224  17.744  0.00  0.00    +0.000 OA
ENDBRANCH  14  15
ENDBRANCH   2  14
TORSDOF 5
ENDMDL
