MODEL 1
REMARK VINA RESULT:      -8.7      0.000      0.000
REMARK  Name = 
REMARK  4 active torsions:
REMARK  status: ('A' for Active; 'I' for Inactive)
REMARK    1  A    between atoms: C_1  and  C_2
REMARK    2  A    between atoms: C_6  and  C_7
REMARK    3  A    between atoms: C_7  and  N_8
REMARK    4  A    between atoms: C_14  and  C_15
REMARK                            x       y       z     vdW  Elec       q    Type
REMARK                         _______ _______ _______ _____ _____    ______ ____
ROOT
ATOM      1  N   UNL     1       1.202   6.665  20.909  0.00  0.00    +0.000 NA
ATOM      2  C   UNL     1       1.848   5.635  20.493  0.00  0.00    +0.000 C 
ATOM      3  C   UNL     1       1.227   4.268  20.557  0.00  0.00    +0.000 C 
ATOM      4  C   UNL     1       2.376   3.395  20.260  0.00  0.00    +0.000 C 
ATOM      5  O   UNL     1       2.422   2.183  20.337  0.00  0.00    +0.000 OA
ATOM      6  C   UNL     1       3.436   4.295  19.783  0.00  0.00    +0.000 C 
ATOM      7  C   UNL     1       4.501   3.803  19.129  0.00  0.00    +0.000 C 
ATOM      8  O   UNL     1       3.120   5.640  19.964  0.00  0.00    +0.000 OA
ENDROOT
BRANCH   7   9
ATOM      9  C   UNL     1       5.492   4.561  18.455  0.00  0.00    +0.000 A 
ATOM     10  C   UNL     1       6.403   5.391  19.072  0.00  0.00    +0.000 A 
ATOM     11  N   UNL     1       7.240   5.879  18.098  0.00  0.00    +0.000 N 
ATOM     12  C   UNL     1       6.890   5.364  16.879  0.00  0.00    +0.000 A 
ATOM     13  N   UNL     1       7.531   5.634  15.727  0.00  0.00    +0.000 NA
ATOM     14  C   UNL     1       6.995   4.990  14.664  0.00  0.00    +0.000 A 
ATOM     15  C   UNL     1       5.905   4.129  14.702  0.00  0.00    +0.000 A 
ATOM     16  C   UNL     1       5.281   3.881  15.926  0.00  0.00    +0.000 A 
ATOM     17  C   UNL     1       5.792   4.530  17.064  0.00  0.00    +0.000 A 
ATOM     18  H   UNL     1       8.018   6.508  18.233  0.00  0.00    +0.000 HD
ENDBRANCH   7   9
BRANCH   1  19
ATOM     19  C   UNL     1       1.864   7.964  20.958  0.00  0.00    +0.000 C 
BRANCH  19  25
ATOM     20  C   UNL     1       2.507   8.307  17.822  0.00  0.00    +0.000 C 
ATOM     21  C   UNL     1       1.449   9.025  18.595  0.00  0.00    +0.000 A 
ATOM     22  C   UNL     1       0.549   9.974  18.005  0.00  0.00    +0.000 A 
ATOM     23  C   UNL     1      -0.347  10.491  18.909  0.00  0.00    +0.000 A 
ATOM     24  S   UNL     1      -0.118   9.850  20.472  0.00  0.00    +0.000 S 
ATOM     25  C   UNL     1       1.191   8.866  19.954  0.00  0.00    +0.000 A 
ENDBRANCH  19  25
ENDBRANCH   1  19
TORSDOF 3
ENDMDL
MODEL 2
REMARK VINA RESULT:      -8.4      0.934      1.514
REMARK  Name = 
REMARK  4 active torsions:
REMARK  status: ('A' for Active; 'I' for Inactive)
REMARK    1  A    between atoms: C_1  and  C_2
REMARK    2  A    between atoms: C_6  and  C_7
REMARK    3  A    between atoms: C_7  and  N_8
REMARK    4  A    between atoms: C_14  and  C_15
REMARK                            x       y       z     vdW  Elec       q    Type
REMARK                         _______ _______ _______ _____ _____    ______ ____
ROOT
ATOM      1  N   UNL     1       1.209   6.772  20.809  0.00  0.00    +0.000 NA
ATOM      2  C   UNL     1       1.843   5.725  20.421  0.00  0.00    +0.000 C 
ATOM      3  C   UNL     1       1.200   4.370  20.503  0.00  0.00    +0.000 C 
ATOM      4  C   UNL     1       2.338   3.473  20.237  0.00  0.00    +0.000 C 
ATOM      5  O   UNL     1       2.364   2.262  20.336  0.00  0.00    +0.000 OA
ATOM      6  C   UNL     1       3.418   4.347  19.755  0.00  0.00    +0.000 C 
ATOM      7  C   UNL     1       4.482   3.826  19.123  0.00  0.00    +0.000 C 
ATOM      8  O   UNL     1       3.121   5.700  19.907  0.00  0.00    +0.000 OA
ENDROOT
BRANCH   7   9
ATOM      9  C   UNL     1       5.494   4.555  18.447  0.00  0.00    +0.000 A 
ATOM     10  C   UNL     1       6.433   5.353  19.063  0.00  0.00    +0.000 A 
ATOM     11  N   UNL     1       7.280   5.820  18.086  0.00  0.00    +0.000 N 
ATOM     12  C   UNL     1       6.908   5.321  16.867  0.00  0.00    +0.000 A 
ATOM     13  N   UNL     1       7.551   5.576  15.713  0.00  0.00    +0.000 NA
ATOM     14  C   UNL     1       6.990   4.953  14.650  0.00  0.00    +0.000 A 
ATOM     15  C   UNL     1       5.873   4.127  14.690  0.00  0.00    +0.000 A 
ATOM     16  C   UNL     1       5.248   3.893  15.917  0.00  0.00    +0.000 A 
ATOM     17  C   UNL     1       5.785   4.521  17.054  0.00  0.00    +0.000 A 
ATOM     18  H   UNL     1       8.078   6.424  18.220  0.00  0.00    +0.000 HD
ENDBRANCH   7   9
BRANCH   1  19
ATOM     19  C   UNL     1       1.891   8.061  20.841  0.00  0.00    +0.000 C 
BRANCH  19  25
ATOM     20  C   UNL     1      -0.370   9.493  22.631  0.00  0.00    +0.000 C 
ATOM     21  C   UNL     1      -0.081   9.756  21.188  0.00  0.00    +0.000 A 
ATOM     22  C   UNL     1      -0.791  10.728  20.407  0.00  0.00    +0.000 A 
ATOM     23  C   UNL     1      -0.338  10.803  19.112  0.00  0.00    +0.000 A 
ATOM     24  S   UNL     1       0.938   9.711  18.818  0.00  0.00    +0.000 S 
ATOM     25  C   UNL     1       0.899   9.121  20.430  0.00  0.00    +0.000 A 
ENDBRANCH  19  25
ENDBRANCH   1  19
TORSDOF 3
ENDMDL
MODEL 3
REMARK VINA RESULT:      -8.2      1.058      1.423
REMARK  Name = 
REMARK  4 active torsions:
REMARK  status: ('A' for Active; 'I' for Inactive)
REMARK    1  A    between atoms: C_1  and  C_2
REMARK    2  A    between atoms: C_6  and  C_7
REMARK    3  A    between atoms: C_7  and  N_8
REMARK    4  A    between atoms: C_14  and  C_15
REMARK                            x       y       z     vdW  Elec       q    Type
REMARK                         _______ _______ _______ _____ _____    ______ ____
ROOT
ATOM      1  N   UNL     1       1.318   6.828  20.381  0.00  0.00    +0.000 NA
ATOM      2  C   UNL     1       2.060   5.797  20.189  0.00  0.00    +0.000 C 
ATOM      3  C   UNL     1       1.562   4.423  20.538  0.00  0.00    +0.000 C 
ATOM      4  C   UNL     1       2.790   3.616  20.430  0.00  0.00    +0.000 C 
ATOM      5  O   UNL     1       2.943   2.455  20.759  0.00  0.00    +0.000 OA
ATOM      6  C   UNL     1       3.774   4.489  19.774  0.00  0.00    +0.000 C 
ATOM      7  C   UNL     1       4.890   3.970  19.236  0.00  0.00    +0.000 C 
ATOM      8  O   UNL     1       3.336   5.808  19.669  0.00  0.00    +0.000 OA
ENDROOT
BRANCH   7   9
ATOM      9  C   UNL     1       5.822   4.658  18.417  0.00  0.00    +0.000 A 
ATOM     10  C   UNL     1       6.819   5.486  18.885  0.00  0.00    +0.000 A 
ATOM     11  N   UNL     1       7.556   5.895  17.799  0.00  0.00    +0.000 N 
ATOM     12  C   UNL     1       7.058   5.331  16.656  0.00  0.00    +0.000 A 
ATOM     13  N   UNL     1       7.574   5.520  15.428  0.00  0.00    +0.000 NA
ATOM     14  C   UNL     1       6.905   4.841  14.467  0.00  0.00    +0.000 A 
ATOM     15  C   UNL     1       5.801   4.022  14.671  0.00  0.00    +0.000 A 
ATOM     16  C   UNL     1       5.310   3.858  15.968  0.00  0.00    +0.000 A 
ATOM     17  C   UNL     1       5.964   4.546  17.005  0.00  0.00    +0.000 A 
ATOM     18  H   UNL     1       8.362   6.502  17.814  0.00  0.00    +0.000 HD
ENDBRANCH   7   9
BRANCH   1  19
ATOM     19  C   UNL     1       1.860   8.163  20.156  0.00  0.00    +0.000 C 
BRANCH  19  25
ATOM     20  C   UNL     1      -0.093  10.200  18.606  0.00  0.00    +0.000 C 
ATOM     21  C   UNL     1       0.035  10.046  20.087  0.00  0.00    +0.000 A 
ATOM     22  C   UNL     1      -0.740  10.803  21.028  0.00  0.00    +0.000 A 
ATOM     23  C   UNL     1      -0.461  10.476  22.333  0.00  0.00    +0.000 A 
ATOM     24  S   UNL     1       0.734   9.264  22.445  0.00  0.00    +0.000 S 
ATOM     25  C   UNL     1       0.891   9.162  20.738  0.00  0.00    +0.000 A 
ENDBRANCH  19  25
ENDBRANCH   1  19
TORSDOF 3
ENDMDL
MODEL 4
REMARK VINA RESULT:      -8.2      1.708      2.346
REMARK  Name = 
REMARK  4 active torsions:
REMARK  status: ('A' for Active; 'I' for Inactive)
REMARK    1  A    between atoms: C_1  and  C_2
REMARK    2  A    between atoms: C_6  and  C_7
REMARK    3  A    between atoms: C_7  and  N_8
REMARK    4  A    between atoms: C_14  and  C_15
REMARK                            x       y       z     vdW  Elec       q    Type
REMARK                         _______ _______ _______ _____ _____    ______ ____
ROOT
ATOM      1  N   UNL     1       1.844   5.841  19.544  0.00  0.00    +0.000 NA
ATOM      2  C   UNL     1       2.332   4.948  18.760  0.00  0.00    +0.000 C 
ATOM      3  C   UNL     1       1.573   3.682  18.479  0.00  0.00    +0.000 C 
ATOM      4  C   UNL     1       2.587   2.862  17.794  0.00  0.00    +0.000 C 
ATOM      5  O   UNL     1       2.507   1.687  17.492  0.00  0.00    +0.000 OA
ATOM      6  C   UNL     1       3.691   3.783  17.489  0.00  0.00    +0.000 C 
ATOM      7  C   UNL     1       4.632   3.442  16.592  0.00  0.00    +0.000 C 
ATOM      8  O   UNL     1       3.543   5.023  18.107  0.00  0.00    +0.000 OA
ENDROOT
BRANCH   7   9
ATOM      9  C   UNL     1       5.635   4.296  16.066  0.00  0.00    +0.000 A 
ATOM     10  C   UNL     1       6.364   5.201  16.806  0.00  0.00    +0.000 A 
ATOM     11  N   UNL     1       7.284   5.775  15.962  0.00  0.00    +0.000 N 
ATOM     12  C   UNL     1       7.165   5.242  14.707  0.00  0.00    +0.000 A 
ATOM     13  N   UNL     1       7.938   5.581  13.659  0.00  0.00    +0.000 NA
ATOM     14  C   UNL     1       7.624   4.900  12.533  0.00  0.00    +0.000 A 
ATOM     15  C   UNL     1       6.626   3.941  12.415  0.00  0.00    +0.000 A 
ATOM     16  C   UNL     1       5.857   3.624  13.536  0.00  0.00    +0.000 A 
ATOM     17  C   UNL     1       6.134   4.307  14.734  0.00  0.00    +0.000 A 
ATOM     18  H   UNL     1       7.972   6.473  16.206  0.00  0.00    +0.000 HD
ENDBRANCH   7   9
BRANCH   1  19
ATOM     19  C   UNL     1       2.646   7.004  19.906  0.00  0.00    +0.000 C 
BRANCH  19  25
ATOM     20  C   UNL     1       0.745   8.769  21.811  0.00  0.00    +0.000 C 
ATOM     21  C   UNL     1       1.032   9.020  20.367  0.00  0.00    +0.000 A 
ATOM     22  C   UNL     1       0.489  10.129  19.636  0.00  0.00    +0.000 A 
ATOM     23  C   UNL     1       0.909  10.161  18.328  0.00  0.00    +0.000 A 
ATOM     24  S   UNL     1       1.952   8.863  17.961  0.00  0.00    +0.000 S 
ATOM     25  C   UNL     1       1.855   8.240  19.558  0.00  0.00    +0.000 A 
ENDBRANCH  19  25
ENDBRANCH   1  19
TORSDOF 3
ENDMDL
MODEL 5
REMARK VINA RESULT:      -8.1      0.976      1.936
REMARK  Name = 
REMARK  4 active torsions:
REMARK  status: ('A' for Active; 'I' for Inactive)
REMARK    1  A    between atoms: C_1  and  C_2
REMARK    2  A    between atoms: C_6  and  C_7
REMARK    3  A    between atoms: C_7  and  N_8
REMARK    4  A    between atoms: C_14  and  C_15
REMARK                            x       y       z     vdW  Elec       q    Type
REMARK                         _______ _______ _______ _____ _____    ______ ____
ROOT
ATOM      1  N   UNL     1       1.258   6.175  20.781  0.00  0.00    +0.000 NA
ATOM      2  C   UNL     1       1.702   5.180  20.100  0.00  0.00    +0.000 C 
ATOM      3  C   UNL     1       0.959   3.873  20.087  0.00  0.00    +0.000 C 
ATOM      4  C   UNL     1       1.933   2.974  19.445  0.00  0.00    +0.000 C 
ATOM      5  O   UNL     1       1.862   1.765  19.334  0.00  0.00    +0.000 OA
ATOM      6  C   UNL     1       2.978   3.854  18.902  0.00  0.00    +0.000 C 
ATOM      7  C   UNL     1       3.845   3.394  17.985  0.00  0.00    +0.000 C 
ATOM      8  O   UNL     1       2.847   5.172  19.335  0.00  0.00    +0.000 OA
ENDROOT
BRANCH   7   9
ATOM      9  C   UNL     1       4.771   4.173  17.245  0.00  0.00    +0.000 A 
ATOM     10  C   UNL     1       4.729   4.358  15.881  0.00  0.00    +0.000 A 
ATOM     11  N   UNL     1       5.738   5.232  15.554  0.00  0.00    +0.000 N 
ATOM     12  C   UNL     1       6.408   5.617  16.683  0.00  0.00    +0.000 A 
ATOM     13  N   UNL     1       7.437   6.485  16.699  0.00  0.00    +0.000 NA
ATOM     14  C   UNL     1       7.917   6.707  17.944  0.00  0.00    +0.000 A 
ATOM     15  C   UNL     1       7.437   6.133  19.114  0.00  0.00    +0.000 A 
ATOM     16  C   UNL     1       6.363   5.242  19.040  0.00  0.00    +0.000 A 
ATOM     17  C   UNL     1       5.828   4.969  17.769  0.00  0.00    +0.000 A 
ATOM     18  H   UNL     1       5.962   5.574  14.630  0.00  0.00    +0.000 HD
ENDBRANCH   7   9
BRANCH   1  19
ATOM     19  C   UNL     1       2.054   7.393  20.885  0.00  0.00    +0.000 C 
BRANCH  19  25
ATOM     20  C   UNL     1       2.600   8.164  17.808  0.00  0.00    +0.000 C 
ATOM     21  C   UNL     1       1.602   8.802  18.719  0.00  0.00    +0.000 A 
ATOM     22  C   UNL     1       0.724   9.860  18.309  0.00  0.00    +0.000 A 
ATOM     23  C   UNL     1      -0.117  10.274  19.315  0.00  0.00    +0.000 A 
ATOM     24  S   UNL     1       0.140   9.404  20.758  0.00  0.00    +0.000 S 
ATOM     25  C   UNL     1       1.385   8.457  20.050  0.00  0.00    +0.000 A 
ENDBRANCH  19  25
ENDBRANCH   1  19
TORSDOF 3
ENDMDL
MODEL 6
REMARK VINA RESULT:      -7.9      1.909      2.586
REMARK  Name = 
REMARK  4 active torsions:
REMARK  status: ('A' for Active; 'I' for Inactive)
REMARK    1  A    between atoms: C_1  and  C_2
REMARK    2  A    between atoms: C_6  and  C_7
REMARK    3  A    between atoms: C_7  and  N_8
REMARK    4  A    between atoms: C_14  and  C_15
REMARK                            x       y       z     vdW  Elec       q    Type
REMARK                         _______ _______ _______ _____ _____    ______ ____
ROOT
ATOM      1  N   UNL     1       1.692   6.389  18.437  0.00  0.00    +0.000 NA
ATOM      2  C   UNL     1       2.321   5.367  17.979  0.00  0.00    +0.000 C 
ATOM      3  C   UNL     1       1.699   4.000  18.036  0.00  0.00    +0.000 C 
ATOM      4  C   UNL     1       2.835   3.131  17.684  0.00  0.00    +0.000 C 
ATOM      5  O   UNL     1       2.881   1.917  17.734  0.00  0.00    +0.000 OA
ATOM      6  C   UNL     1       3.881   4.039  17.189  0.00  0.00    +0.000 C 
ATOM      7  C   UNL     1       4.922   3.558  16.490  0.00  0.00    +0.000 C 
ATOM      8  O   UNL     1       3.574   5.381  17.408  0.00  0.00    +0.000 OA
ENDROOT
BRANCH   7   9
ATOM      9  C   UNL     1       5.893   4.328  15.799  0.00  0.00    +0.000 A 
ATOM     10  C   UNL     1       6.756   5.222  16.393  0.00  0.00    +0.000 A 
ATOM     11  N   UNL     1       7.589   5.704  15.412  0.00  0.00    +0.000 N 
ATOM     12  C   UNL     1       7.283   5.122  14.212  0.00  0.00    +0.000 A 
ATOM     13  N   UNL     1       7.932   5.369  13.059  0.00  0.00    +0.000 NA
ATOM     14  C   UNL     1       7.443   4.657  12.018  0.00  0.00    +0.000 A 
ATOM     15  C   UNL     1       6.389   3.752  12.076  0.00  0.00    +0.000 A 
ATOM     16  C   UNL     1       5.754   3.531  13.300  0.00  0.00    +0.000 A 
ATOM     17  C   UNL     1       6.217   4.250  14.416  0.00  0.00    +0.000 A 
ATOM     18  H   UNL     1       8.337   6.371  15.532  0.00  0.00    +0.000 HD
ENDBRANCH   7   9
BRANCH   1  19
ATOM     19  C   UNL     1       2.358   7.685  18.491  0.00  0.00    +0.000 C 
BRANCH  19  25
ATOM     20  C   UNL     1       1.308  10.721  18.287  0.00  0.00    +0.000 C 
ATOM     21  C   UNL     1       1.208   9.826  19.479  0.00  0.00    +0.000 A 
ATOM     22  C   UNL     1       0.592  10.222  20.712  0.00  0.00    +0.000 A 
ATOM     23  C   UNL     1       0.604   9.225  21.658  0.00  0.00    +0.000 A 
ATOM     24  S   UNL     1       1.355   7.807  21.080  0.00  0.00    +0.000 S 
ATOM     25  C   UNL     1       1.674   8.516  19.548  0.00  0.00    +0.000 A 
ENDBRANCH  19  25
ENDBRANCH   1  19
TORSDOF 3
ENDMDL
MODEL 7
REMARK VINA RESULT:      -7.9      1.305      2.382
REMARK  Name = 
REMARK  4 active torsions:
REMARK  status: ('A' for Active; 'I' for Inactive)
REMARK    1  A    between atoms: C_1  and  C_2
REMARK    2  A    between atoms: C_6  and  C_7
REMARK    3  A    between atoms: C_7  and  N_8
REMARK    4  A    between atoms: C_14  and  C_15
REMARK                            x       y       z     vdW  Elec       q    Type
REMARK                         _______ _______ _______ _____ _____    ______ ____
ROOT
ATOM      1  N   UNL     1       1.245   6.128  20.784  0.00  0.00    +0.000 NA
ATOM      2  C   UNL     1       1.701   5.142  20.099  0.00  0.00    +0.000 C 
ATOM      3  C   UNL     1       0.978   3.825  20.082  0.00  0.00    +0.000 C 
ATOM      4  C   UNL     1       1.964   2.942  19.434  0.00  0.00    +0.000 C 
ATOM      5  O   UNL     1       1.910   1.733  19.319  0.00  0.00    +0.000 OA
ATOM      6  C   UNL     1       2.994   3.840  18.893  0.00  0.00    +0.000 C 
ATOM      7  C   UNL     1       3.866   3.396  17.973  0.00  0.00    +0.000 C 
ATOM      8  O   UNL     1       2.845   5.155  19.332  0.00  0.00    +0.000 OA
ENDROOT
BRANCH   7   9
ATOM      9  C   UNL     1       4.780   4.191  17.234  0.00  0.00    +0.000 A 
ATOM     10  C   UNL     1       4.724   4.393  15.872  0.00  0.00    +0.000 A 
ATOM     11  N   UNL     1       5.723   5.279  15.547  0.00  0.00    +0.000 N 
ATOM     12  C   UNL     1       6.399   5.656  16.675  0.00  0.00    +0.000 A 
ATOM     13  N   UNL     1       7.421   6.532  16.692  0.00  0.00    +0.000 NA
ATOM     14  C   UNL     1       7.911   6.743  17.936  0.00  0.00    +0.000 A 
ATOM     15  C   UNL     1       7.445   6.151  19.104  0.00  0.00    +0.000 A 
ATOM     16  C   UNL     1       6.378   5.253  19.028  0.00  0.00    +0.000 A 
ATOM     17  C   UNL     1       5.834   4.990  17.758  0.00  0.00    +0.000 A 
ATOM     18  H   UNL     1       5.936   5.634  14.626  0.00  0.00    +0.000 HD
ENDBRANCH   7   9
BRANCH   1  19
ATOM     19  C   UNL     1       2.022   7.357  20.892  0.00  0.00    +0.000 C 
BRANCH  19  25
ATOM     20  C   UNL     1      -0.325   9.107  22.230  0.00  0.00    +0.000 C 
ATOM     21  C   UNL     1       0.201   9.244  20.838  0.00  0.00    +0.000 A 
ATOM     22  C   UNL     1      -0.283  10.221  19.905  0.00  0.00    +0.000 A 
ATOM     23  C   UNL     1       0.364  10.167  18.694  0.00  0.00    +0.000 A 
ATOM     24  S   UNL     1       1.553   8.946  18.660  0.00  0.00    +0.000 S 
ATOM     25  C   UNL     1       1.215   8.473  20.276  0.00  0.00    +0.000 A 
ENDBRANCH  19  25
ENDBRANCH   1  19
TORSDOF 3
ENDMDL
MODEL 8
REMARK VINA RESULT:      -7.8      1.281      1.507
REMARK  Name = 
REMARK  4 active torsions:
REMARK  status: ('A' for Active; 'I' for Inactive)
REMARK    1  A    between atoms: C_1  and  C_2
REMARK    2  A    between atoms: C_6  and  C_7
REMARK    3  A    between atoms: C_7  and  N_8
REMARK    4  A    between atoms: C_14  and  C_15
REMARK                            x       y       z     vdW  Elec       q    Type
REMARK                         _______ _______ _______ _____ _____    ______ ____
ROOT
ATOM      1  N   UNL     1       1.675   5.760  20.078  0.00  0.00    +0.000 NA
ATOM      2  C   UNL     1       2.187   4.855  19.324  0.00  0.00    +0.000 C 
ATOM      3  C   UNL     1       1.433   3.588  19.033  0.00  0.00    +0.000 C 
ATOM      4  C   UNL     1       2.468   2.755  18.396  0.00  0.00    +0.000 C 
ATOM      5  O   UNL     1       2.394   1.577  18.106  0.00  0.00    +0.000 OA
ATOM      6  C   UNL     1       3.587   3.669  18.118  0.00  0.00    +0.000 C 
ATOM      7  C   UNL     1       4.557   3.312  17.261  0.00  0.00    +0.000 C 
ATOM      8  O   UNL     1       3.421   4.917  18.715  0.00  0.00    +0.000 OA
ENDROOT
BRANCH   7   9
ATOM      9  C   UNL     1       5.582   4.156  16.760  0.00  0.00    +0.000 A 
ATOM     10  C   UNL     1       6.388   4.960  17.536  0.00  0.00    +0.000 A 
ATOM     11  N   UNL     1       7.302   5.555  16.700  0.00  0.00    +0.000 N 
ATOM     12  C   UNL     1       7.104   5.132  15.414  0.00  0.00    +0.000 A 
ATOM     13  N   UNL     1       7.851   5.518  14.362  0.00  0.00    +0.000 NA
ATOM     14  C   UNL     1       7.457   4.947  13.201  0.00  0.00    +0.000 A 
ATOM     15  C   UNL     1       6.405   4.051  13.051  0.00  0.00    +0.000 A 
ATOM     16  C   UNL     1       5.666   3.682  14.177  0.00  0.00    +0.000 A 
ATOM     17  C   UNL     1       6.027   4.250  15.412  0.00  0.00    +0.000 A 
ATOM     18  H   UNL     1       8.035   6.195  16.968  0.00  0.00    +0.000 HD
ENDBRANCH   7   9
BRANCH   1  19
ATOM     19  C   UNL     1       2.468   6.925  20.453  0.00  0.00    +0.000 C 
BRANCH  19  25
ATOM     20  C   UNL     1       2.707   8.156  17.489  0.00  0.00    +0.000 C 
ATOM     21  C   UNL     1       1.877   8.694  18.609  0.00  0.00    +0.000 A 
ATOM     22  C   UNL     1       1.043   9.855  18.485  0.00  0.00    +0.000 A 
ATOM     23  C   UNL     1       0.363  10.148  19.643  0.00  0.00    +0.000 A 
ATOM     24  S   UNL     1       0.718   9.039  20.889  0.00  0.00    +0.000 S 
ATOM     25  C   UNL     1       1.792   8.149  19.887  0.00  0.00    +0.000 A 
ENDBRANCH  19  25
ENDBRANCH   1  19
TORSDOF 3
ENDMDL
MODEL 9
REMARK VINA RESULT:      -7.3      3.573      8.097
REMARK  Name = 
REMARK  4 active torsions:
REMARK  status: ('A' for Active; 'I' for Inactive)
REMARK    1  A    between atoms: C_1  and  C_2
REMARK    2  A    between atoms: C_6  and  C_7
REMARK    3  A    between atoms: C_7  and  N_8
REMARK    4  A    between atoms: C_14  and  C_15
REMARK                            x       y       z     vdW  Elec       q    Type
REMARK                         _______ _______ _______ _____ _____    ______ ____
ROOT
ATOM      1  N   UNL     1       2.163   7.494  20.380  0.00  0.00    +0.000 NA
ATOM      2  C   UNL     1       1.437   8.476  20.777  0.00  0.00    +0.000 C 
ATOM      3  C   UNL     1       1.473   8.920  22.212  0.00  0.00    +0.000 C 
ATOM      4  C   UNL     1       0.325   9.841  22.278  0.00  0.00    +0.000 C 
ATOM      5  O   UNL     1      -0.157  10.352  23.269  0.00  0.00    +0.000 OA
ATOM      6  C   UNL     1      -0.072  10.068  20.880  0.00  0.00    +0.000 C 
ATOM      7  C   UNL     1      -0.874  11.098  20.561  0.00  0.00    +0.000 C 
ATOM      8  O   UNL     1       0.578   9.214  19.992  0.00  0.00    +0.000 OA
ENDROOT
BRANCH   7   9
ATOM      9  C   UNL     1      -1.180  11.543  19.249  0.00  0.00    +0.000 A 
ATOM     10  C   UNL     1      -0.636  12.658  18.650  0.00  0.00    +0.000 A 
ATOM     11  N   UNL     1      -1.116  12.709  17.364  0.00  0.00    +0.000 N 
ATOM     12  C   UNL     1      -1.941  11.642  17.130  0.00  0.00    +0.000 A 
ATOM     13  N   UNL     1      -2.553  11.396  15.957  0.00  0.00    +0.000 NA
ATOM     14  C   UNL     1      -3.304  10.271  15.981  0.00  0.00    +0.000 A 
ATOM     15  C   UNL     1      -3.460   9.422  17.071  0.00  0.00    +0.000 A 
ATOM     16  C   UNL     1      -2.797   9.723  18.263  0.00  0.00    +0.000 A 
ATOM     17  C   UNL     1      -2.007  10.885  18.296  0.00  0.00    +0.000 A 
ATOM     18  H   UNL     1      -0.896  13.404  16.666  0.00  0.00    +0.000 HD
ENDBRANCH   7   9
BRANCH   1  19
ATOM     19  C   UNL     1       2.023   6.995  19.017  0.00  0.00    +0.000 C 
BRANCH  19  25
ATOM     20  C   UNL     1       1.042   4.119  20.080  0.00  0.00    +0.000 C 
ATOM     21  C   UNL     1       2.329   4.415  19.380  0.00  0.00    +0.000 A 
ATOM     22  C   UNL     1       3.307   3.411  19.072  0.00  0.00    +0.000 A 
ATOM     23  C   UNL     1       4.400   3.919  18.412  0.00  0.00    +0.000 A 
ATOM     24  S   UNL     1       4.268   5.600  18.158  0.00  0.00    +0.000 S 
ATOM     25  C   UNL     1       2.737   5.669  18.933  0.00  0.00    +0.000 A 
ENDBRANCH  19  25
ENDBRANCH   1  19
TORSDOF 3
ENDMDL
