MODEL 1
REMARK VINA RESULT:      -3.4      0.000      0.000
REMARK  Name = 
REMARK  2 active torsions:
REMARK  status: ('A' for Active; 'I' for Inactive)
REMARK    1  A    between atoms: O_1  and  C_2
REMARK    2  A    between atoms: C_2  and  C_3
REMARK                            x       y       z     vdW  Elec       q    Type
REMARK                         _______ _______ _______ _____ _____    ______ ____
ROOT
ATOM      1  C   UNL     1       6.279   5.858  17.208  0.00  0.00    +0.000 C 
ATOM      2 CL   UNL     1       5.058   6.555  16.096  0.00  0.00    +0.000 Cl
ATOM      3 CL   UNL     1       5.469   5.528  18.783  0.00  0.00    +0.000 Cl
ATOM      4 CL   UNL     1       7.538   7.111  17.506  0.00  0.00    +0.000 Cl
ENDROOT
BRANCH   1   5
ATOM      5  C   UNL     1       6.943   4.554  16.671  0.00  0.00    +0.000 C 
BRANCH   5   6
ATOM      6  O   UNL     1       8.145   4.161  17.345  0.00  0.00    +0.000 OA
ATOM      7  H   UNL     1       8.894   4.378  16.762  0.00  0.00    +0.000 HD
ENDBRANCH   5   6
ENDBRANCH   1   5
TORSDOF 2
ENDMDL
MODEL 2
REMARK VINA RESULT:      -3.3      2.002      2.469
REMARK  Name = 
REMARK  2 active torsions:
REMARK  status: ('A' for Active; 'I' for Inactive)
REMARK    1  A    between atoms: O_1  and  C_2
REMARK    2  A    between atoms: C_2  and  C_3
REMARK                            x       y       z     vdW  Elec       q    Type
REMARK                         _______ _______ _______ _____ _____    ______ ____
ROOT
ATOM      1  C   UNL     1       6.699   5.889  17.925  0.00  0.00    +0.000 C 
ATOM      2 CL   UNL     1       5.150   6.343  17.144  0.00  0.00    +0.000 Cl
ATOM      3 CL   UNL     1       7.793   7.319  17.856  0.00  0.00    +0.000 Cl
ATOM      4 CL   UNL     1       7.457   4.587  16.938  0.00  0.00    +0.000 Cl
ENDROOT
BRANCH   1   5
ATOM      5  C   UNL     1       6.540   5.414  19.401  0.00  0.00    +0.000 C 
BRANCH   5   6
ATOM      6  O   UNL     1       7.721   5.522  20.205  0.00  0.00    +0.000 OA
ATOM      7  H   UNL     1       7.677   6.369  20.682  0.00  0.00    +0.000 HD
ENDBRANCH   5   6
ENDBRANCH   1   5
TORSDOF 2
ENDMDL
MODEL 3
REMARK VINA RESULT:      -3.3      2.003      2.404
REMARK  Name = 
REMARK  2 active torsions:
REMARK  status: ('A' for Active; 'I' for Inactive)
REMARK    1  A    between atoms: O_1  and  C_2
REMARK    2  A    between atoms: C_2  and  C_3
REMARK                            x       y       z     vdW  Elec       q    Type
REMARK                         _______ _______ _______ _____ _____    ______ ____
ROOT
ATOM      1  C   UNL     1       5.846   4.579  15.983  0.00  0.00    +0.000 C 
ATOM      2 CL   UNL     1       6.120   3.826  14.378  0.00  0.00    +0.000 Cl
ATOM      3 CL   UNL     1       4.537   3.660  16.809  0.00  0.00    +0.000 Cl
ATOM      4 CL   UNL     1       5.237   6.253  15.713  0.00  0.00    +0.000 Cl
ENDROOT
BRANCH   1   5
ATOM      5  C   UNL     1       7.118   4.615  16.883  0.00  0.00    +0.000 C 
BRANCH   5   6
ATOM      6  O   UNL     1       6.925   4.157  18.227  0.00  0.00    +0.000 OA
ATOM      7  H   UNL     1       6.111   3.624  18.242  0.00  0.00    +0.000 HD
ENDBRANCH   5   6
ENDBRANCH   1   5
TORSDOF 2
ENDMDL
MODEL 4
REMARK VINA RESULT:      -3.3      1.989      2.872
REMARK  Name = 
REMARK  2 active torsions:
REMARK  status: ('A' for Active; 'I' for Inactive)
REMARK    1  A    between atoms: O_1  and  C_2
REMARK    2  A    between atoms: C_2  and  C_3
REMARK                            x       y       z     vdW  Elec       q    Type
REMARK                         _______ _______ _______ _____ _____    ______ ____
ROOT
ATOM      1  C   UNL     1       5.832   4.634  15.996  0.00  0.00    +0.000 C 
ATOM      2 CL   UNL     1       5.226   6.296  15.705  0.00  0.00    +0.000 Cl
ATOM      3 CL   UNL     1       6.136   3.868  14.394  0.00  0.00    +0.000 Cl
ATOM      4 CL   UNL     1       4.518   3.697  16.796  0.00  0.00    +0.000 Cl
ENDROOT
BRANCH   1   5
ATOM      5  C   UNL     1       7.126   4.582  16.862  0.00  0.00    +0.000 C 
BRANCH   5   6
ATOM      6  O   UNL     1       6.931   4.181  18.224  0.00  0.00    +0.000 OA
ATOM      7  H   UNL     1       6.010   3.881  18.313  0.00  0.00    +0.000 HD
ENDBRANCH   5   6
ENDBRANCH   1   5
TORSDOF 2
ENDMDL
MODEL 5
REMARK VINA RESULT:      -3.3      1.806      2.486
REMARK  Name = 
REMARK  2 active torsions:
REMARK  status: ('A' for Active; 'I' for Inactive)
REMARK    1  A    between atoms: O_1  and  C_2
REMARK    2  A    between atoms: C_2  and  C_3
REMARK                            x       y       z     vdW  Elec       q    Type
REMARK                         _______ _______ _______ _____ _____    ______ ____
ROOT
ATOM      1  C   UNL     1       5.872   4.879  16.272  0.00  0.00    +0.000 C 
ATOM      2 CL   UNL     1       4.503   3.828  16.759  0.00  0.00    +0.000 Cl
ATOM      3 CL   UNL     1       5.212   6.517  15.916  0.00  0.00    +0.000 Cl
ATOM      4 CL   UNL     1       6.550   4.230  14.735  0.00  0.00    +0.000 Cl
ENDROOT
BRANCH   1   5
ATOM      5  C   UNL     1       6.995   4.982  17.348  0.00  0.00    +0.000 C 
BRANCH   5   6
ATOM      6  O   UNL     1       8.115   4.111  17.144  0.00  0.00    +0.000 OA
ATOM      7  H   UNL     1       8.879   4.666  16.907  0.00  0.00    +0.000 HD
ENDBRANCH   5   6
ENDBRANCH   1   5
TORSDOF 2
ENDMDL
MODEL 6
REMARK VINA RESULT:      -3.2      3.699      4.214
REMARK  Name = 
REMARK  2 active torsions:
REMARK  status: ('A' for Active; 'I' for Inactive)
REMARK    1  A    between atoms: O_1  and  C_2
REMARK    2  A    between atoms: C_2  and  C_3
REMARK                            x       y       z     vdW  Elec       q    Type
REMARK                         _______ _______ _______ _____ _____    ______ ____
ROOT
ATOM      1  C   UNL     1       3.466   3.668  17.922  0.00  0.00    +0.000 C 
ATOM      2 CL   UNL     1       4.480   4.013  16.484  0.00  0.00    +0.000 Cl
ATOM      3 CL   UNL     1       2.795   2.006  17.739  0.00  0.00    +0.000 Cl
ATOM      4 CL   UNL     1       2.075   4.812  17.907  0.00  0.00    +0.000 Cl
ENDROOT
BRANCH   1   5
ATOM      5  C   UNL     1       4.235   3.783  19.273  0.00  0.00    +0.000 C 
BRANCH   5   6
ATOM      6  O   UNL     1       5.165   2.724  19.536  0.00  0.00    +0.000 OA
ATOM      7  H   UNL     1       4.729   1.886  19.302  0.00  0.00    +0.000 HD
ENDBRANCH   5   6
ENDBRANCH   1   5
TORSDOF 2
ENDMDL
MODEL 7
REMARK VINA RESULT:      -3.2      3.589      4.058
REMARK  Name = 
REMARK  2 active torsions:
REMARK  status: ('A' for Active; 'I' for Inactive)
REMARK    1  A    between atoms: O_1  and  C_2
REMARK    2  A    between atoms: C_2  and  C_3
REMARK                            x       y       z     vdW  Elec       q    Type
REMARK                         _______ _______ _______ _____ _____    ______ ____
ROOT
ATOM      1  C   UNL     1       3.360   3.709  17.923  0.00  0.00    +0.000 C 
ATOM      2 CL   UNL     1       2.470   2.181  17.623  0.00  0.00    +0.000 Cl
ATOM      3 CL   UNL     1       2.158   5.051  17.957  0.00  0.00    +0.000 Cl
ATOM      4 CL   UNL     1       4.449   4.001  16.518  0.00  0.00    +0.000 Cl
ENDROOT
BRANCH   1   5
ATOM      5  C   UNL     1       4.186   3.704  19.244  0.00  0.00    +0.000 C 
BRANCH   5   6
ATOM      6  O   UNL     1       5.593   3.485  19.081  0.00  0.00    +0.000 OA
ATOM      7  H   UNL     1       5.774   2.555  19.304  0.00  0.00    +0.000 HD
ENDBRANCH   5   6
ENDBRANCH   1   5
TORSDOF 2
ENDMDL
MODEL 8
REMARK VINA RESULT:      -3.2      1.758      2.232
REMARK  Name = 
REMARK  2 active torsions:
REMARK  status: ('A' for Active; 'I' for Inactive)
REMARK    1  A    between atoms: O_1  and  C_2
REMARK    2  A    between atoms: C_2  and  C_3
REMARK                            x       y       z     vdW  Elec       q    Type
REMARK                         _______ _______ _______ _____ _____    ______ ____
ROOT
ATOM      1  C   UNL     1       6.441   5.850  17.505  0.00  0.00    +0.000 C 
ATOM      2 CL   UNL     1       5.115   6.529  16.507  0.00  0.00    +0.000 Cl
ATOM      3 CL   UNL     1       7.642   7.160  17.795  0.00  0.00    +0.000 Cl
ATOM      4 CL   UNL     1       7.264   4.572  16.539  0.00  0.00    +0.000 Cl
ENDROOT
BRANCH   1   5
ATOM      5  C   UNL     1       5.960   5.261  18.866  0.00  0.00    +0.000 C 
BRANCH   5   6
ATOM      6  O   UNL     1       5.943   3.830  18.937  0.00  0.00    +0.000 OA
ATOM      7  H   UNL     1       6.761   3.547  19.383  0.00  0.00    +0.000 HD
ENDBRANCH   5   6
ENDBRANCH   1   5
TORSDOF 2
ENDMDL
MODEL 9
REMARK VINA RESULT:      -3.2      1.781      2.596
REMARK  Name = 
REMARK  2 active torsions:
REMARK  status: ('A' for Active; 'I' for Inactive)
REMARK    1  A    between atoms: O_1  and  C_2
REMARK    2  A    between atoms: C_2  and  C_3
REMARK                            x       y       z     vdW  Elec       q    Type
REMARK                         _______ _______ _______ _____ _____    ______ ____
ROOT
ATOM      1  C   UNL     1       6.459   5.820  17.515  0.00  0.00    +0.000 C 
ATOM      2 CL   UNL     1       7.588   7.204  17.678  0.00  0.00    +0.000 Cl
ATOM      3 CL   UNL     1       7.292   4.534  16.568  0.00  0.00    +0.000 Cl
ATOM      4 CL   UNL     1       5.045   6.370  16.543  0.00  0.00    +0.000 Cl
ENDROOT
BRANCH   1   5
ATOM      5  C   UNL     1       5.974   5.244  18.880  0.00  0.00    +0.000 C 
BRANCH   5   6
ATOM      6  O   UNL     1       5.879   3.815  18.937  0.00  0.00    +0.000 OA
ATOM      7  H   UNL     1       5.594   3.575  19.836  0.00  0.00    +0.000 HD
ENDBRANCH   5   6
ENDBRANCH   1   5
TORSDOF 2
ENDMDL
