MODEL 1
REMARK VINA RESULT:      -8.9      0.000      0.000
REMARK  Name = 
REMARK  7 active torsions:
REMARK  status: ('A' for Active; 'I' for Inactive)
REMARK    1  A    between atoms: C_1  and  C_2
REMARK    2  A    between atoms: C_2  and  N_3
REMARK    3  A    between atoms: C_13  and  O_14
REMARK    4  A    between atoms: O_14  and  C_15
REMARK    5  A    between atoms: C_19  and  C_20
REMARK    6  A    between atoms: N_23  and  C_24
REMARK    7  A    between atoms: C_27  and  C_28
REMARK                            x       y       z     vdW  Elec       q    Type
REMARK                         _______ _______ _______ _____ _____    ______ ____
ROOT
ATOM      1  N   UNL     1      -1.640  12.493  21.361  0.00  0.00    +0.000 N 
ATOM      2  C   UNL     1      -1.314  12.354  22.762  0.00  0.00    +0.000 C 
ATOM      3  C   UNL     1      -0.770  10.947  22.849  0.00  0.00    +0.000 C 
ATOM      4  N   UNL     1      -0.313  10.663  21.507  0.00  0.00    +0.000 N 
ATOM      5  C   UNL     1       0.465   9.534  21.281  0.00  0.00    +0.000 C 
ATOM      6  O   UNL     1       0.715   8.783  22.223  0.00  0.00    +0.000 OA
ATOM      7  N   UNL     1       0.917   9.386  19.988  0.00  0.00    +0.000 N 
ATOM      8  C   UNL     1       1.663   8.282  19.556  0.00  0.00    +0.000 A 
ATOM      9  C   UNL     1       2.323   8.338  18.335  0.00  0.00    +0.000 A 
ATOM     10  C   UNL     1       3.048   7.214  17.926  0.00  0.00    +0.000 A 
ATOM     11  C   UNL     1       3.082   6.056  18.710  0.00  0.00    +0.000 A 
ATOM     12  C   UNL     1       2.426   6.099  19.945  0.00  0.00    +0.000 A 
ATOM     13  C   UNL     1       2.339   5.001  20.956  0.00  0.00    +0.000 C 
ATOM     14  N   UNL     1       1.718   7.187  20.327  0.00  0.00    +0.000 NA
ATOM     15  C   UNL     1      -0.949  11.542  20.597  0.00  0.00    +0.000 C 
ATOM     16  O   UNL     1      -0.896  11.479  19.377  0.00  0.00    +0.000 OA
ATOM     17  H   UNL     1       0.750  10.149  19.347  0.00  0.00    +0.000 HD
ENDROOT
BRANCH   1  19
ATOM     18  C   UNL     1      -3.555  13.995  21.854  0.00  0.00    +0.000 C 
ATOM     19  C   UNL     1      -2.510  13.533  20.851  0.00  0.00    +0.000 C 
ENDBRANCH   1  19
BRANCH  11  20
ATOM     20  O   UNL     1       3.843   5.037  18.184  0.00  0.00    +0.000 OA
BRANCH  20  21
ATOM     21  C   UNL     1       5.022   5.278  17.537  0.00  0.00    +0.000 A 
ATOM     22  C   UNL     1       6.093   5.980  18.075  0.00  0.00    +0.000 A 
ATOM     23  C   UNL     1       7.149   6.294  17.238  0.00  0.00    +0.000 A 
ATOM     24  N   UNL     1       7.252   5.855  15.971  0.00  0.00    +0.000 NA
ATOM     25  C   UNL     1       6.262   5.065  15.502  0.00  0.00    +0.000 A 
ATOM     26  C   UNL     1       5.133   4.755  16.252  0.00  0.00    +0.000 A 
BRANCH  25  27
ATOM     27  C   UNL     1       6.464   4.549  14.160  0.00  0.00    +0.000 A 
ATOM     28  C   UNL     1       7.411   4.937  13.185  0.00  0.00    +0.000 A 
ATOM     29  N   UNL     1       7.331   4.212  12.062  0.00  0.00    +0.000 NA
ATOM     30  N   UNL     1       6.329   3.356  12.319  0.00  0.00    +0.000 N 
ATOM     31  C   UNL     1       5.973   2.352  11.348  0.00  0.00    +0.000 C 
ATOM     32  C   UNL     1       5.759   3.528  13.546  0.00  0.00    +0.000 A 
ENDBRANCH  25  27
ENDBRANCH  20  21
ENDBRANCH  11  20
TORSDOF 4
ENDMDL
MODEL 2
REMARK VINA RESULT:      -8.5      1.127      1.986
REMARK  Name = 
REMARK  7 active torsions:
REMARK  status: ('A' for Active; 'I' for Inactive)
REMARK    1  A    between atoms: C_1  and  C_2
REMARK    2  A    between atoms: C_2  and  N_3
REMARK    3  A    between atoms: C_13  and  O_14
REMARK    4  A    between atoms: O_14  and  C_15
REMARK    5  A    between atoms: C_19  and  C_20
REMARK    6  A    between atoms: N_23  and  C_24
REMARK    7  A    between atoms: C_27  and  C_28
REMARK                            x       y       z     vdW  Elec       q    Type
REMARK                         _______ _______ _______ _____ _____    ______ ____
ROOT
ATOM      1  N   UNL     1      -1.390  12.403  22.084  0.00  0.00    +0.000 N 
ATOM      2  C   UNL     1      -1.905  12.792  20.791  0.00  0.00    +0.000 C 
ATOM      3  C   UNL     1      -0.965  12.106  19.827  0.00  0.00    +0.000 C 
ATOM      4  N   UNL     1      -0.425  11.001  20.588  0.00  0.00    +0.000 N 
ATOM      5  C   UNL     1       0.299  10.015  19.930  0.00  0.00    +0.000 C 
ATOM      6  O   UNL     1       0.496  10.126  18.721  0.00  0.00    +0.000 OA
ATOM      7  N   UNL     1       0.708   8.965  20.723  0.00  0.00    +0.000 N 
ATOM      8  C   UNL     1       1.499   7.910  20.251  0.00  0.00    +0.000 A 
ATOM      9  C   UNL     1       1.627   6.756  21.016  0.00  0.00    +0.000 A 
ATOM     10  C   UNL     1       2.435   5.726  20.523  0.00  0.00    +0.000 A 
ATOM     11  C   UNL     1       3.117   5.864  19.310  0.00  0.00    +0.000 A 
ATOM     12  C   UNL     1       2.899   7.040  18.583  0.00  0.00    +0.000 A 
ATOM     13  C   UNL     1       3.498   7.404  17.262  0.00  0.00    +0.000 C 
ATOM     14  N   UNL     1       2.125   8.035  19.072  0.00  0.00    +0.000 NA
ATOM     15  C   UNL     1      -0.588  11.259  21.971  0.00  0.00    +0.000 C 
ATOM     16  O   UNL     1      -0.118  10.599  22.888  0.00  0.00    +0.000 OA
ATOM     17  H   UNL     1       0.361   8.935  21.670  0.00  0.00    +0.000 HD
ENDROOT
BRANCH   1  19
ATOM     18  C   UNL     1      -1.028  14.419  23.487  0.00  0.00    +0.000 C 
ATOM     19  C   UNL     1      -1.739  13.087  23.312  0.00  0.00    +0.000 C 
ENDBRANCH   1  19
BRANCH  11  20
ATOM     20  O   UNL     1       3.864   4.766  18.951  0.00  0.00    +0.000 OA
BRANCH  20  21
ATOM     21  C   UNL     1       5.087   4.888  18.357  0.00  0.00    +0.000 A 
ATOM     22  C   UNL     1       6.254   5.263  19.012  0.00  0.00    +0.000 A 
ATOM     23  C   UNL     1       7.377   5.515  18.244  0.00  0.00    +0.000 A 
ATOM     24  N   UNL     1       7.437   5.298  16.918  0.00  0.00    +0.000 NA
ATOM     25  C   UNL     1       6.332   4.810  16.315  0.00  0.00    +0.000 A 
ATOM     26  C   UNL     1       5.141   4.592  16.998  0.00  0.00    +0.000 A 
BRANCH  25  27
ATOM     27  C   UNL     1       6.477   4.513  14.901  0.00  0.00    +0.000 A 
ATOM     28  C   UNL     1       7.421   5.013  13.974  0.00  0.00    +0.000 A 
ATOM     29  N   UNL     1       7.279   4.487  12.751  0.00  0.00    +0.000 NA
ATOM     30  N   UNL     1       6.240   3.649  12.894  0.00  0.00    +0.000 N 
ATOM     31  C   UNL     1       5.811   2.837  11.783  0.00  0.00    +0.000 C 
ATOM     32  C   UNL     1       5.707   3.643  14.150  0.00  0.00    +0.000 A 
ENDBRANCH  25  27
ENDBRANCH  20  21
ENDBRANCH  11  20
TORSDOF 4
ENDMDL
MODEL 3
REMARK VINA RESULT:      -8.4      3.595     11.372
REMARK  Name = 
REMARK  7 active torsions:
REMARK  status: ('A' for Active; 'I' for Inactive)
REMARK    1  A    between atoms: C_1  and  C_2
REMARK    2  A    between atoms: C_2  and  N_3
REMARK    3  A    between atoms: C_13  and  O_14
REMARK    4  A    between atoms: O_14  and  C_15
REMARK    5  A    between atoms: C_19  and  C_20
REMARK    6  A    between atoms: N_23  and  C_24
REMARK    7  A    between atoms: C_27  and  C_28
REMARK                            x       y       z     vdW  Elec       q    Type
REMARK                         _______ _______ _______ _____ _____    ______ ____
ROOT
ATOM      1  N   UNL     1       3.097   4.332  19.139  0.00  0.00    +0.000 N 
ATOM      2  C   UNL     1       3.998   4.898  18.161  0.00  0.00    +0.000 C 
ATOM      3  C   UNL     1       3.395   6.256  17.886  0.00  0.00    +0.000 C 
ATOM      4  N   UNL     1       2.624   6.547  19.075  0.00  0.00    +0.000 N 
ATOM      5  C   UNL     1       2.124   7.830  19.262  0.00  0.00    +0.000 C 
ATOM      6  O   UNL     1       2.318   8.678  18.392  0.00  0.00    +0.000 OA
ATOM      7  N   UNL     1       1.469   8.032  20.457  0.00  0.00    +0.000 N 
ATOM      8  C   UNL     1       0.847   9.240  20.796  0.00  0.00    +0.000 A 
ATOM      9  C   UNL     1       0.465   9.465  22.114  0.00  0.00    +0.000 A 
ATOM     10  C   UNL     1      -0.166  10.677  22.418  0.00  0.00    +0.000 A 
ATOM     11  C   UNL     1      -0.432  11.620  21.420  0.00  0.00    +0.000 A 
ATOM     12  C   UNL     1       0.024  11.332  20.129  0.00  0.00    +0.000 A 
ATOM     13  C   UNL     1      -0.124  12.187  18.912  0.00  0.00    +0.000 C 
ATOM     14  N   UNL     1       0.624  10.154  19.842  0.00  0.00    +0.000 NA
ATOM     15  C   UNL     1       2.350   5.340  19.764  0.00  0.00    +0.000 C 
ATOM     16  O   UNL     1       1.604   5.213  20.726  0.00  0.00    +0.000 OA
ATOM     17  H   UNL     1       1.502   7.286  21.137  0.00  0.00    +0.000 HD
ENDROOT
BRANCH   1  19
ATOM     18  C   UNL     1       1.995   2.156  18.672  0.00  0.00    +0.000 C 
ATOM     19  C   UNL     1       3.056   2.918  19.450  0.00  0.00    +0.000 C 
ENDBRANCH   1  19
BRANCH  11  20
ATOM     20  O   UNL     1      -1.048  12.764  21.872  0.00  0.00    +0.000 OA
BRANCH  20  21
ATOM     21  C   UNL     1      -2.356  12.772  22.265  0.00  0.00    +0.000 A 
ATOM     22  C   UNL     1      -2.787  12.872  23.582  0.00  0.00    +0.000 A 
ATOM     23  C   UNL     1      -4.135  12.688  23.839  0.00  0.00    +0.000 A 
ATOM     24  N   UNL     1      -5.063  12.541  22.877  0.00  0.00    +0.000 NA
ATOM     25  C   UNL     1      -4.644  12.574  21.594  0.00  0.00    +0.000 A 
ATOM     26  C   UNL     1      -3.303  12.687  21.249  0.00  0.00    +0.000 A 
BRANCH  25  27
ATOM     27  C   UNL     1      -5.696  12.497  20.596  0.00  0.00    +0.000 A 
ATOM     28  C   UNL     1      -6.634  11.465  20.362  0.00  0.00    +0.000 A 
ATOM     29  N   UNL     1      -7.488  11.752  19.373  0.00  0.00    +0.000 NA
ATOM     30  N   UNL     1      -7.096  12.971  18.970  0.00  0.00    +0.000 N 
ATOM     31  C   UNL     1      -7.826  13.657  17.933  0.00  0.00    +0.000 C 
ATOM     32  C   UNL     1      -6.015  13.453  19.649  0.00  0.00    +0.000 A 
ENDBRANCH  25  27
ENDBRANCH  20  21
ENDBRANCH  11  20
TORSDOF 4
ENDMDL
MODEL 4
REMARK VINA RESULT:      -8.1      2.246     11.575
REMARK  Name = 
REMARK  7 active torsions:
REMARK  status: ('A' for Active; 'I' for Inactive)
REMARK    1  A    between atoms: C_1  and  C_2
REMARK    2  A    between atoms: C_2  and  N_3
REMARK    3  A    between atoms: C_13  and  O_14
REMARK    4  A    between atoms: O_14  and  C_15
REMARK    5  A    between atoms: C_19  and  C_20
REMARK    6  A    between atoms: N_23  and  C_24
REMARK    7  A    between atoms: C_27  and  C_28
REMARK                            x       y       z     vdW  Elec       q    Type
REMARK                         _______ _______ _______ _____ _____    ______ ____
ROOT
ATOM      1  N   UNL     1       5.678   4.803  16.097  0.00  0.00    +0.000 N 
ATOM      2  C   UNL     1       5.031   3.629  16.637  0.00  0.00    +0.000 C 
ATOM      3  C   UNL     1       4.248   4.178  17.808  0.00  0.00    +0.000 C 
ATOM      4  N   UNL     1       4.058   5.574  17.480  0.00  0.00    +0.000 N 
ATOM      5  C   UNL     1       3.167   6.330  18.232  0.00  0.00    +0.000 C 
ATOM      6  O   UNL     1       2.590   5.803  19.183  0.00  0.00    +0.000 OA
ATOM      7  N   UNL     1       2.994   7.627  17.800  0.00  0.00    +0.000 N 
ATOM      8  C   UNL     1       2.185   8.557  18.465  0.00  0.00    +0.000 A 
ATOM      9  C   UNL     1       1.831   9.737  17.823  0.00  0.00    +0.000 A 
ATOM     10  C   UNL     1       1.032  10.651  18.519  0.00  0.00    +0.000 A 
ATOM     11  C   UNL     1       0.627  10.397  19.834  0.00  0.00    +0.000 A 
ATOM     12  C   UNL     1       0.992   9.166  20.389  0.00  0.00    +0.000 A 
ATOM     13  C   UNL     1       0.663   8.665  21.759  0.00  0.00    +0.000 C 
ATOM     14  N   UNL     1       1.773   8.293  19.713  0.00  0.00    +0.000 NA
ATOM     15  C   UNL     1       5.021   5.967  16.520  0.00  0.00    +0.000 C 
ATOM     16  O   UNL     1       5.229   7.109  16.133  0.00  0.00    +0.000 OA
ATOM     17  H   UNL     1       3.427   7.887  16.925  0.00  0.00    +0.000 HD
ENDROOT
BRANCH   1  19
ATOM     18  C   UNL     1       6.497   4.003  13.894  0.00  0.00    +0.000 C 
ATOM     19  C   UNL     1       6.804   4.737  15.189  0.00  0.00    +0.000 C 
ENDBRANCH   1  19
BRANCH  11  20
ATOM     20  O   UNL     1      -0.161  11.382  20.384  0.00  0.00    +0.000 OA
BRANCH  20  21
ATOM     21  C   UNL     1      -1.457  11.569  19.996  0.00  0.00    +0.000 A 
ATOM     22  C   UNL     1      -2.006  11.096  18.810  0.00  0.00    +0.000 A 
ATOM     23  C   UNL     1      -3.281  11.516  18.473  0.00  0.00    +0.000 A 
ATOM     24  N   UNL     1      -4.062  12.251  19.284  0.00  0.00    +0.000 NA
ATOM     25  C   UNL     1      -3.561  12.595  20.490  0.00  0.00    +0.000 A 
ATOM     26  C   UNL     1      -2.267  12.274  20.881  0.00  0.00    +0.000 A 
BRANCH  25  27
ATOM     27  C   UNL     1      -4.476  13.314  21.359  0.00  0.00    +0.000 A 
ATOM     28  C   UNL     1      -5.874  13.163  21.508  0.00  0.00    +0.000 A 
ATOM     29  N   UNL     1      -6.389  13.978  22.437  0.00  0.00    +0.000 NA
ATOM     30  N   UNL     1      -5.318  14.654  22.884  0.00  0.00    +0.000 N 
ATOM     31  C   UNL     1      -5.464  15.607  23.956  0.00  0.00    +0.000 C 
ATOM     32  C   UNL     1      -4.154  14.315  22.258  0.00  0.00    +0.000 A 
ENDBRANCH  25  27
ENDBRANCH  20  21
ENDBRANCH  11  20
TORSDOF 4
ENDMDL
MODEL 5
REMARK VINA RESULT:      -8.1      2.501     11.591
REMARK  Name = 
REMARK  7 active torsions:
REMARK  status: ('A' for Active; 'I' for Inactive)
REMARK    1  A    between atoms: C_1  and  C_2
REMARK    2  A    between atoms: C_2  and  N_3
REMARK    3  A    between atoms: C_13  and  O_14
REMARK    4  A    between atoms: O_14  and  C_15
REMARK    5  A    between atoms: C_19  and  C_20
REMARK    6  A    between atoms: N_23  and  C_24
REMARK    7  A    between atoms: C_27  and  C_28
REMARK                            x       y       z     vdW  Elec       q    Type
REMARK                         _______ _______ _______ _____ _____    ______ ____
ROOT
ATOM      1  N   UNL     1       5.432   4.637  17.079  0.00  0.00    +0.000 N 
ATOM      2  C   UNL     1       4.932   3.555  17.898  0.00  0.00    +0.000 C 
ATOM      3  C   UNL     1       4.167   4.275  18.984  0.00  0.00    +0.000 C 
ATOM      4  N   UNL     1       3.825   5.548  18.390  0.00  0.00    +0.000 N 
ATOM      5  C   UNL     1       2.909   6.372  19.033  0.00  0.00    +0.000 C 
ATOM      6  O   UNL     1       2.440   6.014  20.113  0.00  0.00    +0.000 OA
ATOM      7  N   UNL     1       2.589   7.528  18.357  0.00  0.00    +0.000 N 
ATOM      8  C   UNL     1       1.732   8.509  18.874  0.00  0.00    +0.000 A 
ATOM      9  C   UNL     1       1.232   9.493  18.030  0.00  0.00    +0.000 A 
ATOM     10  C   UNL     1       0.389  10.465  18.580  0.00  0.00    +0.000 A 
ATOM     11  C   UNL     1       0.084  10.464  19.945  0.00  0.00    +0.000 A 
ATOM     12  C   UNL     1       0.596   9.413  20.714  0.00  0.00    +0.000 A 
ATOM     13  C   UNL     1       0.393   9.190  22.179  0.00  0.00    +0.000 C 
ATOM     14  N   UNL     1       1.418   8.484  20.176  0.00  0.00    +0.000 NA
ATOM     15  C   UNL     1       4.691   5.806  17.300  0.00  0.00    +0.000 C 
ATOM     16  O   UNL     1       4.767   6.853  16.671  0.00  0.00    +0.000 OA
ATOM     17  H   UNL     1       2.945   7.631  17.418  0.00  0.00    +0.000 HD
ENDROOT
BRANCH   1  19
ATOM     18  C   UNL     1       6.034   4.022  14.750  0.00  0.00    +0.000 C 
ATOM     19  C   UNL     1       6.507   4.472  16.123  0.00  0.00    +0.000 C 
ENDBRANCH   1  19
BRANCH  11  20
ATOM     20  O   UNL     1      -0.763  11.475  20.337  0.00  0.00    +0.000 OA
BRANCH  20  21
ATOM     21  C   UNL     1      -0.304  12.595  20.970  0.00  0.00    +0.000 A 
ATOM     22  C   UNL     1       0.929  13.190  20.734  0.00  0.00    +0.000 A 
ATOM     23  C   UNL     1       1.326  14.214  21.577  0.00  0.00    +0.000 A 
ATOM     24  N   UNL     1       0.538  14.745  22.528  0.00  0.00    +0.000 NA
ATOM     25  C   UNL     1      -0.708  14.240  22.660  0.00  0.00    +0.000 A 
ATOM     26  C   UNL     1      -1.164  13.168  21.901  0.00  0.00    +0.000 A 
BRANCH  25  27
ATOM     27  C   UNL     1      -1.546  14.905  23.642  0.00  0.00    +0.000 A 
ATOM     28  C   UNL     1      -1.247  15.267  24.975  0.00  0.00    +0.000 A 
ATOM     29  N   UNL     1      -2.256  15.905  25.581  0.00  0.00    +0.000 NA
ATOM     30  N   UNL     1      -3.206  15.951  24.632  0.00  0.00    +0.000 N 
ATOM     31  C   UNL     1      -4.452  16.628  24.892  0.00  0.00    +0.000 C 
ATOM     32  C   UNL     1      -2.845  15.348  23.463  0.00  0.00    +0.000 A 
ENDBRANCH  25  27
ENDBRANCH  20  21
ENDBRANCH  11  20
TORSDOF 4
ENDMDL
MODEL 6
REMARK VINA RESULT:      -8.0      2.640      3.691
REMARK  Name = 
REMARK  7 active torsions:
REMARK  status: ('A' for Active; 'I' for Inactive)
REMARK    1  A    between atoms: C_1  and  C_2
REMARK    2  A    between atoms: C_2  and  N_3
REMARK    3  A    between atoms: C_13  and  O_14
REMARK    4  A    between atoms: O_14  and  C_15
REMARK    5  A    between atoms: C_19  and  C_20
REMARK    6  A    between atoms: N_23  and  C_24
REMARK    7  A    between atoms: C_27  and  C_28
REMARK                            x       y       z     vdW  Elec       q    Type
REMARK                         _______ _______ _______ _____ _____    ______ ____
ROOT
ATOM      1  N   UNL     1      -5.568  12.716  18.416  0.00  0.00    +0.000 N 
ATOM      2  C   UNL     1      -5.367  13.571  19.564  0.00  0.00    +0.000 C 
ATOM      3  C   UNL     1      -4.273  12.864  20.329  0.00  0.00    +0.000 C 
ATOM      4  N   UNL     1      -3.596  12.073  19.326  0.00  0.00    +0.000 N 
ATOM      5  C   UNL     1      -2.382  11.475  19.640  0.00  0.00    +0.000 C 
ATOM      6  O   UNL     1      -1.930  11.602  20.777  0.00  0.00    +0.000 OA
ATOM      7  N   UNL     1      -1.775  10.805  18.600  0.00  0.00    +0.000 N 
ATOM      8  C   UNL     1      -0.578  10.091  18.741  0.00  0.00    +0.000 A 
ATOM      9  C   UNL     1       0.117   9.692  17.605  0.00  0.00    +0.000 A 
ATOM     10  C   UNL     1       1.302   8.968  17.779  0.00  0.00    +0.000 A 
ATOM     11  C   UNL     1       1.757   8.630  19.058  0.00  0.00    +0.000 A 
ATOM     12  C   UNL     1       1.020   9.108  20.147  0.00  0.00    +0.000 A 
ATOM     13  C   UNL     1       1.317   8.895  21.597  0.00  0.00    +0.000 C 
ATOM     14  N   UNL     1      -0.130   9.798  19.969  0.00  0.00    +0.000 NA
ATOM     15  C   UNL     1      -4.452  11.893  18.212  0.00  0.00    +0.000 C 
ATOM     16  O   UNL     1      -4.246  11.159  17.255  0.00  0.00    +0.000 OA
ATOM     17  H   UNL     1      -2.190  10.895  17.684  0.00  0.00    +0.000 HD
ENDROOT
BRANCH   1  19
ATOM     18  C   UNL     1      -7.910  13.518  18.223  0.00  0.00    +0.000 C 
ATOM     19  C   UNL     1      -6.747  12.785  17.576  0.00  0.00    +0.000 C 
ENDBRANCH   1  19
BRANCH  11  20
ATOM     20  O   UNL     1       2.939   7.927  19.071  0.00  0.00    +0.000 OA
BRANCH  20  21
ATOM     21  C   UNL     1       3.068   6.721  18.442  0.00  0.00    +0.000 A 
ATOM     22  C   UNL     1       2.234   5.629  18.643  0.00  0.00    +0.000 A 
ATOM     23  C   UNL     1       2.595   4.423  18.069  0.00  0.00    +0.000 A 
ATOM     24  N   UNL     1       3.636   4.279  17.230  0.00  0.00    +0.000 NA
ATOM     25  C   UNL     1       4.363   5.380  16.942  0.00  0.00    +0.000 A 
ATOM     26  C   UNL     1       4.111   6.616  17.526  0.00  0.00    +0.000 A 
BRANCH  25  27
ATOM     27  C   UNL     1       5.420   5.188  15.966  0.00  0.00    +0.000 A 
ATOM     28  C   UNL     1       6.791   5.522  16.054  0.00  0.00    +0.000 A 
ATOM     29  N   UNL     1       7.486   5.162  14.968  0.00  0.00    +0.000 NA
ATOM     30  N   UNL     1       6.557   4.597  14.180  0.00  0.00    +0.000 N 
ATOM     31  C   UNL     1       6.939   4.021  12.915  0.00  0.00    +0.000 C 
ATOM     32  C   UNL     1       5.302   4.607  14.715  0.00  0.00    +0.000 A 
ENDBRANCH  25  27
ENDBRANCH  20  21
ENDBRANCH  11  20
TORSDOF 4
ENDMDL
MODEL 7
REMARK VINA RESULT:      -7.9      2.937      9.922
REMARK  Name = 
REMARK  7 active torsions:
REMARK  status: ('A' for Active; 'I' for Inactive)
REMARK    1  A    between atoms: C_1  and  C_2
REMARK    2  A    between atoms: C_2  and  N_3
REMARK    3  A    between atoms: C_13  and  O_14
REMARK    4  A    between atoms: O_14  and  C_15
REMARK    5  A    between atoms: C_19  and  C_20
REMARK    6  A    between atoms: N_23  and  C_24
REMARK    7  A    between atoms: C_27  and  C_28
REMARK                            x       y       z     vdW  Elec       q    Type
REMARK                         _______ _______ _______ _____ _____    ______ ____
ROOT
ATOM      1  N   UNL     1       4.911   4.509  16.322  0.00  0.00    +0.000 N 
ATOM      2  C   UNL     1       4.161   3.426  16.916  0.00  0.00    +0.000 C 
ATOM      3  C   UNL     1       3.528   4.072  18.127  0.00  0.00    +0.000 C 
ATOM      4  N   UNL     1       3.490   5.480  17.795  0.00  0.00    +0.000 N 
ATOM      5  C   UNL     1       2.749   6.344  18.592  0.00  0.00    +0.000 C 
ATOM      6  O   UNL     1       2.175   5.896  19.584  0.00  0.00    +0.000 OA
ATOM      7  N   UNL     1       2.710   7.650  18.156  0.00  0.00    +0.000 N 
ATOM      8  C   UNL     1       2.066   8.676  18.859  0.00  0.00    +0.000 A 
ATOM      9  C   UNL     1       1.819   9.888  18.227  0.00  0.00    +0.000 A 
ATOM     10  C   UNL     1       1.185  10.897  18.961  0.00  0.00    +0.000 A 
ATOM     11  C   UNL     1       0.838  10.700  20.301  0.00  0.00    +0.000 A 
ATOM     12  C   UNL     1       1.083   9.436  20.848  0.00  0.00    +0.000 A 
ATOM     13  C   UNL     1       0.783   8.986  22.242  0.00  0.00    +0.000 C 
ATOM     14  N   UNL     1       1.706   8.470  20.134  0.00  0.00    +0.000 NA
ATOM     15  C   UNL     1       4.430   5.747  16.770  0.00  0.00    +0.000 C 
ATOM     16  O   UNL     1       4.752   6.853  16.358  0.00  0.00    +0.000 OA
ATOM     17  H   UNL     1       3.114   7.851  17.253  0.00  0.00    +0.000 HD
ENDROOT
BRANCH   1  19
ATOM     18  C   UNL     1       7.345   4.657  15.857  0.00  0.00    +0.000 C 
ATOM     19  C   UNL     1       5.960   4.300  15.345  0.00  0.00    +0.000 C 
ENDBRANCH   1  19
BRANCH  11  20
ATOM     20  O   UNL     1       0.214  11.777  20.888  0.00  0.00    +0.000 OA
BRANCH  20  21
ATOM     21  C   UNL     1      -1.078  12.109  20.596  0.00  0.00    +0.000 A 
ATOM     22  C   UNL     1      -1.917  12.841  21.428  0.00  0.00    +0.000 A 
ATOM     23  C   UNL     1      -3.251  12.946  21.074  0.00  0.00    +0.000 A 
ATOM     24  N   UNL     1      -3.752  12.487  19.913  0.00  0.00    +0.000 NA
ATOM     25  C   UNL     1      -2.897  11.891  19.056  0.00  0.00    +0.000 A 
ATOM     26  C   UNL     1      -1.556  11.684  19.360  0.00  0.00    +0.000 A 
BRANCH  25  27
ATOM     27  C   UNL     1      -3.471  11.492  17.783  0.00  0.00    +0.000 A 
ATOM     28  C   UNL     1      -4.802  11.620  17.323  0.00  0.00    +0.000 A 
ATOM     29  N   UNL     1      -4.966  11.173  16.072  0.00  0.00    +0.000 NA
ATOM     30  N   UNL     1      -3.736  10.756  15.730  0.00  0.00    +0.000 N 
ATOM     31  C   UNL     1      -3.491  10.248  14.403  0.00  0.00    +0.000 C 
ATOM     32  C   UNL     1      -2.811  10.900  16.722  0.00  0.00    +0.000 A 
ENDBRANCH  25  27
ENDBRANCH  20  21
ENDBRANCH  11  20
TORSDOF 4
ENDMDL
MODEL 8
REMARK VINA RESULT:      -7.9      3.236     10.106
REMARK  Name = 
REMARK  7 active torsions:
REMARK  status: ('A' for Active; 'I' for Inactive)
REMARK    1  A    between atoms: C_1  and  C_2
REMARK    2  A    between atoms: C_2  and  N_3
REMARK    3  A    between atoms: C_13  and  O_14
REMARK    4  A    between atoms: O_14  and  C_15
REMARK    5  A    between atoms: C_19  and  C_20
REMARK    6  A    between atoms: N_23  and  C_24
REMARK    7  A    between atoms: C_27  and  C_28
REMARK                            x       y       z     vdW  Elec       q    Type
REMARK                         _______ _______ _______ _____ _____    ______ ____
ROOT
ATOM      1  N   UNL     1       5.713   5.006  16.100  0.00  0.00    +0.000 N 
ATOM      2  C   UNL     1       5.426   3.850  16.919  0.00  0.00    +0.000 C 
ATOM      3  C   UNL     1       4.737   4.447  18.124  0.00  0.00    +0.000 C 
ATOM      4  N   UNL     1       4.202   5.701  17.638  0.00  0.00    +0.000 N 
ATOM      5  C   UNL     1       3.299   6.402  18.427  0.00  0.00    +0.000 C 
ATOM      6  O   UNL     1       3.005   5.959  19.536  0.00  0.00    +0.000 OA
ATOM      7  N   UNL     1       2.786   7.544  17.850  0.00  0.00    +0.000 N 
ATOM      8  C   UNL     1       1.910   8.412  18.514  0.00  0.00    +0.000 A 
ATOM      9  C   UNL     1       1.215   9.370  17.786  0.00  0.00    +0.000 A 
ATOM     10  C   UNL     1       0.357  10.231  18.480  0.00  0.00    +0.000 A 
ATOM     11  C   UNL     1       0.227  10.150  19.870  0.00  0.00    +0.000 A 
ATOM     12  C   UNL     1       0.930   9.129  20.520  0.00  0.00    +0.000 A 
ATOM     13  C   UNL     1       0.935   8.834  21.986  0.00  0.00    +0.000 C 
ATOM     14  N   UNL     1       1.765   8.308  19.842  0.00  0.00    +0.000 NA
ATOM     15  C   UNL     1       4.896   6.085  16.465  0.00  0.00    +0.000 C 
ATOM     16  O   UNL     1       4.791   7.156  15.884  0.00  0.00    +0.000 OA
ATOM     17  H   UNL     1       3.010   7.716  16.881  0.00  0.00    +0.000 HD
ENDROOT
BRANCH   1  19
ATOM     18  C   UNL     1       6.384   3.918  13.971  0.00  0.00    +0.000 C 
ATOM     19  C   UNL     1       6.671   4.986  15.014  0.00  0.00    +0.000 C 
ENDBRANCH   1  19
BRANCH  11  20
ATOM     20  O   UNL     1      -0.658  11.054  20.410  0.00  0.00    +0.000 OA
BRANCH  20  21
ATOM     21  C   UNL     1      -0.235  12.132  21.135  0.00  0.00    +0.000 A 
ATOM     22  C   UNL     1      -0.862  12.614  22.278  0.00  0.00    +0.000 A 
ATOM     23  C   UNL     1      -0.421  13.817  22.800  0.00  0.00    +0.000 A 
ATOM     24  N   UNL     1       0.654  14.481  22.339  0.00  0.00    +0.000 NA
ATOM     25  C   UNL     1       1.330  13.933  21.307  0.00  0.00    +0.000 A 
ATOM     26  C   UNL     1       0.918  12.763  20.680  0.00  0.00    +0.000 A 
BRANCH  25  27
ATOM     27  C   UNL     1       2.531  14.644  20.905  0.00  0.00    +0.000 A 
ATOM     28  C   UNL     1       3.139  15.776  21.493  0.00  0.00    +0.000 A 
ATOM     29  N   UNL     1       4.266  16.145  20.872  0.00  0.00    +0.000 NA
ATOM     30  N   UNL     1       4.380  15.245  19.881  0.00  0.00    +0.000 N 
ATOM     31  C   UNL     1       5.526  15.278  19.006  0.00  0.00    +0.000 C 
ATOM     32  C   UNL     1       3.358  14.342  19.838  0.00  0.00    +0.000 A 
ENDBRANCH  25  27
ENDBRANCH  20  21
ENDBRANCH  11  20
TORSDOF 4
ENDMDL
MODEL 9
REMARK VINA RESULT:      -7.9      3.646      9.778
REMARK  Name = 
REMARK  7 active torsions:
REMARK  status: ('A' for Active; 'I' for Inactive)
REMARK    1  A    between atoms: C_1  and  C_2
REMARK    2  A    between atoms: C_2  and  N_3
REMARK    3  A    between atoms: C_13  and  O_14
REMARK    4  A    between atoms: O_14  and  C_15
REMARK    5  A    between atoms: C_19  and  C_20
REMARK    6  A    between atoms: N_23  and  C_24
REMARK    7  A    between atoms: C_27  and  C_28
REMARK                            x       y       z     vdW  Elec       q    Type
REMARK                         _______ _______ _______ _____ _____    ______ ____
ROOT
ATOM      1  N   UNL     1       5.267   4.416  16.390  0.00  0.00    +0.000 N 
ATOM      2  C   UNL     1       4.648   3.321  17.101  0.00  0.00    +0.000 C 
ATOM      3  C   UNL     1       3.967   4.008  18.262  0.00  0.00    +0.000 C 
ATOM      4  N   UNL     1       3.772   5.365  17.803  0.00  0.00    +0.000 N 
ATOM      5  C   UNL     1       2.955   6.217  18.536  0.00  0.00    +0.000 C 
ATOM      6  O   UNL     1       2.447   5.806  19.579  0.00  0.00    +0.000 OA
ATOM      7  N   UNL     1       2.768   7.465  17.982  0.00  0.00    +0.000 N 
ATOM      8  C   UNL     1       2.027   8.478  18.605  0.00  0.00    +0.000 A 
ATOM      9  C   UNL     1       1.640   9.592  17.869  0.00  0.00    +0.000 A 
ATOM     10  C   UNL     1       0.913  10.592  18.523  0.00  0.00    +0.000 A 
ATOM     11  C   UNL     1       0.609  10.487  19.885  0.00  0.00    +0.000 A 
ATOM     12  C   UNL     1       0.998   9.313  20.539  0.00  0.00    +0.000 A 
ATOM     13  C   UNL     1       0.771   8.968  21.975  0.00  0.00    +0.000 C 
ATOM     14  N   UNL     1       1.711   8.356  19.901  0.00  0.00    +0.000 NA
ATOM     15  C   UNL     1       4.662   5.633  16.735  0.00  0.00    +0.000 C 
ATOM     16  O   UNL     1       4.856   6.723  16.214  0.00  0.00    +0.000 OA
ATOM     17  H   UNL     1       3.134   7.621  17.055  0.00  0.00    +0.000 HD
ENDROOT
BRANCH   1  19
ATOM     18  C   UNL     1       5.801   4.082  13.988  0.00  0.00    +0.000 C 
ATOM     19  C   UNL     1       6.318   4.229  15.410  0.00  0.00    +0.000 C 
ENDBRANCH   1  19
BRANCH  11  20
ATOM     20  O   UNL     1      -0.119  11.542  20.385  0.00  0.00    +0.000 OA
BRANCH  20  21
ATOM     21  C   UNL     1       0.110  12.829  19.989  0.00  0.00    +0.000 A 
ATOM     22  C   UNL     1      -0.881  13.776  19.760  0.00  0.00    +0.000 A 
ATOM     23  C   UNL     1      -0.507  14.981  19.193  0.00  0.00    +0.000 A 
ATOM     24  N   UNL     1       0.771  15.334  18.966  0.00  0.00    +0.000 NA
ATOM     25  C   UNL     1       1.733  14.452  19.313  0.00  0.00    +0.000 A 
ATOM     26  C   UNL     1       1.443  13.193  19.825  0.00  0.00    +0.000 A 
BRANCH  25  27
ATOM     27  C   UNL     1       3.096  14.915  19.126  0.00  0.00    +0.000 A 
ATOM     28  C   UNL     1       3.751  16.026  19.707  0.00  0.00    +0.000 A 
ATOM     29  N   UNL     1       5.031  16.131  19.332  0.00  0.00    +0.000 NA
ATOM     30  N   UNL     1       5.197  15.084  18.506  0.00  0.00    +0.000 N 
ATOM     31  C   UNL     1       6.493  14.820  17.930  0.00  0.00    +0.000 C 
ATOM     32  C   UNL     1       4.069  14.340  18.328  0.00  0.00    +0.000 A 
ENDBRANCH  25  27
ENDBRANCH  20  21
ENDBRANCH  11  20
TORSDOF 4
ENDMDL
