MODEL 1
REMARK VINA RESULT:      -7.9      0.000      0.000
REMARK  Name = 
REMARK  7 active torsions:
REMARK  status: ('A' for Active; 'I' for Inactive)
REMARK    1  A    between atoms: C_1  and  C_2
REMARK    2  A    between atoms: C_2  and  C_4
REMARK    3  A    between atoms: C_5  and  C_6
REMARK    4  A    between atoms: C_13  and  C_14
REMARK    5  A    between atoms: C_19  and  O_20
REMARK    6  A    between atoms: O_20  and  C_21
REMARK    7  A    between atoms: C_21  and  C_22
REMARK                            x       y       z     vdW  Elec       q    Type
REMARK                         _______ _______ _______ _____ _____    ______ ____
ROOT
ATOM      1  C   UNL     1       0.651  12.425  18.806  0.00  0.00    +0.000 C 
ATOM      2  C   UNL     1      -0.294  13.372  18.585  0.00  0.00    +0.000 C 
ATOM      3  C   UNL     1      -0.177  14.841  18.940  0.00  0.00    +0.000 C 
ATOM      4  N   UNL     1      -1.544  13.011  18.093  0.00  0.00    +0.000 N 
ATOM      5  C   UNL     1      -1.895  11.750  17.808  0.00  0.00    +0.000 A 
ATOM      6  N   UNL     1      -3.000  11.268  17.303  0.00  0.00    +0.000 NA
ATOM      7  C   UNL     1      -2.746   9.926  17.260  0.00  0.00    +0.000 A 
ATOM      8  N   UNL     1      -1.525   9.551  17.658  0.00  0.00    +0.000 NA
ATOM      9  N   UNL     1      -1.019  10.730  18.072  0.00  0.00    +0.000 N 
ATOM     10  C   UNL     1       0.297  10.907  18.704  0.00  0.00    +0.000 C 
ATOM     11  H   UNL     1      -2.213  13.754  17.899  0.00  0.00    +0.000 HD
ENDROOT
BRANCH  10  12
ATOM     12  C   UNL     1       0.292  10.251  20.102  0.00  0.00    +0.000 A 
ATOM     13  C   UNL     1      -0.447  10.897  21.126  0.00  0.00    +0.000 A 
ATOM     14  C   UNL     1      -0.473  10.420  22.434  0.00  0.00    +0.000 A 
ATOM     15  C   UNL     1       0.251   9.292  22.757  0.00  0.00    +0.000 A 
ATOM     16  C   UNL     1       0.972   8.621  21.771  0.00  0.00    +0.000 A 
ATOM     17  C   UNL     1       0.964   9.052  20.430  0.00  0.00    +0.000 A 
BRANCH  17  18
ATOM     18  O   UNL     1       1.591   8.323  19.442  0.00  0.00    +0.000 OA
BRANCH  18  19
ATOM     19  C   UNL     1       2.554   7.319  19.871  0.00  0.00    +0.000 C 
BRANCH  19  20
ATOM     20  C   UNL     1       2.137   5.898  19.534  0.00  0.00    +0.000 A 
ATOM     21  C   UNL     1       2.291   5.443  18.221  0.00  0.00    +0.000 A 
ATOM     22  C   UNL     1       1.757   4.219  17.820  0.00  0.00    +0.000 A 
ATOM     23  C   UNL     1       1.100   3.412  18.742  0.00  0.00    +0.000 A 
ATOM     24  C   UNL     1       1.009   3.812  20.074  0.00  0.00    +0.000 A 
ATOM     25  C   UNL     1       1.533   5.047  20.474  0.00  0.00    +0.000 A 
ENDBRANCH  19  20
ENDBRANCH  18  19
ENDBRANCH  17  18
ENDBRANCH  10  12
BRANCH   1  27
ATOM     26  C   UNL     1       3.124  13.044  18.351  0.00  0.00    +0.000 C 
ATOM     27  C   UNL     1       2.013  12.768  19.334  0.00  0.00    +0.000 C 
ATOM     28  O   UNL     1       2.218  12.875  20.543  0.00  0.00    +0.000 OA
ENDBRANCH   1  27
TORSDOF 5
ENDMDL
MODEL 2
REMARK VINA RESULT:      -7.5      5.205      7.906
REMARK  Name = 
REMARK  7 active torsions:
REMARK  status: ('A' for Active; 'I' for Inactive)
REMARK    1  A    between atoms: C_1  and  C_2
REMARK    2  A    between atoms: C_2  and  C_4
REMARK    3  A    between atoms: C_5  and  C_6
REMARK    4  A    between atoms: C_13  and  C_14
REMARK    5  A    between atoms: C_19  and  O_20
REMARK    6  A    between atoms: O_20  and  C_21
REMARK    7  A    between atoms: C_21  and  C_22
REMARK                            x       y       z     vdW  Elec       q    Type
REMARK                         _______ _______ _______ _____ _____    ______ ____
ROOT
ATOM      1  C   UNL     1       2.646   6.430  18.787  0.00  0.00    +0.000 C 
ATOM      2  C   UNL     1       2.033   6.322  19.992  0.00  0.00    +0.000 C 
ATOM      3  C   UNL     1       1.553   7.477  20.850  0.00  0.00    +0.000 C 
ATOM      4  N   UNL     1       1.899   5.078  20.600  0.00  0.00    +0.000 N 
ATOM      5  C   UNL     1       2.345   3.936  20.061  0.00  0.00    +0.000 A 
ATOM      6  N   UNL     1       2.253   2.703  20.485  0.00  0.00    +0.000 NA
ATOM      7  C   UNL     1       2.902   2.004  19.506  0.00  0.00    +0.000 A 
ATOM      8  N   UNL     1       3.345   2.725  18.471  0.00  0.00    +0.000 NA
ATOM      9  N   UNL     1       3.039   3.973  18.881  0.00  0.00    +0.000 N 
ATOM     10  C   UNL     1       3.383   5.206  18.157  0.00  0.00    +0.000 C 
ATOM     11  H   UNL     1       1.395   5.030  21.484  0.00  0.00    +0.000 HD
ENDROOT
BRANCH  10  12
ATOM     12  C   UNL     1       4.912   5.413  18.186  0.00  0.00    +0.000 A 
ATOM     13  C   UNL     1       5.559   5.347  19.447  0.00  0.00    +0.000 A 
ATOM     14  C   UNL     1       6.925   5.573  19.592  0.00  0.00    +0.000 A 
ATOM     15  C   UNL     1       7.680   5.887  18.482  0.00  0.00    +0.000 A 
ATOM     16  C   UNL     1       7.081   5.942  17.224  0.00  0.00    +0.000 A 
ATOM     17  C   UNL     1       5.713   5.658  17.047  0.00  0.00    +0.000 A 
BRANCH  17  18
ATOM     18  O   UNL     1       5.152   5.608  15.788  0.00  0.00    +0.000 OA
BRANCH  18  19
ATOM     19  C   UNL     1       5.052   4.300  15.159  0.00  0.00    +0.000 C 
BRANCH  19  20
ATOM     20  C   UNL     1       5.916   4.157  13.918  0.00  0.00    +0.000 A 
ATOM     21  C   UNL     1       7.053   4.961  13.792  0.00  0.00    +0.000 A 
ATOM     22  C   UNL     1       7.772   5.003  12.599  0.00  0.00    +0.000 A 
ATOM     23  C   UNL     1       7.388   4.204  11.527  0.00  0.00    +0.000 A 
ATOM     24  C   UNL     1       6.305   3.336  11.662  0.00  0.00    +0.000 A 
ATOM     25  C   UNL     1       5.574   3.304  12.856  0.00  0.00    +0.000 A 
ENDBRANCH  19  20
ENDBRANCH  18  19
ENDBRANCH  17  18
ENDBRANCH  10  12
BRANCH   1  27
ATOM     26  C   UNL     1       1.580   8.564  17.780  0.00  0.00    +0.000 C 
ATOM     27  C   UNL     1       2.811   7.750  18.094  0.00  0.00    +0.000 C 
ATOM     28  O   UNL     1       3.928   8.194  17.827  0.00  0.00    +0.000 OA
ENDBRANCH   1  27
TORSDOF 5
ENDMDL
MODEL 3
REMARK VINA RESULT:      -7.4      5.355      8.154
REMARK  Name = 
REMARK  7 active torsions:
REMARK  status: ('A' for Active; 'I' for Inactive)
REMARK    1  A    between atoms: C_1  and  C_2
REMARK    2  A    between atoms: C_2  and  C_4
REMARK    3  A    between atoms: C_5  and  C_6
REMARK    4  A    between atoms: C_13  and  C_14
REMARK    5  A    between atoms: C_19  and  O_20
REMARK    6  A    between atoms: O_20  and  C_21
REMARK    7  A    between atoms: C_21  and  C_22
REMARK                            x       y       z     vdW  Elec       q    Type
REMARK                         _______ _______ _______ _____ _____    ______ ____
ROOT
ATOM      1  C   UNL     1       2.803   6.134  18.446  0.00  0.00    +0.000 C 
ATOM      2  C   UNL     1       2.103   5.940  19.590  0.00  0.00    +0.000 C 
ATOM      3  C   UNL     1       1.623   7.028  20.532  0.00  0.00    +0.000 C 
ATOM      4  N   UNL     1       1.865   4.651  20.056  0.00  0.00    +0.000 N 
ATOM      5  C   UNL     1       2.290   3.545  19.430  0.00  0.00    +0.000 A 
ATOM      6  N   UNL     1       2.107   2.283  19.716  0.00  0.00    +0.000 NA
ATOM      7  C   UNL     1       2.787   1.650  18.713  0.00  0.00    +0.000 A 
ATOM      8  N   UNL     1       3.337   2.446  17.789  0.00  0.00    +0.000 NA
ATOM      9  N   UNL     1       3.065   3.662  18.307  0.00  0.00    +0.000 N 
ATOM     10  C   UNL     1       3.520   4.940  17.739  0.00  0.00    +0.000 C 
ATOM     11  H   UNL     1       1.298   4.543  20.895  0.00  0.00    +0.000 HD
ENDROOT
BRANCH  10  12
ATOM     12  C   UNL     1       5.052   5.056  17.888  0.00  0.00    +0.000 A 
ATOM     13  C   UNL     1       5.572   5.231  19.196  0.00  0.00    +0.000 A 
ATOM     14  C   UNL     1       6.933   5.401  19.436  0.00  0.00    +0.000 A 
ATOM     15  C   UNL     1       7.811   5.415  18.373  0.00  0.00    +0.000 A 
ATOM     16  C   UNL     1       7.337   5.227  17.076  0.00  0.00    +0.000 A 
ATOM     17  C   UNL     1       5.971   4.994  16.817  0.00  0.00    +0.000 A 
BRANCH  17  18
ATOM     18  O   UNL     1       5.527   4.702  15.545  0.00  0.00    +0.000 OA
BRANCH  18  19
ATOM     19  C   UNL     1       6.463   4.913  14.451  0.00  0.00    +0.000 C 
BRANCH  19  20
ATOM     20  C   UNL     1       6.162   4.069  13.224  0.00  0.00    +0.000 A 
ATOM     21  C   UNL     1       4.830   3.895  12.837  0.00  0.00    +0.000 A 
ATOM     22  C   UNL     1       4.488   2.987  11.836  0.00  0.00    +0.000 A 
ATOM     23  C   UNL     1       5.482   2.272  11.177  0.00  0.00    +0.000 A 
ATOM     24  C   UNL     1       6.822   2.493  11.494  0.00  0.00    +0.000 A 
ATOM     25  C   UNL     1       7.164   3.395  12.508  0.00  0.00    +0.000 A 
ENDBRANCH  19  20
ENDBRANCH  18  19
ENDBRANCH  17  18
ENDBRANCH  10  12
BRANCH   1  27
ATOM     26  C   UNL     1       1.927   8.457  17.710  0.00  0.00    +0.000 C 
ATOM     27  C   UNL     1       3.081   7.506  17.906  0.00  0.00    +0.000 C 
ATOM     28  O   UNL     1       4.232   7.877  17.672  0.00  0.00    +0.000 OA
ENDBRANCH   1  27
TORSDOF 5
ENDMDL
MODEL 4
REMARK VINA RESULT:      -7.4      1.137      1.513
REMARK  Name = 
REMARK  7 active torsions:
REMARK  status: ('A' for Active; 'I' for Inactive)
REMARK    1  A    between atoms: C_1  and  C_2
REMARK    2  A    between atoms: C_2  and  C_4
REMARK    3  A    between atoms: C_5  and  C_6
REMARK    4  A    between atoms: C_13  and  C_14
REMARK    5  A    between atoms: C_19  and  O_20
REMARK    6  A    between atoms: O_20  and  C_21
REMARK    7  A    between atoms: C_21  and  C_22
REMARK                            x       y       z     vdW  Elec       q    Type
REMARK                         _______ _______ _______ _____ _____    ______ ____
ROOT
ATOM      1  C   UNL     1       0.712  12.603  19.083  0.00  0.00    +0.000 C 
ATOM      2  C   UNL     1      -0.254  13.507  18.790  0.00  0.00    +0.000 C 
ATOM      3  C   UNL     1      -0.246  14.973  19.180  0.00  0.00    +0.000 C 
ATOM      4  N   UNL     1      -1.433  13.098  18.175  0.00  0.00    +0.000 N 
ATOM      5  C   UNL     1      -1.691  11.828  17.834  0.00  0.00    +0.000 A 
ATOM      6  N   UNL     1      -2.718  11.305  17.218  0.00  0.00    +0.000 NA
ATOM      7  C   UNL     1      -2.394   9.978  17.175  0.00  0.00    +0.000 A 
ATOM      8  N   UNL     1      -1.199   9.653  17.681  0.00  0.00    +0.000 NA
ATOM      9  N   UNL     1      -0.794  10.846  18.162  0.00  0.00    +0.000 N 
ATOM     10  C   UNL     1       0.446  11.073  18.919  0.00  0.00    +0.000 C 
ATOM     11  H   UNL     1      -2.118  13.812  17.931  0.00  0.00    +0.000 HD
ENDROOT
BRANCH  10  12
ATOM     12  C   UNL     1       0.343  10.386  20.299  0.00  0.00    +0.000 A 
ATOM     13  C   UNL     1      -0.522  10.970  21.259  0.00  0.00    +0.000 A 
ATOM     14  C   UNL     1      -0.647  10.463  22.549  0.00  0.00    +0.000 A 
ATOM     15  C   UNL     1       0.100   9.365  22.920  0.00  0.00    +0.000 A 
ATOM     16  C   UNL     1       0.946   8.754  21.996  0.00  0.00    +0.000 A 
ATOM     17  C   UNL     1       1.043   9.215  20.668  0.00  0.00    +0.000 A 
BRANCH  17  18
ATOM     18  O   UNL     1       1.798   8.540  19.732  0.00  0.00    +0.000 OA
BRANCH  18  19
ATOM     19  C   UNL     1       2.006   7.116  19.951  0.00  0.00    +0.000 C 
BRANCH  19  20
ATOM     20  C   UNL     1       3.029   6.503  19.011  0.00  0.00    +0.000 A 
ATOM     21  C   UNL     1       3.465   7.247  17.910  0.00  0.00    +0.000 A 
ATOM     22  C   UNL     1       4.257   6.666  16.921  0.00  0.00    +0.000 A 
ATOM     23  C   UNL     1       4.662   5.341  17.044  0.00  0.00    +0.000 A 
ATOM     24  C   UNL     1       4.305   4.608  18.175  0.00  0.00    +0.000 A 
ATOM     25  C   UNL     1       3.498   5.187  19.162  0.00  0.00    +0.000 A 
ENDBRANCH  19  20
ENDBRANCH  18  19
ENDBRANCH  17  18
ENDBRANCH  10  12
BRANCH   1  27
ATOM     26  C   UNL     1       3.128  13.513  18.884  0.00  0.00    +0.000 C 
ATOM     27  C   UNL     1       1.999  13.000  19.743  0.00  0.00    +0.000 C 
ATOM     28  O   UNL     1       2.125  12.959  20.967  0.00  0.00    +0.000 OA
ENDBRANCH   1  27
TORSDOF 5
ENDMDL
MODEL 5
REMARK VINA RESULT:      -7.2      1.304      1.711
REMARK  Name = 
REMARK  7 active torsions:
REMARK  status: ('A' for Active; 'I' for Inactive)
REMARK    1  A    between atoms: C_1  and  C_2
REMARK    2  A    between atoms: C_2  and  C_4
REMARK    3  A    between atoms: C_5  and  C_6
REMARK    4  A    between atoms: C_13  and  C_14
REMARK    5  A    between atoms: C_19  and  O_20
REMARK    6  A    between atoms: O_20  and  C_21
REMARK    7  A    between atoms: C_21  and  C_22
REMARK                            x       y       z     vdW  Elec       q    Type
REMARK                         _______ _______ _______ _____ _____    ______ ____
ROOT
ATOM      1  C   UNL     1       0.577  12.510  18.782  0.00  0.00    +0.000 C 
ATOM      2  C   UNL     1      -0.471  13.359  18.929  0.00  0.00    +0.000 C 
ATOM      3  C   UNL     1      -0.421  14.725  19.587  0.00  0.00    +0.000 C 
ATOM      4  N   UNL     1      -1.752  12.960  18.564  0.00  0.00    +0.000 N 
ATOM      5  C   UNL     1      -2.038  11.754  18.055  0.00  0.00    +0.000 A 
ATOM      6  N   UNL     1      -3.169  11.257  17.628  0.00  0.00    +0.000 NA
ATOM      7  C   UNL     1      -2.812   9.996  17.242  0.00  0.00    +0.000 A 
ATOM      8  N   UNL     1      -1.513   9.698  17.354  0.00  0.00    +0.000 NA
ATOM      9  N   UNL     1      -1.045  10.817  17.944  0.00  0.00    +0.000 N 
ATOM     10  C   UNL     1       0.341  11.017  18.392  0.00  0.00    +0.000 C 
ATOM     11  H   UNL     1      -2.507  13.639  18.648  0.00  0.00    +0.000 HD
ENDROOT
BRANCH  10  12
ATOM     12  C   UNL     1       0.638  10.086  19.587  0.00  0.00    +0.000 A 
ATOM     13  C   UNL     1       0.241  10.527  20.875  0.00  0.00    +0.000 A 
ATOM     14  C   UNL     1       0.509   9.790  22.026  0.00  0.00    +0.000 A 
ATOM     15  C   UNL     1       1.195   8.598  21.921  0.00  0.00    +0.000 A 
ATOM     16  C   UNL     1       1.583   8.125  20.669  0.00  0.00    +0.000 A 
ATOM     17  C   UNL     1       1.270   8.826  19.487  0.00  0.00    +0.000 A 
BRANCH  17  18
ATOM     18  O   UNL     1       1.562   8.299  18.247  0.00  0.00    +0.000 OA
BRANCH  18  19
ATOM     19  C   UNL     1       2.964   8.256  17.860  0.00  0.00    +0.000 C 
BRANCH  19  20
ATOM     20  C   UNL     1       3.488   6.848  17.634  0.00  0.00    +0.000 A 
ATOM     21  C   UNL     1       4.678   6.677  16.921  0.00  0.00    +0.000 A 
ATOM     22  C   UNL     1       5.103   5.409  16.529  0.00  0.00    +0.000 A 
ATOM     23  C   UNL     1       4.363   4.287  16.885  0.00  0.00    +0.000 A 
ATOM     24  C   UNL     1       3.216   4.431  17.666  0.00  0.00    +0.000 A 
ATOM     25  C   UNL     1       2.782   5.706  18.048  0.00  0.00    +0.000 A 
ENDBRANCH  19  20
ENDBRANCH  18  19
ENDBRANCH  17  18
ENDBRANCH  10  12
BRANCH   1  27
ATOM     26  C   UNL     1       2.967  13.200  18.065  0.00  0.00    +0.000 C 
ATOM     27  C   UNL     1       1.975  12.900  19.161  0.00  0.00    +0.000 C 
ATOM     28  O   UNL     1       2.303  13.024  20.341  0.00  0.00    +0.000 OA
ENDBRANCH   1  27
TORSDOF 5
ENDMDL
MODEL 6
REMARK VINA RESULT:      -7.2      1.412      1.951
REMARK  Name = 
REMARK  7 active torsions:
REMARK  status: ('A' for Active; 'I' for Inactive)
REMARK    1  A    between atoms: C_1  and  C_2
REMARK    2  A    between atoms: C_2  and  C_4
REMARK    3  A    between atoms: C_5  and  C_6
REMARK    4  A    between atoms: C_13  and  C_14
REMARK    5  A    between atoms: C_19  and  O_20
REMARK    6  A    between atoms: O_20  and  C_21
REMARK    7  A    between atoms: C_21  and  C_22
REMARK                            x       y       z     vdW  Elec       q    Type
REMARK                         _______ _______ _______ _____ _____    ______ ____
ROOT
ATOM      1  C   UNL     1       0.731  12.982  19.418  0.00  0.00    +0.000 C 
ATOM      2  C   UNL     1      -0.083  13.827  18.738  0.00  0.00    +0.000 C 
ATOM      3  C   UNL     1      -0.103  15.338  18.869  0.00  0.00    +0.000 C 
ATOM      4  N   UNL     1      -1.083  13.323  17.913  0.00  0.00    +0.000 N 
ATOM      5  C   UNL     1      -1.307  12.015  17.732  0.00  0.00    +0.000 A 
ATOM      6  N   UNL     1      -2.167  11.397  16.965  0.00  0.00    +0.000 NA
ATOM      7  C   UNL     1      -1.908  10.082  17.228  0.00  0.00    +0.000 A 
ATOM      8  N   UNL     1      -0.900   9.844  18.074  0.00  0.00    +0.000 NA
ATOM      9  N   UNL     1      -0.573  11.100  18.440  0.00  0.00    +0.000 N 
ATOM     10  C   UNL     1       0.441  11.448  19.446  0.00  0.00    +0.000 C 
ATOM     11  H   UNL     1      -1.647  13.987  17.385  0.00  0.00    +0.000 HD
ENDROOT
BRANCH  10  12
ATOM     12  C   UNL     1      -0.046  11.010  20.845  0.00  0.00    +0.000 A 
ATOM     13  C   UNL     1      -1.189  11.661  21.375  0.00  0.00    +0.000 A 
ATOM     14  C   UNL     1      -1.677  11.380  22.648  0.00  0.00    +0.000 A 
ATOM     15  C   UNL     1      -1.028  10.450  23.432  0.00  0.00    +0.000 A 
ATOM     16  C   UNL     1       0.087   9.777  22.935  0.00  0.00    +0.000 A 
ATOM     17  C   UNL     1       0.563  10.003  21.628  0.00  0.00    +0.000 A 
BRANCH  17  18
ATOM     18  O   UNL     1       1.598   9.257  21.107  0.00  0.00    +0.000 OA
BRANCH  18  19
ATOM     19  C   UNL     1       1.311   7.870  20.771  0.00  0.00    +0.000 C 
BRANCH  19  20
ATOM     20  C   UNL     1       2.136   7.345  19.609  0.00  0.00    +0.000 A 
ATOM     21  C   UNL     1       2.779   6.110  19.743  0.00  0.00    +0.000 A 
ATOM     22  C   UNL     1       3.692   5.671  18.786  0.00  0.00    +0.000 A 
ATOM     23  C   UNL     1       3.941   6.443  17.656  0.00  0.00    +0.000 A 
ATOM     24  C   UNL     1       3.248   7.639  17.467  0.00  0.00    +0.000 A 
ATOM     25  C   UNL     1       2.342   8.087  18.435  0.00  0.00    +0.000 A 
ENDBRANCH  19  20
ENDBRANCH  18  19
ENDBRANCH  17  18
ENDBRANCH  10  12
BRANCH   1  27
ATOM     26  C   UNL     1       3.150  13.862  19.705  0.00  0.00    +0.000 C 
ATOM     27  C   UNL     1       1.824  13.482  20.316  0.00  0.00    +0.000 C 
ATOM     28  O   UNL     1       1.637  13.631  21.523  0.00  0.00    +0.000 OA
ENDBRANCH   1  27
TORSDOF 5
ENDMDL
MODEL 7
REMARK VINA RESULT:      -7.1      1.019      1.260
REMARK  Name = 
REMARK  7 active torsions:
REMARK  status: ('A' for Active; 'I' for Inactive)
REMARK    1  A    between atoms: C_1  and  C_2
REMARK    2  A    between atoms: C_2  and  C_4
REMARK    3  A    between atoms: C_5  and  C_6
REMARK    4  A    between atoms: C_13  and  C_14
REMARK    5  A    between atoms: C_19  and  O_20
REMARK    6  A    between atoms: O_20  and  C_21
REMARK    7  A    between atoms: C_21  and  C_22
REMARK                            x       y       z     vdW  Elec       q    Type
REMARK                         _______ _______ _______ _____ _____    ______ ____
ROOT
ATOM      1  C   UNL     1       0.380  12.466  18.927  0.00  0.00    +0.000 C 
ATOM      2  C   UNL     1      -0.664  13.301  19.151  0.00  0.00    +0.000 C 
ATOM      3  C   UNL     1      -0.597  14.634  19.871  0.00  0.00    +0.000 C 
ATOM      4  N   UNL     1      -1.957  12.912  18.813  0.00  0.00    +0.000 N 
ATOM      5  C   UNL     1      -2.255  11.731  18.257  0.00  0.00    +0.000 A 
ATOM      6  N   UNL     1      -3.399  11.248  17.847  0.00  0.00    +0.000 NA
ATOM      7  C   UNL     1      -3.050  10.008  17.389  0.00  0.00    +0.000 A 
ATOM      8  N   UNL     1      -1.747   9.713  17.441  0.00  0.00    +0.000 NA
ATOM      9  N   UNL     1      -1.263  10.805  18.067  0.00  0.00    +0.000 N 
ATOM     10  C   UNL     1       0.137  10.992  18.474  0.00  0.00    +0.000 C 
ATOM     11  H   UNL     1      -2.711  13.582  18.956  0.00  0.00    +0.000 HD
ENDROOT
BRANCH  10  12
ATOM     12  C   UNL     1       0.480  10.007  19.613  0.00  0.00    +0.000 A 
ATOM     13  C   UNL     1      -0.027  10.297  20.905  0.00  0.00    +0.000 A 
ATOM     14  C   UNL     1       0.267   9.505  22.011  0.00  0.00    +0.000 A 
ATOM     15  C   UNL     1       1.090   8.408  21.859  0.00  0.00    +0.000 A 
ATOM     16  C   UNL     1       1.591   8.083  20.600  0.00  0.00    +0.000 A 
ATOM     17  C   UNL     1       1.257   8.836  19.457  0.00  0.00    +0.000 A 
BRANCH  17  18
ATOM     18  O   UNL     1       1.668   8.446  18.200  0.00  0.00    +0.000 OA
BRANCH  18  19
ATOM     19  C   UNL     1       3.006   7.884  18.086  0.00  0.00    +0.000 C 
BRANCH  19  20
ATOM     20  C   UNL     1       3.042   6.373  18.236  0.00  0.00    +0.000 A 
ATOM     21  C   UNL     1       1.952   5.623  17.783  0.00  0.00    +0.000 A 
ATOM     22  C   UNL     1       1.853   4.262  18.062  0.00  0.00    +0.000 A 
ATOM     23  C   UNL     1       2.870   3.620  18.761  0.00  0.00    +0.000 A 
ATOM     24  C   UNL     1       4.003   4.334  19.150  0.00  0.00    +0.000 A 
ATOM     25  C   UNL     1       4.096   5.705  18.882  0.00  0.00    +0.000 A 
ENDBRANCH  19  20
ENDBRANCH  18  19
ENDBRANCH  17  18
ENDBRANCH  10  12
BRANCH   1  27
ATOM     26  C   UNL     1       2.753  13.158  18.156  0.00  0.00    +0.000 C 
ATOM     27  C   UNL     1       1.789  12.846  19.274  0.00  0.00    +0.000 C 
ATOM     28  O   UNL     1       2.150  12.951  20.446  0.00  0.00    +0.000 OA
ENDBRANCH   1  27
TORSDOF 5
ENDMDL
MODEL 8
REMARK VINA RESULT:      -7.0      1.544      1.944
REMARK  Name = 
REMARK  7 active torsions:
REMARK  status: ('A' for Active; 'I' for Inactive)
REMARK    1  A    between atoms: C_1  and  C_2
REMARK    2  A    between atoms: C_2  and  C_4
REMARK    3  A    between atoms: C_5  and  C_6
REMARK    4  A    between atoms: C_13  and  C_14
REMARK    5  A    between atoms: C_19  and  O_20
REMARK    6  A    between atoms: O_20  and  C_21
REMARK    7  A    between atoms: C_21  and  C_22
REMARK                            x       y       z     vdW  Elec       q    Type
REMARK                         _______ _______ _______ _____ _____    ______ ____
ROOT
ATOM      1  C   UNL     1      -0.492  12.733  19.743  0.00  0.00    +0.000 C 
ATOM      2  C   UNL     1      -1.721  13.275  19.927  0.00  0.00    +0.000 C 
ATOM      3  C   UNL     1      -2.053  14.426  20.857  0.00  0.00    +0.000 C 
ATOM      4  N   UNL     1      -2.837  12.704  19.323  0.00  0.00    +0.000 N 
ATOM      5  C   UNL     1      -2.783  11.619  18.540  0.00  0.00    +0.000 A 
ATOM      6  N   UNL     1      -3.724  11.002  17.874  0.00  0.00    +0.000 NA
ATOM      7  C   UNL     1      -3.045   9.974  17.283  0.00  0.00    +0.000 A 
ATOM      8  N   UNL     1      -1.725   9.948  17.497  0.00  0.00    +0.000 NA
ATOM      9  N   UNL     1      -1.588  10.972  18.364  0.00  0.00    +0.000 N 
ATOM     10  C   UNL     1      -0.330  11.358  19.021  0.00  0.00    +0.000 C 
ATOM     11  H   UNL     1      -3.737  13.164  19.449  0.00  0.00    +0.000 HD
ENDROOT
BRANCH  10  12
ATOM     12  C   UNL     1       0.089  10.260  20.023  0.00  0.00    +0.000 A 
ATOM     13  C   UNL     1      -0.693  10.112  21.197  0.00  0.00    +0.000 A 
ATOM     14  C   UNL     1      -0.371   9.191  22.190  0.00  0.00    +0.000 A 
ATOM     15  C   UNL     1       0.750   8.402  22.043  0.00  0.00    +0.000 A 
ATOM     16  C   UNL     1       1.530   8.507  20.893  0.00  0.00    +0.000 A 
ATOM     17  C   UNL     1       1.189   9.390  19.849  0.00  0.00    +0.000 A 
BRANCH  17  18
ATOM     18  O   UNL     1       1.903   9.411  18.670  0.00  0.00    +0.000 OA
BRANCH  18  19
ATOM     19  C   UNL     1       1.647   8.336  17.722  0.00  0.00    +0.000 C 
BRANCH  19  20
ATOM     20  C   UNL     1       2.636   7.188  17.827  0.00  0.00    +0.000 A 
ATOM     21  C   UNL     1       3.962   7.403  17.442  0.00  0.00    +0.000 A 
ATOM     22  C   UNL     1       4.861   6.343  17.343  0.00  0.00    +0.000 A 
ATOM     23  C   UNL     1       4.455   5.054  17.674  0.00  0.00    +0.000 A 
ATOM     24  C   UNL     1       3.159   4.833  18.138  0.00  0.00    +0.000 A 
ATOM     25  C   UNL     1       2.252   5.896  18.224  0.00  0.00    +0.000 A 
ENDBRANCH  19  20
ENDBRANCH  18  19
ENDBRANCH  17  18
ENDBRANCH  10  12
BRANCH   1  27
ATOM     26  C   UNL     1       1.663  14.150  19.522  0.00  0.00    +0.000 C 
ATOM     27  C   UNL     1       0.737  13.317  20.373  0.00  0.00    +0.000 C 
ATOM     28  O   UNL     1       0.969  13.167  21.573  0.00  0.00    +0.000 OA
ENDBRANCH   1  27
TORSDOF 5
ENDMDL
MODEL 9
REMARK VINA RESULT:      -6.9      2.194      5.482
REMARK  Name = 
REMARK  7 active torsions:
REMARK  status: ('A' for Active; 'I' for Inactive)
REMARK    1  A    between atoms: C_1  and  C_2
REMARK    2  A    between atoms: C_2  and  C_4
REMARK    3  A    between atoms: C_5  and  C_6
REMARK    4  A    between atoms: C_13  and  C_14
REMARK    5  A    between atoms: C_19  and  O_20
REMARK    6  A    between atoms: O_20  and  C_21
REMARK    7  A    between atoms: C_21  and  C_22
REMARK                            x       y       z     vdW  Elec       q    Type
REMARK                         _______ _______ _______ _____ _____    ______ ____
ROOT
ATOM      1  C   UNL     1       0.126  12.522  18.993  0.00  0.00    +0.000 C 
ATOM      2  C   UNL     1      -0.930  13.289  19.359  0.00  0.00    +0.000 C 
ATOM      3  C   UNL     1      -0.859  14.566  20.174  0.00  0.00    +0.000 C 
ATOM      4  N   UNL     1      -2.228  12.868  19.090  0.00  0.00    +0.000 N 
ATOM      5  C   UNL     1      -2.522  11.718  18.469  0.00  0.00    +0.000 A 
ATOM      6  N   UNL     1      -3.674  11.216  18.110  0.00  0.00    +0.000 NA
ATOM      7  C   UNL     1      -3.314  10.031  17.532  0.00  0.00    +0.000 A 
ATOM      8  N   UNL     1      -2.000   9.792  17.462  0.00  0.00    +0.000 NA
ATOM      9  N   UNL     1      -1.512  10.856  18.133  0.00  0.00    +0.000 N 
ATOM     10  C   UNL     1      -0.093  11.075  18.447  0.00  0.00    +0.000 C 
ATOM     11  H   UNL     1      -2.995  13.490  19.341  0.00  0.00    +0.000 HD
ENDROOT
BRANCH  10  12
ATOM     12  C   UNL     1       0.378  10.025  19.477  0.00  0.00    +0.000 A 
ATOM     13  C   UNL     1       1.357   9.089  19.058  0.00  0.00    +0.000 A 
ATOM     14  C   UNL     1       1.809   8.068  19.889  0.00  0.00    +0.000 A 
ATOM     15  C   UNL     1       1.284   7.946  21.158  0.00  0.00    +0.000 A 
ATOM     16  C   UNL     1       0.334   8.861  21.610  0.00  0.00    +0.000 A 
ATOM     17  C   UNL     1      -0.093   9.936  20.807  0.00  0.00    +0.000 A 
BRANCH  17  18
ATOM     18  O   UNL     1      -0.951  10.897  21.299  0.00  0.00    +0.000 OA
BRANCH  18  19
ATOM     19  C   UNL     1      -0.835  11.227  22.712  0.00  0.00    +0.000 C 
BRANCH  19  20
ATOM     20  C   UNL     1      -1.756  12.352  23.149  0.00  0.00    +0.000 A 
ATOM     21  C   UNL     1      -1.202  13.601  23.446  0.00  0.00    +0.000 A 
ATOM     22  C   UNL     1      -1.972  14.607  24.025  0.00  0.00    +0.000 A 
ATOM     23  C   UNL     1      -3.324  14.393  24.273  0.00  0.00    +0.000 A 
ATOM     24  C   UNL     1      -3.912  13.183  23.907  0.00  0.00    +0.000 A 
ATOM     25  C   UNL     1      -3.135  12.167  23.339  0.00  0.00    +0.000 A 
ENDBRANCH  19  20
ENDBRANCH  18  19
ENDBRANCH  17  18
ENDBRANCH  10  12
BRANCH   1  27
ATOM     26  C   UNL     1       2.394  13.403  18.107  0.00  0.00    +0.000 C 
ATOM     27  C   UNL     1       1.542  12.938  19.262  0.00  0.00    +0.000 C 
ATOM     28  O   UNL     1       1.995  12.952  20.406  0.00  0.00    +0.000 OA
ENDBRANCH   1  27
TORSDOF 5
ENDMDL
