MODEL 1
REMARK VINA RESULT:      -7.0      0.000      0.000
REMARK  Name = 
REMARK  5 active torsions:
REMARK  status: ('A' for Active; 'I' for Inactive)
REMARK    1  A    between atoms: C_1  and  C_2
REMARK    2  A    between atoms: C_2  and  O_3
REMARK    3  A    between atoms: O_3  and  C_4
REMARK    4  A    between atoms: C_4  and  C_6
REMARK    5  A    between atoms: C_8  and  C_9
REMARK                            x       y       z     vdW  Elec       q    Type
REMARK                         _______ _______ _______ _____ _____    ______ ____
ROOT
ATOM      1  C   UNL     1       6.144   4.458  16.420  0.00  0.00    +0.000 A 
ATOM      2  N   UNL     1       4.884   4.249  16.755  0.00  0.00    +0.000 NA
ATOM      3  C   UNL     1       4.775   4.335  18.150  0.00  0.00    +0.000 A 
ATOM      4  N   UNL     1       5.888   4.585  18.856  0.00  0.00    +0.000 NA
ATOM      5  S   UNL     1       7.144   4.723  17.777  0.00  0.00    +0.000 S 
ENDROOT
BRANCH   3   6
ATOM      6  C   UNL     1       3.477   4.160  18.815  0.00  0.00    +0.000 A 
ATOM      7  C   UNL     1       3.203   4.785  20.036  0.00  0.00    +0.000 A 
ATOM      8  C   UNL     1       1.958   4.617  20.658  0.00  0.00    +0.000 A 
ATOM      9  C   UNL     1       0.980   3.820  20.063  0.00  0.00    +0.000 A 
ATOM     10  C   UNL     1       1.241   3.191  18.850  0.00  0.00    +0.000 A 
ATOM     11  C   UNL     1       2.479   3.360  18.228  0.00  0.00    +0.000 A 
ENDBRANCH   3   6
BRANCH   1  12
ATOM     12  C   UNL     1       6.693   4.563  15.088  0.00  0.00    +0.000 C 
ATOM     13  O   UNL     1       7.650   5.256  14.759  0.00  0.00    +0.000 OA
BRANCH  12  14
ATOM     14  O   UNL     1       5.926   3.858  14.204  0.00  0.00    +0.000 OA
BRANCH  14  16
ATOM     15  C   UNL     1       5.382   3.167  11.986  0.00  0.00    +0.000 C 
ATOM     16  C   UNL     1       6.453   3.778  12.872  0.00  0.00    +0.000 C 
ENDBRANCH  14  16
ENDBRANCH  12  14
ENDBRANCH   1  12
TORSDOF 4
ENDMDL
MODEL 2
REMARK VINA RESULT:      -7.0      2.395      3.239
REMARK  Name = 
REMARK  5 active torsions:
REMARK  status: ('A' for Active; 'I' for Inactive)
REMARK    1  A    between atoms: C_1  and  C_2
REMARK    2  A    between atoms: C_2  and  O_3
REMARK    3  A    between atoms: O_3  and  C_4
REMARK    4  A    between atoms: C_4  and  C_6
REMARK    5  A    between atoms: C_8  and  C_9
REMARK                            x       y       z     vdW  Elec       q    Type
REMARK                         _______ _______ _______ _____ _____    ______ ____
ROOT
ATOM      1  C   UNL     1       5.979   4.520  17.332  0.00  0.00    +0.000 A 
ATOM      2  N   UNL     1       5.334   4.357  18.473  0.00  0.00    +0.000 NA
ATOM      3  C   UNL     1       4.034   3.917  18.189  0.00  0.00    +0.000 A 
ATOM      4  N   UNL     1       3.688   3.758  16.903  0.00  0.00    +0.000 NA
ATOM      5  S   UNL     1       5.005   4.165  15.976  0.00  0.00    +0.000 S 
ENDROOT
BRANCH   3   6
ATOM      6  C   UNL     1       3.083   3.635  19.273  0.00  0.00    +0.000 A 
ATOM      7  C   UNL     1       1.782   4.150  19.242  0.00  0.00    +0.000 A 
ATOM      8  C   UNL     1       0.880   3.869  20.277  0.00  0.00    +0.000 A 
ATOM      9  C   UNL     1       1.276   3.073  21.353  0.00  0.00    +0.000 A 
ATOM     10  C   UNL     1       2.567   2.557  21.397  0.00  0.00    +0.000 A 
ATOM     11  C   UNL     1       3.465   2.834  20.364  0.00  0.00    +0.000 A 
ENDBRANCH   3   6
BRANCH   1  12
ATOM     12  C   UNL     1       7.371   4.862  17.150  0.00  0.00    +0.000 C 
ATOM     13  O   UNL     1       8.328   4.218  17.568  0.00  0.00    +0.000 OA
BRANCH  12  14
ATOM     14  O   UNL     1       7.482   6.076  16.533  0.00  0.00    +0.000 OA
BRANCH  14  16
ATOM     15  C   UNL     1       8.033   7.871  18.005  0.00  0.00    +0.000 C 
ATOM     16  C   UNL     1       6.911   7.177  17.252  0.00  0.00    +0.000 C 
ENDBRANCH  14  16
ENDBRANCH  12  14
ENDBRANCH   1  12
TORSDOF 4
ENDMDL
MODEL 3
REMARK VINA RESULT:      -7.0      0.600      1.278
REMARK  Name = 
REMARK  5 active torsions:
REMARK  status: ('A' for Active; 'I' for Inactive)
REMARK    1  A    between atoms: C_1  and  C_2
REMARK    2  A    between atoms: C_2  and  O_3
REMARK    3  A    between atoms: O_3  and  C_4
REMARK    4  A    between atoms: C_4  and  C_6
REMARK    5  A    between atoms: C_8  and  C_9
REMARK                            x       y       z     vdW  Elec       q    Type
REMARK                         _______ _______ _______ _____ _____    ______ ____
ROOT
ATOM      1  C   UNL     1       6.059   4.414  16.270  0.00  0.00    +0.000 A 
ATOM      2  N   UNL     1       4.831   4.045  16.587  0.00  0.00    +0.000 NA
ATOM      3  C   UNL     1       4.728   3.996  17.983  0.00  0.00    +0.000 A 
ATOM      4  N   UNL     1       5.816   4.301  18.707  0.00  0.00    +0.000 NA
ATOM      5  S   UNL     1       7.040   4.664  17.644  0.00  0.00    +0.000 S 
ENDROOT
BRANCH   3   6
ATOM      6  C   UNL     1       3.462   3.628  18.631  0.00  0.00    +0.000 A 
ATOM      7  C   UNL     1       2.335   3.293  17.871  0.00  0.00    +0.000 A 
ATOM      8  C   UNL     1       1.134   2.936  18.499  0.00  0.00    +0.000 A 
ATOM      9  C   UNL     1       1.052   2.914  19.891  0.00  0.00    +0.000 A 
ATOM     10  C   UNL     1       2.165   3.247  20.658  0.00  0.00    +0.000 A 
ATOM     11  C   UNL     1       3.362   3.600  20.033  0.00  0.00    +0.000 A 
ENDBRANCH   3   6
BRANCH   1  12
ATOM     12  C   UNL     1       6.581   4.692  14.952  0.00  0.00    +0.000 C 
ATOM     13  O   UNL     1       7.629   5.279  14.705  0.00  0.00    +0.000 OA
BRANCH  12  14
ATOM     14  O   UNL     1       5.684   4.303  13.997  0.00  0.00    +0.000 OA
BRANCH  14  16
ATOM     15  C   UNL     1       5.117   3.227  11.944  0.00  0.00    +0.000 C 
ATOM     16  C   UNL     1       6.251   3.601  12.883  0.00  0.00    +0.000 C 
ENDBRANCH  14  16
ENDBRANCH  12  14
ENDBRANCH   1  12
TORSDOF 4
ENDMDL
MODEL 4
REMARK VINA RESULT:      -6.8      1.152      1.654
REMARK  Name = 
REMARK  5 active torsions:
REMARK  status: ('A' for Active; 'I' for Inactive)
REMARK    1  A    between atoms: C_1  and  C_2
REMARK    2  A    between atoms: C_2  and  O_3
REMARK    3  A    between atoms: O_3  and  C_4
REMARK    4  A    between atoms: C_4  and  C_6
REMARK    5  A    between atoms: C_8  and  C_9
REMARK                            x       y       z     vdW  Elec       q    Type
REMARK                         _______ _______ _______ _____ _____    ______ ____
ROOT
ATOM      1  C   UNL     1       5.394   5.134  16.083  0.00  0.00    +0.000 A 
ATOM      2  N   UNL     1       4.491   4.325  16.607  0.00  0.00    +0.000 NA
ATOM      3  C   UNL     1       3.832   5.005  17.640  0.00  0.00    +0.000 A 
ATOM      4  N   UNL     1       4.209   6.265  17.907  0.00  0.00    +0.000 NA
ATOM      5  S   UNL     1       5.433   6.655  16.855  0.00  0.00    +0.000 S 
ENDROOT
BRANCH   3   6
ATOM      6  C   UNL     1       2.757   4.355  18.402  0.00  0.00    +0.000 A 
ATOM      7  C   UNL     1       2.168   3.170  17.948  0.00  0.00    +0.000 A 
ATOM      8  C   UNL     1       1.148   2.554  18.686  0.00  0.00    +0.000 A 
ATOM      9  C   UNL     1       0.709   3.122  19.882  0.00  0.00    +0.000 A 
ATOM     10  C   UNL     1       1.285   4.302  20.343  0.00  0.00    +0.000 A 
ATOM     11  C   UNL     1       2.303   4.914  19.610  0.00  0.00    +0.000 A 
ENDBRANCH   3   6
BRANCH   1  12
ATOM     12  C   UNL     1       6.231   4.888  14.931  0.00  0.00    +0.000 C 
ATOM     13  O   UNL     1       7.377   5.298  14.776  0.00  0.00    +0.000 OA
BRANCH  12  14
ATOM     14  O   UNL     1       5.527   4.216  13.971  0.00  0.00    +0.000 OA
BRANCH  14  16
ATOM     15  C   UNL     1       5.371   3.039  11.901  0.00  0.00    +0.000 C 
ATOM     16  C   UNL     1       6.314   3.719  12.880  0.00  0.00    +0.000 C 
ENDBRANCH  14  16
ENDBRANCH  12  14
ENDBRANCH   1  12
TORSDOF 4
ENDMDL
MODEL 5
REMARK VINA RESULT:      -6.8      1.616      2.029
REMARK  Name = 
REMARK  5 active torsions:
REMARK  status: ('A' for Active; 'I' for Inactive)
REMARK    1  A    between atoms: C_1  and  C_2
REMARK    2  A    between atoms: C_2  and  O_3
REMARK    3  A    between atoms: O_3  and  C_4
REMARK    4  A    between atoms: C_4  and  C_6
REMARK    5  A    between atoms: C_8  and  C_9
REMARK                            x       y       z     vdW  Elec       q    Type
REMARK                         _______ _______ _______ _____ _____    ______ ____
ROOT
ATOM      1  C   UNL     1       5.922   5.147  17.408  0.00  0.00    +0.000 A 
ATOM      2  N   UNL     1       5.264   4.327  18.208  0.00  0.00    +0.000 NA
ATOM      3  C   UNL     1       4.070   4.950  18.598  0.00  0.00    +0.000 A 
ATOM      4  N   UNL     1       3.822   6.183  18.134  0.00  0.00    +0.000 NA
ATOM      5  S   UNL     1       5.103   6.626  17.174  0.00  0.00    +0.000 S 
ENDROOT
BRANCH   3   6
ATOM      6  C   UNL     1       3.120   4.264  19.483  0.00  0.00    +0.000 A 
ATOM      7  C   UNL     1       1.764   4.611  19.491  0.00  0.00    +0.000 A 
ATOM      8  C   UNL     1       0.864   3.945  20.335  0.00  0.00    +0.000 A 
ATOM      9  C   UNL     1       1.316   2.930  21.178  0.00  0.00    +0.000 A 
ATOM     10  C   UNL     1       2.662   2.578  21.181  0.00  0.00    +0.000 A 
ATOM     11  C   UNL     1       3.558   3.238  20.339  0.00  0.00    +0.000 A 
ENDBRANCH   3   6
BRANCH   1  12
ATOM     12  C   UNL     1       7.148   4.880  16.693  0.00  0.00    +0.000 C 
ATOM     13  O   UNL     1       8.093   4.217  17.109  0.00  0.00    +0.000 OA
BRANCH  12  14
ATOM     14  O   UNL     1       7.164   5.566  15.510  0.00  0.00    +0.000 OA
BRANCH  14  16
ATOM     15  C   UNL     1       5.819   4.191  14.098  0.00  0.00    +0.000 C 
ATOM     16  C   UNL     1       7.213   4.746  14.335  0.00  0.00    +0.000 C 
ENDBRANCH  14  16
ENDBRANCH  12  14
ENDBRANCH   1  12
TORSDOF 4
ENDMDL
MODEL 6
REMARK VINA RESULT:      -6.8      1.416      1.631
REMARK  Name = 
REMARK  5 active torsions:
REMARK  status: ('A' for Active; 'I' for Inactive)
REMARK    1  A    between atoms: C_1  and  C_2
REMARK    2  A    between atoms: C_2  and  O_3
REMARK    3  A    between atoms: O_3  and  C_4
REMARK    4  A    between atoms: C_4  and  C_6
REMARK    5  A    between atoms: C_8  and  C_9
REMARK                            x       y       z     vdW  Elec       q    Type
REMARK                         _______ _______ _______ _____ _____    ______ ____
ROOT
ATOM      1  C   UNL     1       5.661   5.296  16.853  0.00  0.00    +0.000 A 
ATOM      2  N   UNL     1       4.875   4.428  17.465  0.00  0.00    +0.000 NA
ATOM      3  C   UNL     1       3.738   5.106  17.925  0.00  0.00    +0.000 A 
ATOM      4  N   UNL     1       3.652   6.424  17.692  0.00  0.00    +0.000 NA
ATOM      5  S   UNL     1       5.023   6.879  16.873  0.00  0.00    +0.000 S 
ENDROOT
BRANCH   3   6
ATOM      6  C   UNL     1       2.673   4.388  18.637  0.00  0.00    +0.000 A 
ATOM      7  C   UNL     1       2.260   4.790  19.913  0.00  0.00    +0.000 A 
ATOM      8  C   UNL     1       1.237   4.102  20.579  0.00  0.00    +0.000 A 
ATOM      9  C   UNL     1       0.622   3.005  19.976  0.00  0.00    +0.000 A 
ATOM     10  C   UNL     1       1.025   2.594  18.709  0.00  0.00    +0.000 A 
ATOM     11  C   UNL     1       2.041   3.281  18.043  0.00  0.00    +0.000 A 
ENDBRANCH   3   6
BRANCH   1  12
ATOM     12  C   UNL     1       6.886   5.021  16.139  0.00  0.00    +0.000 C 
ATOM     13  O   UNL     1       7.861   4.428  16.589  0.00  0.00    +0.000 OA
BRANCH  12  14
ATOM     14  O   UNL     1       6.858   5.613  14.908  0.00  0.00    +0.000 OA
BRANCH  14  16
ATOM     15  C   UNL     1       6.044   3.839  13.536  0.00  0.00    +0.000 C 
ATOM     16  C   UNL     1       7.220   4.758  13.815  0.00  0.00    +0.000 C 
ENDBRANCH  14  16
ENDBRANCH  12  14
ENDBRANCH   1  12
TORSDOF 4
ENDMDL
MODEL 7
REMARK VINA RESULT:      -6.8      2.375      3.115
REMARK  Name = 
REMARK  5 active torsions:
REMARK  status: ('A' for Active; 'I' for Inactive)
REMARK    1  A    between atoms: C_1  and  C_2
REMARK    2  A    between atoms: C_2  and  O_3
REMARK    3  A    between atoms: O_3  and  C_4
REMARK    4  A    between atoms: C_4  and  C_6
REMARK    5  A    between atoms: C_8  and  C_9
REMARK                            x       y       z     vdW  Elec       q    Type
REMARK                         _______ _______ _______ _____ _____    ______ ____
ROOT
ATOM      1  C   UNL     1       6.007   4.515  17.301  0.00  0.00    +0.000 A 
ATOM      2  N   UNL     1       5.276   4.326  18.385  0.00  0.00    +0.000 NA
ATOM      3  C   UNL     1       3.994   3.920  17.992  0.00  0.00    +0.000 A 
ATOM      4  N   UNL     1       3.742   3.810  16.679  0.00  0.00    +0.000 NA
ATOM      5  S   UNL     1       5.130   4.225  15.866  0.00  0.00    +0.000 S 
ENDROOT
BRANCH   3   6
ATOM      6  C   UNL     1       2.961   3.619  18.992  0.00  0.00    +0.000 A 
ATOM      7  C   UNL     1       3.163   3.911  20.346  0.00  0.00    +0.000 A 
ATOM      8  C   UNL     1       2.168   3.627  21.291  0.00  0.00    +0.000 A 
ATOM      9  C   UNL     1       0.966   3.046  20.889  0.00  0.00    +0.000 A 
ATOM     10  C   UNL     1       0.754   2.748  19.546  0.00  0.00    +0.000 A 
ATOM     11  C   UNL     1       1.743   3.034  18.603  0.00  0.00    +0.000 A 
ENDBRANCH   3   6
BRANCH   1  12
ATOM     12  C   UNL     1       7.413   4.838  17.234  0.00  0.00    +0.000 C 
ATOM     13  O   UNL     1       8.322   4.195  17.750  0.00  0.00    +0.000 OA
BRANCH  12  14
ATOM     14  O   UNL     1       7.594   6.035  16.599  0.00  0.00    +0.000 OA
BRANCH  14  16
ATOM     15  C   UNL     1       8.118   7.747  18.177  0.00  0.00    +0.000 C 
ATOM     16  C   UNL     1       7.039   7.170  17.277  0.00  0.00    +0.000 C 
ENDBRANCH  14  16
ENDBRANCH  12  14
ENDBRANCH   1  12
TORSDOF 4
ENDMDL
MODEL 8
REMARK VINA RESULT:      -6.7      1.179      1.334
REMARK  Name = 
REMARK  5 active torsions:
REMARK  status: ('A' for Active; 'I' for Inactive)
REMARK    1  A    between atoms: C_1  and  C_2
REMARK    2  A    between atoms: C_2  and  O_3
REMARK    3  A    between atoms: O_3  and  C_4
REMARK    4  A    between atoms: C_4  and  C_6
REMARK    5  A    between atoms: C_8  and  C_9
REMARK                            x       y       z     vdW  Elec       q    Type
REMARK                         _______ _______ _______ _____ _____    ______ ____
ROOT
ATOM      1  C   UNL     1       6.219   4.443  15.745  0.00  0.00    +0.000 A 
ATOM      2  N   UNL     1       4.995   4.009  15.984  0.00  0.00    +0.000 NA
ATOM      3  C   UNL     1       4.808   3.949  17.372  0.00  0.00    +0.000 A 
ATOM      4  N   UNL     1       5.831   4.307  18.162  0.00  0.00    +0.000 NA
ATOM      5  S   UNL     1       7.098   4.739  17.178  0.00  0.00    +0.000 S 
ENDROOT
BRANCH   3   6
ATOM      6  C   UNL     1       3.526   3.511  17.938  0.00  0.00    +0.000 A 
ATOM      7  C   UNL     1       3.416   2.290  18.615  0.00  0.00    +0.000 A 
ATOM      8  C   UNL     1       2.190   1.886  19.159  0.00  0.00    +0.000 A 
ATOM      9  C   UNL     1       1.063   2.698  19.026  0.00  0.00    +0.000 A 
ATOM     10  C   UNL     1       1.158   3.912  18.354  0.00  0.00    +0.000 A 
ATOM     11  C   UNL     1       2.380   4.318  17.815  0.00  0.00    +0.000 A 
ENDBRANCH   3   6
BRANCH   1  12
ATOM     12  C   UNL     1       6.806   4.754  14.462  0.00  0.00    +0.000 C 
ATOM     13  O   UNL     1       7.826   5.412  14.280  0.00  0.00    +0.000 OA
BRANCH  12  14
ATOM     14  O   UNL     1       6.003   4.303  13.453  0.00  0.00    +0.000 OA
BRANCH  14  16
ATOM     15  C   UNL     1       5.697   2.658  11.751  0.00  0.00    +0.000 C 
ATOM     16  C   UNL     1       6.686   3.614  12.396  0.00  0.00    +0.000 C 
ENDBRANCH  14  16
ENDBRANCH  12  14
ENDBRANCH   1  12
TORSDOF 4
ENDMDL
MODEL 9
REMARK VINA RESULT:      -6.6      2.420      3.547
REMARK  Name = 
REMARK  5 active torsions:
REMARK  status: ('A' for Active; 'I' for Inactive)
REMARK    1  A    between atoms: C_1  and  C_2
REMARK    2  A    between atoms: C_2  and  O_3
REMARK    3  A    between atoms: O_3  and  C_4
REMARK    4  A    between atoms: C_4  and  C_6
REMARK    5  A    between atoms: C_8  and  C_9
REMARK                            x       y       z     vdW  Elec       q    Type
REMARK                         _______ _______ _______ _____ _____    ______ ____
ROOT
ATOM      1  C   UNL     1       5.706   5.628  17.405  0.00  0.00    +0.000 A 
ATOM      2  N   UNL     1       5.089   4.756  18.181  0.00  0.00    +0.000 NA
ATOM      3  C   UNL     1       3.754   5.157  18.326  0.00  0.00    +0.000 A 
ATOM      4  N   UNL     1       3.362   6.280  17.705  0.00  0.00    +0.000 NA
ATOM      5  S   UNL     1       4.679   6.894  16.901  0.00  0.00    +0.000 S 
ENDROOT
BRANCH   3   6
ATOM      6  C   UNL     1       2.814   4.365  19.130  0.00  0.00    +0.000 A 
ATOM      7  C   UNL     1       1.963   3.430  18.530  0.00  0.00    +0.000 A 
ATOM      8  C   UNL     1       1.076   2.674  19.308  0.00  0.00    +0.000 A 
ATOM      9  C   UNL     1       1.031   2.851  20.691  0.00  0.00    +0.000 A 
ATOM     10  C   UNL     1       1.870   3.779  21.299  0.00  0.00    +0.000 A 
ATOM     11  C   UNL     1       2.757   4.530  20.526  0.00  0.00    +0.000 A 
ENDBRANCH   3   6
BRANCH   1  12
ATOM     12  C   UNL     1       7.060   5.556  16.906  0.00  0.00    +0.000 C 
ATOM     13  O   UNL     1       7.681   4.526  16.662  0.00  0.00    +0.000 OA
BRANCH  12  14
ATOM     14  O   UNL     1       7.608   6.806  16.843  0.00  0.00    +0.000 OA
BRANCH  14  16
ATOM     15  C   UNL     1       8.202   8.857  17.908  0.00  0.00    +0.000 C 
ATOM     16  C   UNL     1       7.989   7.366  18.107  0.00  0.00    +0.000 C 
ENDBRANCH  14  16
ENDBRANCH  12  14
ENDBRANCH   1  12
TORSDOF 4
ENDMDL
