MODEL 1
REMARK VINA RESULT:      -8.1      0.000      0.000
REMARK  Name = 
REMARK  7 active torsions:
REMARK  status: ('A' for Active; 'I' for Inactive)
REMARK    1  A    between atoms: C_1  and  C_2
REMARK    2  A    between atoms: N_6  and  C_7
REMARK    3  A    between atoms: C_10  and  O_11
REMARK    4  A    between atoms: C_12  and  O_13
REMARK    5  A    between atoms: C_14  and  O_15
REMARK    6  A    between atoms: C_18  and  C_19
REMARK    7  A    between atoms: C_26  and  O_27
REMARK                            x       y       z     vdW  Elec       q    Type
REMARK                         _______ _______ _______ _____ _____    ______ ____
ROOT
ATOM      1  C   UNL     1       1.641  12.415  18.127  0.00  0.00    +0.000 C 
ATOM      2  C   UNL     1       1.053  11.471  19.147  0.00  0.00    +0.000 A 
ATOM      3  C   UNL     1       1.355  10.084  19.175  0.00  0.00    +0.000 A 
ATOM      4  C   UNL     1       2.163   9.472  18.195  0.00  0.00    +0.000 A 
ATOM      5  C   UNL     1       2.541   8.137  18.301  0.00  0.00    +0.000 A 
ATOM      6  N   UNL     1       2.116   7.405  19.342  0.00  0.00    +0.000 N 
ATOM      7  C   UNL     1       1.249   7.937  20.230  0.00  0.00    +0.000 A 
ATOM      8  C   UNL     1       0.845   9.271  20.212  0.00  0.00    +0.000 A 
ATOM      9  C   UNL     1      -0.024   9.794  21.219  0.00  0.00    +0.000 A 
ATOM     10  C   UNL     1      -0.596   8.955  22.337  0.00  0.00    +0.000 C 
ATOM     11  C   UNL     1      -0.391  11.161  21.132  0.00  0.00    +0.000 A 
ATOM     12  C   UNL     1       0.137  11.942  20.111  0.00  0.00    +0.000 A 
ATOM     13  N   UNL     1      -0.451  13.192  20.225  0.00  0.00    +0.000 N 
ATOM     14  C   UNL     1      -1.269  13.260  21.324  0.00  0.00    +0.000 A 
ATOM     15  C   UNL     1      -2.046  14.325  21.805  0.00  0.00    +0.000 A 
ATOM     16  C   UNL     1      -2.853  14.097  22.922  0.00  0.00    +0.000 A 
ATOM     17  C   UNL     1      -2.871  12.852  23.522  0.00  0.00    +0.000 A 
ATOM     18  C   UNL     1      -2.092  11.795  23.043  0.00  0.00    +0.000 A 
ATOM     19  C   UNL     1      -1.273  12.000  21.911  0.00  0.00    +0.000 A 
ATOM     20  H   UNL     1      -0.394  13.918  19.514  0.00  0.00    +0.000 HD
ENDROOT
BRANCH   6  21
ATOM     21  C   UNL     1       2.683   6.081  19.710  0.00  0.00    +0.000 C 
ATOM     22  O   UNL     1       3.248   5.489  18.535  0.00  0.00    +0.000 OA
ATOM     23  C   UNL     1       2.416   4.561  17.840  0.00  0.00    +0.000 C 
ATOM     24  C   UNL     1       1.992   3.451  18.793  0.00  0.00    +0.000 C 
ATOM     25  C   UNL     1       1.086   4.078  19.853  0.00  0.00    +0.000 C 
ATOM     26  C   UNL     1       1.837   5.174  20.626  0.00  0.00    +0.000 C 
BRANCH  24  27
ATOM     27  O   UNL     1       3.157   2.930  19.463  0.00  0.00    +0.000 OA
ATOM     28  H   UNL     1       3.874   3.589  19.377  0.00  0.00    +0.000 HD
ENDBRANCH  24  27
BRANCH  25  29
ATOM     29  O   UNL     1       0.612   3.074  20.749  0.00  0.00    +0.000 OA
ATOM     30  H   UNL     1      -0.341   3.244  20.895  0.00  0.00    +0.000 HD
ENDBRANCH  25  29
BRANCH  26  31
ATOM     31  O   UNL     1       2.734   4.540  21.575  0.00  0.00    +0.000 OA
ATOM     32  H   UNL     1       3.615   4.458  21.146  0.00  0.00    +0.000 HD
ENDBRANCH  26  31
ENDBRANCH   6  21
BRANCH  17  33
ATOM     33  O   UNL     1      -3.663  12.589  24.610  0.00  0.00    +0.000 OA
ATOM     34  H   UNL     1      -4.582  12.588  24.308  0.00  0.00    +0.000 HD
ENDBRANCH  17  33
TORSDOF 5
ENDMDL
MODEL 2
REMARK VINA RESULT:      -7.8      1.734      8.665
REMARK  Name = 
REMARK  7 active torsions:
REMARK  status: ('A' for Active; 'I' for Inactive)
REMARK    1  A    between atoms: C_1  and  C_2
REMARK    2  A    between atoms: N_6  and  C_7
REMARK    3  A    between atoms: C_10  and  O_11
REMARK    4  A    between atoms: C_12  and  O_13
REMARK    5  A    between atoms: C_14  and  O_15
REMARK    6  A    between atoms: C_18  and  C_19
REMARK    7  A    between atoms: C_26  and  O_27
REMARK                            x       y       z     vdW  Elec       q    Type
REMARK                         _______ _______ _______ _____ _____    ______ ____
ROOT
ATOM      1  C   UNL     1       0.075  12.861  17.877  0.00  0.00    +0.000 C 
ATOM      2  C   UNL     1      -0.010  11.921  19.055  0.00  0.00    +0.000 A 
ATOM      3  C   UNL     1      -0.744  12.229  20.232  0.00  0.00    +0.000 A 
ATOM      4  C   UNL     1      -1.378  13.475  20.417  0.00  0.00    +0.000 A 
ATOM      5  C   UNL     1      -2.186  13.716  21.524  0.00  0.00    +0.000 A 
ATOM      6  N   UNL     1      -2.354  12.758  22.449  0.00  0.00    +0.000 N 
ATOM      7  C   UNL     1      -1.665  11.600  22.351  0.00  0.00    +0.000 A 
ATOM      8  C   UNL     1      -0.860  11.269  21.262  0.00  0.00    +0.000 A 
ATOM      9  C   UNL     1      -0.210   9.999  21.183  0.00  0.00    +0.000 A 
ATOM     10  C   UNL     1      -0.304   8.952  22.267  0.00  0.00    +0.000 C 
ATOM     11  C   UNL     1       0.593   9.735  20.044  0.00  0.00    +0.000 A 
ATOM     12  C   UNL     1       0.678  10.691  19.039  0.00  0.00    +0.000 A 
ATOM     13  N   UNL     1       1.581  10.204  18.107  0.00  0.00    +0.000 N 
ATOM     14  C   UNL     1       2.011   8.944  18.440  0.00  0.00    +0.000 A 
ATOM     15  C   UNL     1       2.914   8.096  17.780  0.00  0.00    +0.000 A 
ATOM     16  C   UNL     1       3.231   6.878  18.384  0.00  0.00    +0.000 A 
ATOM     17  C   UNL     1       2.661   6.535  19.596  0.00  0.00    +0.000 A 
ATOM     18  C   UNL     1       1.759   7.380  20.247  0.00  0.00    +0.000 A 
ATOM     19  C   UNL     1       1.427   8.621  19.659  0.00  0.00    +0.000 A 
ATOM     20  H   UNL     1       1.979  10.759  17.351  0.00  0.00    +0.000 HD
ENDROOT
BRANCH   6  21
ATOM     21  C   UNL     1      -3.405  12.796  23.499  0.00  0.00    +0.000 C 
ATOM     22  O   UNL     1      -4.584  12.170  22.981  0.00  0.00    +0.000 OA
ATOM     23  C   UNL     1      -5.571  13.046  22.438  0.00  0.00    +0.000 C 
ATOM     24  C   UNL     1      -5.981  14.062  23.496  0.00  0.00    +0.000 C 
ATOM     25  C   UNL     1      -4.768  14.953  23.768  0.00  0.00    +0.000 C 
ATOM     26  C   UNL     1      -3.585  14.115  24.278  0.00  0.00    +0.000 C 
BRANCH  24  27
ATOM     27  O   UNL     1      -6.302  13.372  24.718  0.00  0.00    +0.000 OA
ATOM     28  H   UNL     1      -5.477  12.985  25.073  0.00  0.00    +0.000 HD
ENDBRANCH  24  27
BRANCH  25  29
ATOM     29  O   UNL     1      -5.106  15.963  24.717  0.00  0.00    +0.000 OA
ATOM     30  H   UNL     1      -4.497  15.862  25.477  0.00  0.00    +0.000 HD
ENDBRANCH  25  29
BRANCH  26  31
ATOM     31  O   UNL     1      -3.821  13.780  25.670  0.00  0.00    +0.000 OA
ATOM     32  H   UNL     1      -2.996  13.974  26.170  0.00  0.00    +0.000 HD
ENDBRANCH  26  31
ENDBRANCH   6  21
BRANCH  17  33
ATOM     33  O   UNL     1       2.962   5.354  20.224  0.00  0.00    +0.000 OA
ATOM     34  H   UNL     1       3.887   5.399  20.502  0.00  0.00    +0.000 HD
ENDBRANCH  17  33
TORSDOF 5
ENDMDL
MODEL 3
REMARK VINA RESULT:      -7.8      1.171      1.424
REMARK  Name = 
REMARK  7 active torsions:
REMARK  status: ('A' for Active; 'I' for Inactive)
REMARK    1  A    between atoms: C_1  and  C_2
REMARK    2  A    between atoms: N_6  and  C_7
REMARK    3  A    between atoms: C_10  and  O_11
REMARK    4  A    between atoms: C_12  and  O_13
REMARK    5  A    between atoms: C_14  and  O_15
REMARK    6  A    between atoms: C_18  and  C_19
REMARK    7  A    between atoms: C_26  and  O_27
REMARK                            x       y       z     vdW  Elec       q    Type
REMARK                         _______ _______ _______ _____ _____    ______ ____
ROOT
ATOM      1  C   UNL     1       2.101  11.497  17.647  0.00  0.00    +0.000 C 
ATOM      2  C   UNL     1       1.510  10.653  18.750  0.00  0.00    +0.000 A 
ATOM      3  C   UNL     1       1.807   9.272  18.905  0.00  0.00    +0.000 A 
ATOM      4  C   UNL     1       2.613   8.571  17.985  0.00  0.00    +0.000 A 
ATOM      5  C   UNL     1       2.986   7.250  18.213  0.00  0.00    +0.000 A 
ATOM      6  N   UNL     1       2.559   6.617  19.317  0.00  0.00    +0.000 N 
ATOM      7  C   UNL     1       1.694   7.232  20.153  0.00  0.00    +0.000 A 
ATOM      8  C   UNL     1       1.294   8.560  20.012  0.00  0.00    +0.000 A 
ATOM      9  C   UNL     1       0.429   9.177  20.967  0.00  0.00    +0.000 A 
ATOM     10  C   UNL     1      -0.146   8.446  22.158  0.00  0.00    +0.000 C 
ATOM     11  C   UNL     1       0.066  10.532  20.755  0.00  0.00    +0.000 A 
ATOM     12  C   UNL     1       0.597  11.214  19.666  0.00  0.00    +0.000 A 
ATOM     13  N   UNL     1       0.014  12.471  19.665  0.00  0.00    +0.000 N 
ATOM     14  C   UNL     1      -0.805  12.642  20.753  0.00  0.00    +0.000 A 
ATOM     15  C   UNL     1      -1.577  13.749  21.134  0.00  0.00    +0.000 A 
ATOM     16  C   UNL     1      -2.385  13.628  22.268  0.00  0.00    +0.000 A 
ATOM     17  C   UNL     1      -2.407  12.444  22.980  0.00  0.00    +0.000 A 
ATOM     18  C   UNL     1      -1.632  11.345  22.600  0.00  0.00    +0.000 A 
ATOM     19  C   UNL     1      -0.812  11.442  21.453  0.00  0.00    +0.000 A 
ATOM     20  H   UNL     1       0.073  13.128  18.890  0.00  0.00    +0.000 HD
ENDROOT
BRANCH   6  21
ATOM     21  C   UNL     1       3.121   5.331  19.805  0.00  0.00    +0.000 C 
ATOM     22  O   UNL     1       4.530   5.326  19.547  0.00  0.00    +0.000 OA
ATOM     23  C   UNL     1       4.945   4.666  18.352  0.00  0.00    +0.000 C 
ATOM     24  C   UNL     1       4.446   3.227  18.372  0.00  0.00    +0.000 C 
ATOM     25  C   UNL     1       2.919   3.270  18.289  0.00  0.00    +0.000 C 
ATOM     26  C   UNL     1       2.336   4.043  19.483  0.00  0.00    +0.000 C 
BRANCH  24  27
ATOM     27  O   UNL     1       4.801   2.618  19.628  0.00  0.00    +0.000 OA
ATOM     28  H   UNL     1       5.339   1.824  19.437  0.00  0.00    +0.000 HD
ENDBRANCH  24  27
BRANCH  25  29
ATOM     29  O   UNL     1       2.393   1.945  18.251  0.00  0.00    +0.000 OA
ATOM     30  H   UNL     1       1.468   1.993  18.569  0.00  0.00    +0.000 HD
ENDBRANCH  25  29
BRANCH  26  31
ATOM     31  O   UNL     1       2.383   3.189  20.655  0.00  0.00    +0.000 OA
ATOM     32  H   UNL     1       2.154   3.740  21.438  0.00  0.00    +0.000 HD
ENDBRANCH  26  31
ENDBRANCH   6  21
BRANCH  17  33
ATOM     33  O   UNL     1      -3.199  12.285  24.087  0.00  0.00    +0.000 OA
ATOM     34  H   UNL     1      -3.781  11.530  23.924  0.00  0.00    +0.000 HD
ENDBRANCH  17  33
TORSDOF 5
ENDMDL
MODEL 4
REMARK VINA RESULT:      -7.5      3.431      8.999
REMARK  Name = 
REMARK  7 active torsions:
REMARK  status: ('A' for Active; 'I' for Inactive)
REMARK    1  A    between atoms: C_1  and  C_2
REMARK    2  A    between atoms: N_6  and  C_7
REMARK    3  A    between atoms: C_10  and  O_11
REMARK    4  A    between atoms: C_12  and  O_13
REMARK    5  A    between atoms: C_14  and  O_15
REMARK    6  A    between atoms: C_18  and  C_19
REMARK    7  A    between atoms: C_26  and  O_27
REMARK                            x       y       z     vdW  Elec       q    Type
REMARK                         _______ _______ _______ _____ _____    ______ ____
ROOT
ATOM      1  C   UNL     1       1.923   4.489  21.257  0.00  0.00    +0.000 C 
ATOM      2  C   UNL     1       2.195   5.587  20.258  0.00  0.00    +0.000 A 
ATOM      3  C   UNL     1       1.599   6.873  20.347  0.00  0.00    +0.000 A 
ATOM      4  C   UNL     1       0.642   7.189  21.333  0.00  0.00    +0.000 A 
ATOM      5  C   UNL     1       0.155   8.485  21.477  0.00  0.00    +0.000 A 
ATOM      6  N   UNL     1       0.582   9.454  20.652  0.00  0.00    +0.000 N 
ATOM      7  C   UNL     1       1.410   9.149  19.629  0.00  0.00    +0.000 A 
ATOM      8  C   UNL     1       1.966   7.886  19.433  0.00  0.00    +0.000 A 
ATOM      9  C   UNL     1       2.889   7.641  18.371  0.00  0.00    +0.000 A 
ATOM     10  C   UNL     1       3.298   8.696  17.369  0.00  0.00    +0.000 C 
ATOM     11  C   UNL     1       3.412   6.330  18.236  0.00  0.00    +0.000 A 
ATOM     12  C   UNL     1       3.046   5.356  19.157  0.00  0.00    +0.000 A 
ATOM     13  N   UNL     1       3.633   4.173  18.736  0.00  0.00    +0.000 N 
ATOM     14  C   UNL     1       4.420   4.373  17.630  0.00  0.00    +0.000 A 
ATOM     15  C   UNL     1       5.185   3.458  16.891  0.00  0.00    +0.000 A 
ATOM     16  C   UNL     1       5.845   3.924  15.751  0.00  0.00    +0.000 A 
ATOM     17  C   UNL     1       5.735   5.250  15.379  0.00  0.00    +0.000 A 
ATOM     18  C   UNL     1       4.976   6.159  16.120  0.00  0.00    +0.000 A 
ATOM     19  C   UNL     1       4.294   5.710  17.274  0.00  0.00    +0.000 A 
ATOM     20  H   UNL     1       3.402   3.255  19.110  0.00  0.00    +0.000 HD
ENDROOT
BRANCH   6  21
ATOM     21  C   UNL     1       0.361  10.903  20.893  0.00  0.00    +0.000 C 
ATOM     22  O   UNL     1      -1.046  11.162  20.835  0.00  0.00    +0.000 OA
ATOM     23  C   UNL     1      -1.544  11.639  19.586  0.00  0.00    +0.000 C 
ATOM     24  C   UNL     1      -0.796  12.907  19.195  0.00  0.00    +0.000 C 
ATOM     25  C   UNL     1       0.656  12.516  18.919  0.00  0.00    +0.000 C 
ATOM     26  C   UNL     1       1.296  11.895  20.171  0.00  0.00    +0.000 C 
BRANCH  24  27
ATOM     27  O   UNL     1      -0.801  13.822  20.308  0.00  0.00    +0.000 OA
ATOM     28  H   UNL     1      -1.716  13.881  20.646  0.00  0.00    +0.000 HD
ENDBRANCH  24  27
BRANCH  25  29
ATOM     29  O   UNL     1       1.399  13.658  18.496  0.00  0.00    +0.000 OA
ATOM     30  H   UNL     1       1.501  14.241  19.275  0.00  0.00    +0.000 HD
ENDBRANCH  25  29
BRANCH  26  31
ATOM     31  O   UNL     1       1.619  12.960  21.102  0.00  0.00    +0.000 OA
ATOM     32  H   UNL     1       2.227  12.591  21.782  0.00  0.00    +0.000 HD
ENDBRANCH  26  31
ENDBRANCH   6  21
BRANCH  17  33
ATOM     33  O   UNL     1       6.356   5.737  14.258  0.00  0.00    +0.000 OA
ATOM     34  H   UNL     1       6.880   6.505  14.526  0.00  0.00    +0.000 HD
ENDBRANCH  17  33
TORSDOF 5
ENDMDL
MODEL 5
REMARK VINA RESULT:      -7.4      3.095      9.067
REMARK  Name = 
REMARK  7 active torsions:
REMARK  status: ('A' for Active; 'I' for Inactive)
REMARK    1  A    between atoms: C_1  and  C_2
REMARK    2  A    between atoms: N_6  and  C_7
REMARK    3  A    between atoms: C_10  and  O_11
REMARK    4  A    between atoms: C_12  and  O_13
REMARK    5  A    between atoms: C_14  and  O_15
REMARK    6  A    between atoms: C_18  and  C_19
REMARK    7  A    between atoms: C_26  and  O_27
REMARK                            x       y       z     vdW  Elec       q    Type
REMARK                         _______ _______ _______ _____ _____    ______ ____
ROOT
ATOM      1  C   UNL     1       1.982   4.432  21.232  0.00  0.00    +0.000 C 
ATOM      2  C   UNL     1       2.265   5.526  20.231  0.00  0.00    +0.000 A 
ATOM      3  C   UNL     1       1.696   6.824  20.331  0.00  0.00    +0.000 A 
ATOM      4  C   UNL     1       0.757   7.158  21.329  0.00  0.00    +0.000 A 
ATOM      5  C   UNL     1       0.298   8.462  21.481  0.00  0.00    +0.000 A 
ATOM      6  N   UNL     1       0.736   9.424  20.653  0.00  0.00    +0.000 N 
ATOM      7  C   UNL     1       1.545   9.105  19.620  0.00  0.00    +0.000 A 
ATOM      8  C   UNL     1       2.073   7.832  19.415  0.00  0.00    +0.000 A 
ATOM      9  C   UNL     1       2.979   7.571  18.341  0.00  0.00    +0.000 A 
ATOM     10  C   UNL     1       3.397   8.619  17.337  0.00  0.00    +0.000 C 
ATOM     11  C   UNL     1       3.473   6.249  18.197  0.00  0.00    +0.000 A 
ATOM     12  C   UNL     1       3.098   5.281  19.121  0.00  0.00    +0.000 A 
ATOM     13  N   UNL     1       3.656   4.087  18.690  0.00  0.00    +0.000 N 
ATOM     14  C   UNL     1       4.434   4.274  17.575  0.00  0.00    +0.000 A 
ATOM     15  C   UNL     1       5.172   3.346  16.826  0.00  0.00    +0.000 A 
ATOM     16  C   UNL     1       5.827   3.800  15.679  0.00  0.00    +0.000 A 
ATOM     17  C   UNL     1       5.740   5.129  15.311  0.00  0.00    +0.000 A 
ATOM     18  C   UNL     1       5.008   6.052  16.063  0.00  0.00    +0.000 A 
ATOM     19  C   UNL     1       4.331   5.614  17.224  0.00  0.00    +0.000 A 
ATOM     20  H   UNL     1       3.411   3.173  19.065  0.00  0.00    +0.000 HD
ENDROOT
BRANCH   6  21
ATOM     21  C   UNL     1       0.547  10.877  20.899  0.00  0.00    +0.000 C 
ATOM     22  O   UNL     1       0.231  11.065  22.284  0.00  0.00    +0.000 OA
ATOM     23  C   UNL     1      -1.156  11.175  22.600  0.00  0.00    +0.000 C 
ATOM     24  C   UNL     1      -1.766  12.319  21.799  0.00  0.00    +0.000 C 
ATOM     25  C   UNL     1      -1.728  11.916  20.324  0.00  0.00    +0.000 C 
ATOM     26  C   UNL     1      -0.280  11.672  19.868  0.00  0.00    +0.000 C 
BRANCH  24  27
ATOM     27  O   UNL     1      -0.951  13.496  21.955  0.00  0.00    +0.000 OA
ATOM     28  H   UNL     1      -1.460  14.149  22.476  0.00  0.00    +0.000 HD
ENDBRANCH  24  27
BRANCH  25  29
ATOM     29  O   UNL     1      -2.336  12.928  19.525  0.00  0.00    +0.000 OA
ATOM     30  H   UNL     1      -3.220  13.107  19.907  0.00  0.00    +0.000 HD
ENDBRANCH  25  29
BRANCH  26  31
ATOM     31  O   UNL     1       0.367  12.956  19.674  0.00  0.00    +0.000 OA
ATOM     32  H   UNL     1      -0.072  13.403  18.915  0.00  0.00    +0.000 HD
ENDBRANCH  26  31
ENDBRANCH   6  21
BRANCH  17  33
ATOM     33  O   UNL     1       6.358   5.606  14.184  0.00  0.00    +0.000 OA
ATOM     34  H   UNL     1       5.676   6.001  13.623  0.00  0.00    +0.000 HD
ENDBRANCH  17  33
TORSDOF 5
ENDMDL
MODEL 6
REMARK VINA RESULT:      -7.4      3.536      8.893
REMARK  Name = 
REMARK  7 active torsions:
REMARK  status: ('A' for Active; 'I' for Inactive)
REMARK    1  A    between atoms: C_1  and  C_2
REMARK    2  A    between atoms: N_6  and  C_7
REMARK    3  A    between atoms: C_10  and  O_11
REMARK    4  A    between atoms: C_12  and  O_13
REMARK    5  A    between atoms: C_14  and  O_15
REMARK    6  A    between atoms: C_18  and  C_19
REMARK    7  A    between atoms: C_26  and  O_27
REMARK                            x       y       z     vdW  Elec       q    Type
REMARK                         _______ _______ _______ _____ _____    ______ ____
ROOT
ATOM      1  C   UNL     1       0.216   9.267  23.139  0.00  0.00    +0.000 C 
ATOM      2  C   UNL     1       0.620   9.412  21.692  0.00  0.00    +0.000 A 
ATOM      3  C   UNL     1       0.396  10.601  20.947  0.00  0.00    +0.000 A 
ATOM      4  C   UNL     1      -0.299  11.704  21.484  0.00  0.00    +0.000 A 
ATOM      5  C   UNL     1      -0.409  12.900  20.781  0.00  0.00    +0.000 A 
ATOM      6  N   UNL     1       0.136  13.007  19.559  0.00  0.00    +0.000 N 
ATOM      7  C   UNL     1       0.705  11.928  18.979  0.00  0.00    +0.000 A 
ATOM      8  C   UNL     1       0.881  10.706  19.624  0.00  0.00    +0.000 A 
ATOM      9  C   UNL     1       1.552   9.620  18.981  0.00  0.00    +0.000 A 
ATOM     10  C   UNL     1       2.075   9.692  17.566  0.00  0.00    +0.000 C 
ATOM     11  C   UNL     1       1.692   8.407  19.702  0.00  0.00    +0.000 A 
ATOM     12  C   UNL     1       1.220   8.335  21.007  0.00  0.00    +0.000 A 
ATOM     13  N   UNL     1       1.415   7.029  21.427  0.00  0.00    +0.000 N 
ATOM     14  C   UNL     1       2.064   6.290  20.470  0.00  0.00    +0.000 A 
ATOM     15  C   UNL     1       2.455   4.943  20.484  0.00  0.00    +0.000 A 
ATOM     16  C   UNL     1       3.046   4.419  19.332  0.00  0.00    +0.000 A 
ATOM     17  C   UNL     1       3.233   5.220  18.222  0.00  0.00    +0.000 A 
ATOM     18  C   UNL     1       2.847   6.563  18.214  0.00  0.00    +0.000 A 
ATOM     19  C   UNL     1       2.241   7.114  19.365  0.00  0.00    +0.000 A 
ATOM     20  H   UNL     1       1.009   6.633  22.272  0.00  0.00    +0.000 HD
ENDROOT
BRANCH   6  21
ATOM     21  C   UNL     1       0.334  14.299  18.852  0.00  0.00    +0.000 C 
ATOM     22  O   UNL     1       1.706  14.392  18.455  0.00  0.00    +0.000 OA
ATOM     23  C   UNL     1       2.562  15.128  19.329  0.00  0.00    +0.000 C 
ATOM     24  C   UNL     1       2.008  16.535  19.511  0.00  0.00    +0.000 C 
ATOM     25  C   UNL     1       0.683  16.412  20.266  0.00  0.00    +0.000 C 
ATOM     26  C   UNL     1      -0.314  15.555  19.470  0.00  0.00    +0.000 C 
BRANCH  24  27
ATOM     27  O   UNL     1       1.726  17.105  18.219  0.00  0.00    +0.000 OA
ATOM     28  H   UNL     1       0.817  17.465  18.239  0.00  0.00    +0.000 HD
ENDBRANCH  24  27
BRANCH  25  29
ATOM     29  O   UNL     1       0.139  17.706  20.514  0.00  0.00    +0.000 OA
ATOM     30  H   UNL     1       0.581  18.057  21.314  0.00  0.00    +0.000 HD
ENDBRANCH  25  29
BRANCH  26  31
ATOM     31  O   UNL     1      -0.851  16.357  18.386  0.00  0.00    +0.000 OA
ATOM     32  H   UNL     1      -1.761  16.634  18.638  0.00  0.00    +0.000 HD
ENDBRANCH  26  31
ENDBRANCH   6  21
BRANCH  17  33
ATOM     33  O   UNL     1       3.796   4.734  17.071  0.00  0.00    +0.000 OA
ATOM     34  H   UNL     1       3.392   3.874  16.889  0.00  0.00    +0.000 HD
ENDBRANCH  17  33
TORSDOF 5
ENDMDL
MODEL 7
REMARK VINA RESULT:      -7.4      2.619      4.206
REMARK  Name = 
REMARK  7 active torsions:
REMARK  status: ('A' for Active; 'I' for Inactive)
REMARK    1  A    between atoms: C_1  and  C_2
REMARK    2  A    between atoms: N_6  and  C_7
REMARK    3  A    between atoms: C_10  and  O_11
REMARK    4  A    between atoms: C_12  and  O_13
REMARK    5  A    between atoms: C_14  and  O_15
REMARK    6  A    between atoms: C_18  and  C_19
REMARK    7  A    between atoms: C_26  and  O_27
REMARK                            x       y       z     vdW  Elec       q    Type
REMARK                         _______ _______ _______ _____ _____    ______ ____
ROOT
ATOM      1  C   UNL     1      -0.424   8.140  22.132  0.00  0.00    +0.000 C 
ATOM      2  C   UNL     1       0.278   8.841  20.995  0.00  0.00    +0.000 A 
ATOM      3  C   UNL     1       1.277   8.213  20.204  0.00  0.00    +0.000 A 
ATOM      4  C   UNL     1       1.743   6.911  20.479  0.00  0.00    +0.000 A 
ATOM      5  C   UNL     1       2.637   6.269  19.628  0.00  0.00    +0.000 A 
ATOM      6  N   UNL     1       3.084   6.901  18.531  0.00  0.00    +0.000 N 
ATOM      7  C   UNL     1       2.741   8.189  18.309  0.00  0.00    +0.000 A 
ATOM      8  C   UNL     1       1.830   8.893  19.096  0.00  0.00    +0.000 A 
ATOM      9  C   UNL     1       1.454  10.232  18.771  0.00  0.00    +0.000 A 
ATOM     10  C   UNL     1       2.031  10.994  17.601  0.00  0.00    +0.000 C 
ATOM     11  C   UNL     1       0.522  10.883  19.619  0.00  0.00    +0.000 A 
ATOM     12  C   UNL     1      -0.019  10.187  20.694  0.00  0.00    +0.000 A 
ATOM     13  N   UNL     1      -0.821  11.083  21.383  0.00  0.00    +0.000 N 
ATOM     14  C   UNL     1      -0.874  12.296  20.744  0.00  0.00    +0.000 A 
ATOM     15  C   UNL     1      -1.561  13.469  21.093  0.00  0.00    +0.000 A 
ATOM     16  C   UNL     1      -1.382  14.598  20.291  0.00  0.00    +0.000 A 
ATOM     17  C   UNL     1      -0.549  14.542  19.190  0.00  0.00    +0.000 A 
ATOM     18  C   UNL     1       0.130  13.371  18.843  0.00  0.00    +0.000 A 
ATOM     19  C   UNL     1      -0.031  12.218  19.643  0.00  0.00    +0.000 A 
ATOM     20  H   UNL     1      -1.206  10.911  22.309  0.00  0.00    +0.000 HD
ENDROOT
BRANCH   6  21
ATOM     21  C   UNL     1       3.795   6.223  17.416  0.00  0.00    +0.000 C 
ATOM     22  O   UNL     1       3.822   4.816  17.687  0.00  0.00    +0.000 OA
ATOM     23  C   UNL     1       5.012   4.320  18.298  0.00  0.00    +0.000 C 
ATOM     24  C   UNL     1       6.212   4.675  17.430  0.00  0.00    +0.000 C 
ATOM     25  C   UNL     1       6.361   6.197  17.455  0.00  0.00    +0.000 C 
ATOM     26  C   UNL     1       5.096   6.873  16.901  0.00  0.00    +0.000 C 
BRANCH  24  27
ATOM     27  O   UNL     1       5.947   4.281  16.070  0.00  0.00    +0.000 OA
ATOM     28  H   UNL     1       6.717   4.541  15.525  0.00  0.00    +0.000 HD
ENDBRANCH  24  27
BRANCH  25  29
ATOM     29  O   UNL     1       7.504   6.590  16.698  0.00  0.00    +0.000 OA
ATOM     30  H   UNL     1       8.038   7.181  17.268  0.00  0.00    +0.000 HD
ENDBRANCH  25  29
BRANCH  26  31
ATOM     31  O   UNL     1       5.106   6.760  15.455  0.00  0.00    +0.000 OA
ATOM     32  H   UNL     1       4.173   6.799  15.144  0.00  0.00    +0.000 HD
ENDBRANCH  26  31
ENDBRANCH   6  21
BRANCH  17  33
ATOM     33  O   UNL     1      -0.338  15.636  18.391  0.00  0.00    +0.000 OA
ATOM     34  H   UNL     1       0.541  15.544  17.997  0.00  0.00    +0.000 HD
ENDBRANCH  17  33
TORSDOF 5
ENDMDL
MODEL 8
REMARK VINA RESULT:      -7.4      1.484      2.190
REMARK  Name = 
REMARK  7 active torsions:
REMARK  status: ('A' for Active; 'I' for Inactive)
REMARK    1  A    between atoms: C_1  and  C_2
REMARK    2  A    between atoms: N_6  and  C_7
REMARK    3  A    between atoms: C_10  and  O_11
REMARK    4  A    between atoms: C_12  and  O_13
REMARK    5  A    between atoms: C_14  and  O_15
REMARK    6  A    between atoms: C_18  and  C_19
REMARK    7  A    between atoms: C_26  and  O_27
REMARK                            x       y       z     vdW  Elec       q    Type
REMARK                         _______ _______ _______ _____ _____    ______ ____
ROOT
ATOM      1  C   UNL     1       2.434  11.988  17.824  0.00  0.00    +0.000 C 
ATOM      2  C   UNL     1       1.743  10.990  18.722  0.00  0.00    +0.000 A 
ATOM      3  C   UNL     1       1.975   9.592  18.640  0.00  0.00    +0.000 A 
ATOM      4  C   UNL     1       2.809   9.026  17.653  0.00  0.00    +0.000 A 
ATOM      5  C   UNL     1       3.115   7.669  17.658  0.00  0.00    +0.000 A 
ATOM      6  N   UNL     1       2.595   6.871  18.603  0.00  0.00    +0.000 N 
ATOM      7  C   UNL     1       1.705   7.369  19.488  0.00  0.00    +0.000 A 
ATOM      8  C   UNL     1       1.367   8.719  19.570  0.00  0.00    +0.000 A 
ATOM      9  C   UNL     1       0.468   9.198  20.572  0.00  0.00    +0.000 A 
ATOM     10  C   UNL     1      -0.208   8.295  21.577  0.00  0.00    +0.000 C 
ATOM     11  C   UNL     1       0.174  10.584  20.591  0.00  0.00    +0.000 A 
ATOM     12  C   UNL     1       0.797  11.423  19.674  0.00  0.00    +0.000 A 
ATOM     13  N   UNL     1       0.265  12.688  19.869  0.00  0.00    +0.000 N 
ATOM     14  C   UNL     1      -0.612  12.702  20.924  0.00  0.00    +0.000 A 
ATOM     15  C   UNL     1      -1.363  13.760  21.458  0.00  0.00    +0.000 A 
ATOM     16  C   UNL     1      -2.244  13.478  22.505  0.00  0.00    +0.000 A 
ATOM     17  C   UNL     1      -2.357  12.189  22.988  0.00  0.00    +0.000 A 
ATOM     18  C   UNL     1      -1.604  11.138  22.457  0.00  0.00    +0.000 A 
ATOM     19  C   UNL     1      -0.711  11.398  21.393  0.00  0.00    +0.000 A 
ATOM     20  H   UNL     1       0.398  13.469  19.231  0.00  0.00    +0.000 HD
ENDROOT
BRANCH   6  21
ATOM     21  C   UNL     1       3.076   5.492  18.879  0.00  0.00    +0.000 C 
ATOM     22  O   UNL     1       4.106   5.562  19.872  0.00  0.00    +0.000 OA
ATOM     23  C   UNL     1       5.446   5.567  19.383  0.00  0.00    +0.000 C 
ATOM     24  C   UNL     1       5.676   4.330  18.524  0.00  0.00    +0.000 C 
ATOM     25  C   UNL     1       4.800   4.469  17.278  0.00  0.00    +0.000 C 
ATOM     26  C   UNL     1       3.316   4.567  17.668  0.00  0.00    +0.000 C 
BRANCH  24  27
ATOM     27  O   UNL     1       5.234   3.164  19.245  0.00  0.00    +0.000 OA
ATOM     28  H   UNL     1       4.365   2.897  18.884  0.00  0.00    +0.000 HD
ENDBRANCH  24  27
BRANCH  25  29
ATOM     29  O   UNL     1       5.011   3.360  16.405  0.00  0.00    +0.000 OA
ATOM     30  H   UNL     1       4.157   2.888  16.327  0.00  0.00    +0.000 HD
ENDBRANCH  25  29
BRANCH  26  31
ATOM     31  O   UNL     1       2.841   3.242  18.020  0.00  0.00    +0.000 OA
ATOM     32  H   UNL     1       1.986   3.346  18.495  0.00  0.00    +0.000 HD
ENDBRANCH  26  31
ENDBRANCH   6  21
BRANCH  17  33
ATOM     33  O   UNL     1      -3.222  11.874  24.003  0.00  0.00    +0.000 OA
ATOM     34  H   UNL     1      -2.713  11.423  24.691  0.00  0.00    +0.000 HD
ENDBRANCH  17  33
TORSDOF 5
ENDMDL
MODEL 9
REMARK VINA RESULT:      -7.3      2.258      3.611
REMARK  Name = 
REMARK  7 active torsions:
REMARK  status: ('A' for Active; 'I' for Inactive)
REMARK    1  A    between atoms: C_1  and  C_2
REMARK    2  A    between atoms: N_6  and  C_7
REMARK    3  A    between atoms: C_10  and  O_11
REMARK    4  A    between atoms: C_12  and  O_13
REMARK    5  A    between atoms: C_14  and  O_15
REMARK    6  A    between atoms: C_18  and  C_19
REMARK    7  A    between atoms: C_26  and  O_27
REMARK                            x       y       z     vdW  Elec       q    Type
REMARK                         _______ _______ _______ _____ _____    ______ ____
ROOT
ATOM      1  C   UNL     1      -0.605   8.895  22.833  0.00  0.00    +0.000 C 
ATOM      2  C   UNL     1       0.070   9.404  21.582  0.00  0.00    +0.000 A 
ATOM      3  C   UNL     1       0.941   8.601  20.797  0.00  0.00    +0.000 A 
ATOM      4  C   UNL     1       1.303   7.293  21.179  0.00  0.00    +0.000 A 
ATOM      5  C   UNL     1       2.063   6.481  20.343  0.00  0.00    +0.000 A 
ATOM      6  N   UNL     1       2.482   6.951  19.158  0.00  0.00    +0.000 N 
ATOM      7  C   UNL     1       2.245   8.238  18.823  0.00  0.00    +0.000 A 
ATOM      8  C   UNL     1       1.468   9.106  19.588  0.00  0.00    +0.000 A 
ATOM      9  C   UNL     1       1.196  10.438  19.148  0.00  0.00    +0.000 A 
ATOM     10  C   UNL     1       1.749  11.016  17.867  0.00  0.00    +0.000 C 
ATOM     11  C   UNL     1       0.398  11.262  19.982  0.00  0.00    +0.000 A 
ATOM     12  C   UNL     1      -0.121  10.735  21.159  0.00  0.00    +0.000 A 
ATOM     13  N   UNL     1      -0.779  11.773  21.800  0.00  0.00    +0.000 N 
ATOM     14  C   UNL     1      -0.767  12.916  21.040  0.00  0.00    +0.000 A 
ATOM     15  C   UNL     1      -1.311  14.181  21.307  0.00  0.00    +0.000 A 
ATOM     16  C   UNL     1      -1.090  15.200  20.378  0.00  0.00    +0.000 A 
ATOM     17  C   UNL     1      -0.354  14.950  19.236  0.00  0.00    +0.000 A 
ATOM     18  C   UNL     1       0.183  13.687  18.971  0.00  0.00    +0.000 A 
ATOM     19  C   UNL     1      -0.023  12.642  19.899  0.00  0.00    +0.000 A 
ATOM     20  H   UNL     1      -1.106  11.735  22.763  0.00  0.00    +0.000 HD
ENDROOT
BRANCH   6  21
ATOM     21  C   UNL     1       3.037   6.096  18.077  0.00  0.00    +0.000 C 
ATOM     22  O   UNL     1       2.140   5.000  17.861  0.00  0.00    +0.000 OA
ATOM     23  C   UNL     1       2.467   3.783  18.530  0.00  0.00    +0.000 C 
ATOM     24  C   UNL     1       3.872   3.351  18.132  0.00  0.00    +0.000 C 
ATOM     25  C   UNL     1       4.846   4.385  18.697  0.00  0.00    +0.000 C 
ATOM     26  C   UNL     1       4.546   5.780  18.124  0.00  0.00    +0.000 C 
BRANCH  24  27
ATOM     27  O   UNL     1       3.988   3.375  16.697  0.00  0.00    +0.000 OA
ATOM     28  H   UNL     1       4.793   3.880  16.467  0.00  0.00    +0.000 HD
ENDBRANCH  24  27
BRANCH  25  29
ATOM     29  O   UNL     1       6.189   4.006  18.401  0.00  0.00    +0.000 OA
ATOM     30  H   UNL     1       6.390   4.333  17.500  0.00  0.00    +0.000 HD
ENDBRANCH  25  29
BRANCH  26  31
ATOM     31  O   UNL     1       5.055   5.842  16.766  0.00  0.00    +0.000 OA
ATOM     32  H   UNL     1       5.810   5.215  16.699  0.00  0.00    +0.000 HD
ENDBRANCH  26  31
ENDBRANCH   6  21
BRANCH  17  33
ATOM     33  O   UNL     1      -0.104  15.931  18.311  0.00  0.00    +0.000 OA
ATOM     34  H   UNL     1       0.108  16.741  18.796  0.00  0.00    +0.000 HD
ENDBRANCH  17  33
TORSDOF 5
ENDMDL
