MODEL 1
REMARK VINA RESULT:      -7.9      0.000      0.000
REMARK  Name = 
REMARK  7 active torsions:
REMARK  status: ('A' for Active; 'I' for Inactive)
REMARK    1  A    between atoms: C_1  and  C_2
REMARK    2  A    between atoms: C_2  and  C_4
REMARK    3  A    between atoms: C_7  and  N_8
REMARK    4  A    between atoms: N_11  and  C_12
REMARK    5  A    between atoms: C_16  and  N_17
REMARK    6  A    between atoms: C_26  and  C_27
REMARK    7  A    between atoms: N_31  and  C_32
REMARK                            x       y       z     vdW  Elec       q    Type
REMARK                         _______ _______ _______ _____ _____    ______ ____
ROOT
ATOM      1  N   UNL     1       0.810  10.776  21.336  0.00  0.00    +0.000 N 
ATOM      2  C   UNL     1      -0.481  11.304  21.564  0.00  0.00    +0.000 A 
ATOM      3  N   UNL     1      -0.674  11.925  22.739  0.00  0.00    +0.000 NA
ATOM      4  C   UNL     1      -1.774  12.692  22.865  0.00  0.00    +0.000 A 
ATOM      5  C   UNL     1      -2.706  12.835  21.872  0.00  0.00    +0.000 A 
ATOM      6  C   UNL     1      -2.473  12.087  20.731  0.00  0.00    +0.000 A 
ATOM      7  N   UNL     1      -1.390  11.329  20.563  0.00  0.00    +0.000 NA
ATOM      8  C   UNL     1      -3.485  12.114  19.685  0.00  0.00    +0.000 A 
ATOM      9  C   UNL     1      -4.740  12.676  19.861  0.00  0.00    +0.000 A 
ATOM     10  C   UNL     1      -5.451  12.445  18.646  0.00  0.00    +0.000 A 
ATOM     11  N   UNL     1      -4.639  11.850  17.742  0.00  0.00    +0.000 NA
ATOM     12  N   UNL     1      -3.459  11.681  18.387  0.00  0.00    +0.000 N 
ATOM     13  C   UNL     1      -2.348  11.179  17.616  0.00  0.00    +0.000 C 
ATOM     14  C   UNL     1      -5.107  13.321  21.166  0.00  0.00    +0.000 C 
ATOM     15  C   UNL     1      -3.841  13.830  21.904  0.00  0.00    +0.000 C 
ATOM     16  H   UNL     1       1.457  11.467  21.704  0.00  0.00    +0.000 HD
ENDROOT
BRANCH   1  22
ATOM     17  C   UNL     1       1.592  10.741  18.940  0.00  0.00    +0.000 A 
ATOM     18  C   UNL     1       1.937   9.954  17.834  0.00  0.00    +0.000 A 
ATOM     19  C   UNL     1       2.086   8.579  17.945  0.00  0.00    +0.000 A 
ATOM     20  C   UNL     1       1.935   7.957  19.166  0.00  0.00    +0.000 A 
ATOM     21  C   UNL     1       1.490   8.736  20.243  0.00  0.00    +0.000 A 
ATOM     22  C   UNL     1       1.254  10.115  20.158  0.00  0.00    +0.000 A 
BRANCH  20  23
ATOM     23  N   UNL     1       2.161   6.615  19.363  0.00  0.00    +0.000 N 
ATOM     24  C   UNL     1       3.352   5.968  18.809  0.00  0.00    +0.000 C 
ATOM     25  C   UNL     1       3.031   4.469  18.609  0.00  0.00    +0.000 C 
ATOM     26  N   UNL     1       2.607   3.809  19.868  0.00  0.00    +0.000 NA
ATOM     27  C   UNL     1       2.250   2.416  19.616  0.00  0.00    +0.000 C 
ATOM     28  C   UNL     1       1.454   4.539  20.452  0.00  0.00    +0.000 C 
ATOM     29  C   UNL     1       1.751   6.041  20.662  0.00  0.00    +0.000 C 
ENDBRANCH  20  23
BRANCH  17  31
ATOM     30  C   UNL     1       2.846  12.830  18.086  0.00  0.00    +0.000 C 
ATOM     31  C   UNL     1       1.559  12.198  18.625  0.00  0.00    +0.000 C 
ATOM     32  O   UNL     1       0.534  12.830  18.720  0.00  0.00    +0.000 OA
ENDBRANCH  17  31
ENDBRANCH   1  22
BRANCH  10  33
ATOM     33  C   UNL     1      -6.844  12.760  18.298  0.00  0.00    +0.000 C 
ATOM     34  N   UNL     1      -7.062  13.295  17.058  0.00  0.00    +0.000 N 
ATOM     35  O   UNL     1      -7.800  12.578  19.064  0.00  0.00    +0.000 OA
ATOM     36  H   UNL     1      -6.282  13.597  16.481  0.00  0.00    +0.000 HD
ATOM     37  H   UNL     1      -8.002  13.599  16.842  0.00  0.00    +0.000 HD
ENDBRANCH  10  33
TORSDOF 4
ENDMDL
MODEL 2
REMARK VINA RESULT:      -7.1      4.400      7.910
REMARK  Name = 
REMARK  7 active torsions:
REMARK  status: ('A' for Active; 'I' for Inactive)
REMARK    1  A    between atoms: C_1  and  C_2
REMARK    2  A    between atoms: C_2  and  C_4
REMARK    3  A    between atoms: C_7  and  N_8
REMARK    4  A    between atoms: N_11  and  C_12
REMARK    5  A    between atoms: C_16  and  N_17
REMARK    6  A    between atoms: C_26  and  C_27
REMARK    7  A    between atoms: N_31  and  C_32
REMARK                            x       y       z     vdW  Elec       q    Type
REMARK                         _______ _______ _______ _____ _____    ______ ____
ROOT
ATOM      1  N   UNL     1       0.680  16.895  20.911  0.00  0.00    +0.000 N 
ATOM      2  C   UNL     1       0.297  15.733  21.618  0.00  0.00    +0.000 A 
ATOM      3  N   UNL     1      -0.501  15.917  22.682  0.00  0.00    +0.000 NA
ATOM      4  C   UNL     1      -1.124  14.834  23.188  0.00  0.00    +0.000 A 
ATOM      5  C   UNL     1      -0.952  13.570  22.692  0.00  0.00    +0.000 A 
ATOM      6  C   UNL     1      -0.042  13.461  21.654  0.00  0.00    +0.000 A 
ATOM      7  N   UNL     1       0.582  14.510  21.117  0.00  0.00    +0.000 NA
ATOM      8  C   UNL     1       0.264  12.128  21.157  0.00  0.00    +0.000 A 
ATOM      9  C   UNL     1      -0.147  10.969  21.798  0.00  0.00    +0.000 A 
ATOM     10  C   UNL     1       0.401   9.886  21.048  0.00  0.00    +0.000 A 
ATOM     11  N   UNL     1       1.040  10.360  19.954  0.00  0.00    +0.000 NA
ATOM     12  N   UNL     1       0.925  11.708  20.034  0.00  0.00    +0.000 N 
ATOM     13  C   UNL     1       1.408  12.483  18.918  0.00  0.00    +0.000 C 
ATOM     14  C   UNL     1      -0.969  11.047  23.052  0.00  0.00    +0.000 C 
ATOM     15  C   UNL     1      -1.773  12.372  23.103  0.00  0.00    +0.000 C 
ATOM     16  H   UNL     1      -0.149  17.483  20.881  0.00  0.00    +0.000 HD
ENDROOT
BRANCH   1  22
ATOM     17  C   UNL     1       1.044  17.322  18.454  0.00  0.00    +0.000 A 
ATOM     18  C   UNL     1       1.930  17.242  17.372  0.00  0.00    +0.000 A 
ATOM     19  C   UNL     1       3.269  16.929  17.557  0.00  0.00    +0.000 A 
ATOM     20  C   UNL     1       3.769  16.725  18.825  0.00  0.00    +0.000 A 
ATOM     21  C   UNL     1       2.857  16.705  19.890  0.00  0.00    +0.000 A 
ATOM     22  C   UNL     1       1.483  16.942  19.739  0.00  0.00    +0.000 A 
BRANCH  20  23
ATOM     23  N   UNL     1       5.101  16.504  19.086  0.00  0.00    +0.000 N 
ATOM     24  C   UNL     1       5.928  17.551  19.691  0.00  0.00    +0.000 C 
ATOM     25  C   UNL     1       7.395  17.301  19.271  0.00  0.00    +0.000 C 
ATOM     26  N   UNL     1       7.873  15.953  19.666  0.00  0.00    +0.000 NA
ATOM     27  C   UNL     1       9.237  15.739  19.190  0.00  0.00    +0.000 C 
ATOM     28  C   UNL     1       6.965  14.918  19.113  0.00  0.00    +0.000 C 
ATOM     29  C   UNL     1       5.492  15.146  19.519  0.00  0.00    +0.000 C 
ENDBRANCH  20  23
BRANCH  17  31
ATOM     30  C   UNL     1      -0.448  18.631  16.802  0.00  0.00    +0.000 C 
ATOM     31  C   UNL     1      -0.326  17.748  18.048  0.00  0.00    +0.000 C 
ATOM     32  O   UNL     1      -1.301  17.346  18.639  0.00  0.00    +0.000 OA
ENDBRANCH  17  31
ENDBRANCH   1  22
BRANCH  10  33
ATOM     33  C   UNL     1       0.347   8.441  21.309  0.00  0.00    +0.000 C 
ATOM     34  N   UNL     1       1.502   7.736  21.104  0.00  0.00    +0.000 N 
ATOM     35  O   UNL     1      -0.675   7.849  21.684  0.00  0.00    +0.000 OA
ATOM     36  H   UNL     1       2.299   8.172  20.650  0.00  0.00    +0.000 HD
ATOM     37  H   UNL     1       1.454   6.730  21.193  0.00  0.00    +0.000 HD
ENDBRANCH  10  33
TORSDOF 4
ENDMDL
MODEL 3
REMARK VINA RESULT:      -7.1      2.284      3.836
REMARK  Name = 
REMARK  7 active torsions:
REMARK  status: ('A' for Active; 'I' for Inactive)
REMARK    1  A    between atoms: C_1  and  C_2
REMARK    2  A    between atoms: C_2  and  C_4
REMARK    3  A    between atoms: C_7  and  N_8
REMARK    4  A    between atoms: N_11  and  C_12
REMARK    5  A    between atoms: C_16  and  N_17
REMARK    6  A    between atoms: C_26  and  C_27
REMARK    7  A    between atoms: N_31  and  C_32
REMARK                            x       y       z     vdW  Elec       q    Type
REMARK                         _______ _______ _______ _____ _____    ______ ____
ROOT
ATOM      1  N   UNL     1      -1.817  11.375  17.462  0.00  0.00    +0.000 N 
ATOM      2  C   UNL     1      -3.097  11.796  17.891  0.00  0.00    +0.000 A 
ATOM      3  N   UNL     1      -4.078  11.750  16.976  0.00  0.00    +0.000 NA
ATOM      4  C   UNL     1      -5.347  11.849  17.419  0.00  0.00    +0.000 A 
ATOM      5  C   UNL     1      -5.669  12.027  18.738  0.00  0.00    +0.000 A 
ATOM      6  C   UNL     1      -4.592  12.155  19.597  0.00  0.00    +0.000 A 
ATOM      7  N   UNL     1      -3.323  12.048  19.200  0.00  0.00    +0.000 NA
ATOM      8  C   UNL     1      -4.871  12.454  20.994  0.00  0.00    +0.000 A 
ATOM      9  C   UNL     1      -6.128  12.814  21.454  0.00  0.00    +0.000 A 
ATOM     10  C   UNL     1      -5.977  13.087  22.847  0.00  0.00    +0.000 A 
ATOM     11  N   UNL     1      -4.708  12.819  23.234  0.00  0.00    +0.000 NA
ATOM     12  N   UNL     1      -4.071  12.422  22.105  0.00  0.00    +0.000 N 
ATOM     13  C   UNL     1      -2.718  11.943  22.241  0.00  0.00    +0.000 C 
ATOM     14  C   UNL     1      -7.290  12.888  20.507  0.00  0.00    +0.000 C 
ATOM     15  C   UNL     1      -7.071  11.949  19.292  0.00  0.00    +0.000 C 
ATOM     16  H   UNL     1      -1.980  10.563  16.871  0.00  0.00    +0.000 HD
ENDROOT
BRANCH   1  22
ATOM     17  C   UNL     1      -0.060  12.373  18.968  0.00  0.00    +0.000 A 
ATOM     18  C   UNL     1       1.147  12.172  19.649  0.00  0.00    +0.000 A 
ATOM     19  C   UNL     1       1.714  10.910  19.756  0.00  0.00    +0.000 A 
ATOM     20  C   UNL     1       1.076   9.810  19.224  0.00  0.00    +0.000 A 
ATOM     21  C   UNL     1      -0.076  10.034  18.457  0.00  0.00    +0.000 A 
ATOM     22  C   UNL     1      -0.643  11.301  18.260  0.00  0.00    +0.000 A 
BRANCH  20  23
ATOM     23  N   UNL     1       1.535   8.523  19.376  0.00  0.00    +0.000 N 
ATOM     24  C   UNL     1       2.561   7.985  18.479  0.00  0.00    +0.000 C 
ATOM     25  C   UNL     1       2.401   6.448  18.440  0.00  0.00    +0.000 C 
ATOM     26  N   UNL     1       2.500   5.835  19.788  0.00  0.00    +0.000 NA
ATOM     27  C   UNL     1       2.275   4.394  19.708  0.00  0.00    +0.000 C 
ATOM     28  C   UNL     1       1.508   6.462  20.696  0.00  0.00    +0.000 C 
ATOM     29  C   UNL     1       1.648   8.000  20.753  0.00  0.00    +0.000 C 
ENDBRANCH  20  23
BRANCH  17  31
ATOM     30  C   UNL     1      -0.867  14.348  20.422  0.00  0.00    +0.000 C 
ATOM     31  C   UNL     1      -0.534  13.784  19.037  0.00  0.00    +0.000 C 
ATOM     32  O   UNL     1      -0.577  14.473  18.045  0.00  0.00    +0.000 OA
ENDBRANCH  17  31
ENDBRANCH   1  22
BRANCH  10  33
ATOM     33  C   UNL     1      -6.962  13.577  23.820  0.00  0.00    +0.000 C 
ATOM     34  N   UNL     1      -6.787  14.854  24.281  0.00  0.00    +0.000 N 
ATOM     35  O   UNL     1      -7.910  12.899  24.238  0.00  0.00    +0.000 OA
ATOM     36  H   UNL     1      -5.935  15.366  24.073  0.00  0.00    +0.000 HD
ATOM     37  H   UNL     1      -7.405  15.170  25.017  0.00  0.00    +0.000 HD
ENDBRANCH  10  33
TORSDOF 4
ENDMDL
MODEL 4
REMARK VINA RESULT:      -6.9      6.245     10.818
REMARK  Name = 
REMARK  7 active torsions:
REMARK  status: ('A' for Active; 'I' for Inactive)
REMARK    1  A    between atoms: C_1  and  C_2
REMARK    2  A    between atoms: C_2  and  C_4
REMARK    3  A    between atoms: C_7  and  N_8
REMARK    4  A    between atoms: N_11  and  C_12
REMARK    5  A    between atoms: C_16  and  N_17
REMARK    6  A    between atoms: C_26  and  C_27
REMARK    7  A    between atoms: N_31  and  C_32
REMARK                            x       y       z     vdW  Elec       q    Type
REMARK                         _______ _______ _______ _____ _____    ______ ____
ROOT
ATOM      1  N   UNL     1       4.786  15.123  21.874  0.00  0.00    +0.000 N 
ATOM      2  C   UNL     1       6.161  14.795  21.845  0.00  0.00    +0.000 A 
ATOM      3  N   UNL     1       6.752  14.594  23.034  0.00  0.00    +0.000 NA
ATOM      4  C   UNL     1       7.958  13.993  23.036  0.00  0.00    +0.000 A 
ATOM      5  C   UNL     1       8.611  13.618  21.892  0.00  0.00    +0.000 A 
ATOM      6  C   UNL     1       7.969  13.947  20.711  0.00  0.00    +0.000 A 
ATOM      7  N   UNL     1       6.769  14.527  20.668  0.00  0.00    +0.000 NA
ATOM      8  C   UNL     1       8.664  13.671  19.462  0.00  0.00    +0.000 A 
ATOM      9  C   UNL     1       9.997  13.293  19.406  0.00  0.00    +0.000 A 
ATOM     10  C   UNL     1      10.319  13.184  18.020  0.00  0.00    +0.000 A 
ATOM     11  N   UNL     1       9.213  13.398  17.271  0.00  0.00    +0.000 NA
ATOM     12  N   UNL     1       8.230  13.669  18.164  0.00  0.00    +0.000 N 
ATOM     13  C   UNL     1       6.890  13.814  17.651  0.00  0.00    +0.000 C 
ATOM     14  C   UNL     1      10.791  13.123  20.668  0.00  0.00    +0.000 C 
ATOM     15  C   UNL     1       9.863  12.776  21.861  0.00  0.00    +0.000 C 
ATOM     16  H   UNL     1       4.380  14.534  22.597  0.00  0.00    +0.000 HD
ENDROOT
BRANCH   1  22
ATOM     17  C   UNL     1       4.076  16.394  19.817  0.00  0.00    +0.000 A 
ATOM     18  C   UNL     1       3.126  16.532  18.798  0.00  0.00    +0.000 A 
ATOM     19  C   UNL     1       2.137  15.579  18.599  0.00  0.00    +0.000 A 
ATOM     20  C   UNL     1       2.092  14.446  19.382  0.00  0.00    +0.000 A 
ATOM     21  C   UNL     1       2.982  14.366  20.463  0.00  0.00    +0.000 A 
ATOM     22  C   UNL     1       3.948  15.341  20.747  0.00  0.00    +0.000 A 
BRANCH  20  23
ATOM     23  N   UNL     1       1.199  13.420  19.178  0.00  0.00    +0.000 N 
ATOM     24  C   UNL     1       1.379  12.129  19.847  0.00  0.00    +0.000 C 
ATOM     25  C   UNL     1       0.692  11.046  18.983  0.00  0.00    +0.000 C 
ATOM     26  N   UNL     1      -0.746  11.331  18.758  0.00  0.00    +0.000 NA
ATOM     27  C   UNL     1      -1.333  10.320  17.883  0.00  0.00    +0.000 C 
ATOM     28  C   UNL     1      -0.901  12.681  18.161  0.00  0.00    +0.000 C 
ATOM     29  C   UNL     1      -0.223  13.783  19.007  0.00  0.00    +0.000 C 
ENDBRANCH  20  23
BRANCH  17  31
ATOM     30  C   UNL     1       6.324  17.291  18.918  0.00  0.00    +0.000 C 
ATOM     31  C   UNL     1       5.094  17.484  19.809  0.00  0.00    +0.000 C 
ATOM     32  O   UNL     1       4.910  18.508  20.424  0.00  0.00    +0.000 OA
ENDBRANCH  17  31
ENDBRANCH   1  22
BRANCH  10  33
ATOM     33  C   UNL     1      11.606  12.885  17.376  0.00  0.00    +0.000 C 
ATOM     34  N   UNL     1      12.058  11.597  17.474  0.00  0.00    +0.000 N 
ATOM     35  O   UNL     1      12.285  13.729  16.776  0.00  0.00    +0.000 OA
ATOM     36  H   UNL     1      11.598  10.934  18.091  0.00  0.00    +0.000 HD
ATOM     37  H   UNL     1      12.982  11.401  17.114  0.00  0.00    +0.000 HD
ENDBRANCH  10  33
TORSDOF 4
ENDMDL
MODEL 5
REMARK VINA RESULT:      -6.9      6.328     10.760
REMARK  Name = 
REMARK  7 active torsions:
REMARK  status: ('A' for Active; 'I' for Inactive)
REMARK    1  A    between atoms: C_1  and  C_2
REMARK    2  A    between atoms: C_2  and  C_4
REMARK    3  A    between atoms: C_7  and  N_8
REMARK    4  A    between atoms: N_11  and  C_12
REMARK    5  A    between atoms: C_16  and  N_17
REMARK    6  A    between atoms: C_26  and  C_27
REMARK    7  A    between atoms: N_31  and  C_32
REMARK                            x       y       z     vdW  Elec       q    Type
REMARK                         _______ _______ _______ _____ _____    ______ ____
ROOT
ATOM      1  N   UNL     1       4.671  15.210  22.317  0.00  0.00    +0.000 N 
ATOM      2  C   UNL     1       6.032  14.853  22.180  0.00  0.00    +0.000 A 
ATOM      3  N   UNL     1       6.675  14.508  23.308  0.00  0.00    +0.000 NA
ATOM      4  C   UNL     1       7.861  13.880  23.181  0.00  0.00    +0.000 A 
ATOM      5  C   UNL     1       8.443  13.615  21.971  0.00  0.00    +0.000 A 
ATOM      6  C   UNL     1       7.754  14.087  20.867  0.00  0.00    +0.000 A 
ATOM      7  N   UNL     1       6.572  14.698  20.950  0.00  0.00    +0.000 NA
ATOM      8  C   UNL     1       8.377  13.930  19.561  0.00  0.00    +0.000 A 
ATOM      9  C   UNL     1       9.692  13.526  19.394  0.00  0.00    +0.000 A 
ATOM     10  C   UNL     1       9.941  13.559  17.990  0.00  0.00    +0.000 A 
ATOM     11  N   UNL     1       8.806  13.882  17.328  0.00  0.00    +0.000 NA
ATOM     12  N   UNL     1       7.878  14.080  18.295  0.00  0.00    +0.000 N 
ATOM     13  C   UNL     1       6.520  14.314  17.872  0.00  0.00    +0.000 C 
ATOM     14  C   UNL     1      10.543  13.200  20.587  0.00  0.00    +0.000 C 
ATOM     15  C   UNL     1       9.665  12.749  21.784  0.00  0.00    +0.000 C 
ATOM     16  H   UNL     1       4.283  14.557  22.993  0.00  0.00    +0.000 HD
ENDROOT
BRANCH   1  22
ATOM     17  C   UNL     1       3.790  16.798  20.569  0.00  0.00    +0.000 A 
ATOM     18  C   UNL     1       2.802  17.047  19.608  0.00  0.00    +0.000 A 
ATOM     19  C   UNL     1       1.900  16.064  19.227  0.00  0.00    +0.000 A 
ATOM     20  C   UNL     1       1.982  14.796  19.763  0.00  0.00    +0.000 A 
ATOM     21  C   UNL     1       2.905  14.585  20.797  0.00  0.00    +0.000 A 
ATOM     22  C   UNL     1       3.785  15.571  21.265  0.00  0.00    +0.000 A 
BRANCH  20  23
ATOM     23  N   UNL     1       1.181  13.753  19.362  0.00  0.00    +0.000 N 
ATOM     24  C   UNL     1      -0.082  14.006  18.666  0.00  0.00    +0.000 C 
ATOM     25  C   UNL     1      -1.018  12.803  18.926  0.00  0.00    +0.000 C 
ATOM     26  N   UNL     1      -0.421  11.517  18.490  0.00  0.00    +0.000 NA
ATOM     27  C   UNL     1      -1.311  10.407  18.819  0.00  0.00    +0.000 C 
ATOM     28  C   UNL     1       0.898  11.331  19.145  0.00  0.00    +0.000 C 
ATOM     29  C   UNL     1       1.853  12.521  18.898  0.00  0.00    +0.000 C 
ENDBRANCH  20  23
BRANCH  17  31
ATOM     30  C   UNL     1       4.688  18.628  22.152  0.00  0.00    +0.000 C 
ATOM     31  C   UNL     1       4.702  17.959  20.775  0.00  0.00    +0.000 C 
ATOM     32  O   UNL     1       5.472  18.303  19.909  0.00  0.00    +0.000 OA
ENDBRANCH  17  31
ENDBRANCH   1  22
BRANCH  10  33
ATOM     33  C   UNL     1      11.184  13.299  17.250  0.00  0.00    +0.000 C 
ATOM     34  N   UNL     1      11.401  14.053  16.129  0.00  0.00    +0.000 N 
ATOM     35  O   UNL     1      12.014  12.442  17.582  0.00  0.00    +0.000 OA
ATOM     36  H   UNL     1      10.665  14.645  15.754  0.00  0.00    +0.000 HD
ATOM     37  H   UNL     1      12.207  13.823  15.563  0.00  0.00    +0.000 HD
ENDBRANCH  10  33
TORSDOF 4
ENDMDL
MODEL 6
REMARK VINA RESULT:      -6.7      3.506      7.889
REMARK  Name = 
REMARK  7 active torsions:
REMARK  status: ('A' for Active; 'I' for Inactive)
REMARK    1  A    between atoms: C_1  and  C_2
REMARK    2  A    between atoms: C_2  and  C_4
REMARK    3  A    between atoms: C_7  and  N_8
REMARK    4  A    between atoms: N_11  and  C_12
REMARK    5  A    between atoms: C_16  and  N_17
REMARK    6  A    between atoms: C_26  and  C_27
REMARK    7  A    between atoms: N_31  and  C_32
REMARK                            x       y       z     vdW  Elec       q    Type
REMARK                         _______ _______ _______ _____ _____    ______ ____
ROOT
ATOM      1  N   UNL     1      -0.367  13.786  21.879  0.00  0.00    +0.000 N 
ATOM      2  C   UNL     1      -0.094  12.401  21.958  0.00  0.00    +0.000 A 
ATOM      3  N   UNL     1      -0.641  11.743  22.992  0.00  0.00    +0.000 NA
ATOM      4  C   UNL     1      -0.658  10.396  22.934  0.00  0.00    +0.000 A 
ATOM      5  C   UNL     1      -0.116   9.684  21.898  0.00  0.00    +0.000 A 
ATOM      6  C   UNL     1       0.507  10.442  20.922  0.00  0.00    +0.000 A 
ATOM      7  N   UNL     1       0.532  11.775  20.936  0.00  0.00    +0.000 NA
ATOM      8  C   UNL     1       1.195   9.735  19.851  0.00  0.00    +0.000 A 
ATOM      9  C   UNL     1       1.428   8.369  19.874  0.00  0.00    +0.000 A 
ATOM     10  C   UNL     1       2.176   8.075  18.695  0.00  0.00    +0.000 A 
ATOM     11  N   UNL     1       2.316   9.193  17.947  0.00  0.00    +0.000 NA
ATOM     12  N   UNL     1       1.700  10.171  18.655  0.00  0.00    +0.000 N 
ATOM     13  C   UNL     1       1.578  11.465  18.032  0.00  0.00    +0.000 C 
ATOM     14  C   UNL     1       0.942   7.536  21.025  0.00  0.00    +0.000 C 
ATOM     15  C   UNL     1      -0.285   8.196  21.704  0.00  0.00    +0.000 C 
ATOM     16  H   UNL     1      -1.344  13.887  22.139  0.00  0.00    +0.000 HD
ENDROOT
BRANCH   1  22
ATOM     17  C   UNL     1      -0.727  15.638  20.207  0.00  0.00    +0.000 A 
ATOM     18  C   UNL     1      -0.180  16.391  19.161  0.00  0.00    +0.000 A 
ATOM     19  C   UNL     1       1.167  16.309  18.840  0.00  0.00    +0.000 A 
ATOM     20  C   UNL     1       2.012  15.506  19.576  0.00  0.00    +0.000 A 
ATOM     21  C   UNL     1       1.439  14.680  20.553  0.00  0.00    +0.000 A 
ATOM     22  C   UNL     1       0.071  14.675  20.860  0.00  0.00    +0.000 A 
BRANCH  20  23
ATOM     23  N   UNL     1       3.371  15.451  19.372  0.00  0.00    +0.000 N 
ATOM     24  C   UNL     1       4.303  15.668  20.481  0.00  0.00    +0.000 C 
ATOM     25  C   UNL     1       5.633  16.188  19.890  0.00  0.00    +0.000 C 
ATOM     26  N   UNL     1       6.209  15.257  18.889  0.00  0.00    +0.000 NA
ATOM     27  C   UNL     1       7.426  15.822  18.311  0.00  0.00    +0.000 C 
ATOM     28  C   UNL     1       5.210  14.988  17.824  0.00  0.00    +0.000 C 
ATOM     29  C   UNL     1       3.870  14.465  18.390  0.00  0.00    +0.000 C 
ENDBRANCH  20  23
BRANCH  17  31
ATOM     30  C   UNL     1      -2.685  17.308  20.009  0.00  0.00    +0.000 C 
ATOM     31  C   UNL     1      -2.171  15.931  20.436  0.00  0.00    +0.000 C 
ATOM     32  O   UNL     1      -2.914  15.083  20.872  0.00  0.00    +0.000 OA
ENDBRANCH  17  31
ENDBRANCH   1  22
BRANCH  10  33
ATOM     33  C   UNL     1       2.755   6.802  18.244  0.00  0.00    +0.000 C 
ATOM     34  N   UNL     1       4.037   6.845  17.766  0.00  0.00    +0.000 N 
ATOM     35  O   UNL     1       2.145   5.724  18.265  0.00  0.00    +0.000 OA
ATOM     36  H   UNL     1       4.494   7.736  17.594  0.00  0.00    +0.000 HD
ATOM     37  H   UNL     1       4.414   5.994  17.370  0.00  0.00    +0.000 HD
ENDBRANCH  10  33
TORSDOF 4
ENDMDL
MODEL 7
REMARK VINA RESULT:      -6.7      2.874      9.033
REMARK  Name = 
REMARK  7 active torsions:
REMARK  status: ('A' for Active; 'I' for Inactive)
REMARK    1  A    between atoms: C_1  and  C_2
REMARK    2  A    between atoms: C_2  and  C_4
REMARK    3  A    between atoms: C_7  and  N_8
REMARK    4  A    between atoms: N_11  and  C_12
REMARK    5  A    between atoms: C_16  and  N_17
REMARK    6  A    between atoms: C_26  and  C_27
REMARK    7  A    between atoms: N_31  and  C_32
REMARK                            x       y       z     vdW  Elec       q    Type
REMARK                         _______ _______ _______ _____ _____    ______ ____
ROOT
ATOM      1  N   UNL     1      -5.962  13.562  20.124  0.00  0.00    +0.000 N 
ATOM      2  C   UNL     1      -5.245  12.651  19.315  0.00  0.00    +0.000 A 
ATOM      3  N   UNL     1      -5.834  12.282  18.166  0.00  0.00    +0.000 NA
ATOM      4  C   UNL     1      -5.068  11.669  17.242  0.00  0.00    +0.000 A 
ATOM      5  C   UNL     1      -3.744  11.380  17.438  0.00  0.00    +0.000 A 
ATOM      6  C   UNL     1      -3.245  11.713  18.686  0.00  0.00    +0.000 A 
ATOM      7  N   UNL     1      -3.967  12.334  19.620  0.00  0.00    +0.000 NA
ATOM      8  C   UNL     1      -1.874  11.332  18.991  0.00  0.00    +0.000 A 
ATOM      9  C   UNL     1      -1.127  10.485  18.187  0.00  0.00    +0.000 A 
ATOM     10  C   UNL     1       0.122  10.306  18.852  0.00  0.00    +0.000 A 
ATOM     11  N   UNL     1       0.166  11.077  19.964  0.00  0.00    +0.000 NA
ATOM     12  N   UNL     1      -1.037  11.697  20.012  0.00  0.00    +0.000 N 
ATOM     13  C   UNL     1      -1.230  12.694  21.036  0.00  0.00    +0.000 C 
ATOM     14  C   UNL     1      -1.711   9.934  16.919  0.00  0.00    +0.000 C 
ATOM     15  C   UNL     1      -2.813  10.873  16.364  0.00  0.00    +0.000 C 
ATOM     16  H   UNL     1      -6.378  14.230  19.481  0.00  0.00    +0.000 HD
ENDROOT
BRANCH   1  22
ATOM     17  C   UNL     1      -6.112  13.891  22.619  0.00  0.00    +0.000 A 
ATOM     18  C   UNL     1      -5.622  14.573  23.739  0.00  0.00    +0.000 A 
ATOM     19  C   UNL     1      -4.484  15.364  23.663  0.00  0.00    +0.000 A 
ATOM     20  C   UNL     1      -3.783  15.465  22.481  0.00  0.00    +0.000 A 
ATOM     21  C   UNL     1      -4.336  14.864  21.342  0.00  0.00    +0.000 A 
ATOM     22  C   UNL     1      -5.524  14.118  21.357  0.00  0.00    +0.000 A 
BRANCH  20  23
ATOM     23  N   UNL     1      -2.599  16.154  22.361  0.00  0.00    +0.000 N 
ATOM     24  C   UNL     1      -2.168  16.678  21.063  0.00  0.00    +0.000 C 
ATOM     25  C   UNL     1      -0.626  16.789  21.083  0.00  0.00    +0.000 C 
ATOM     26  N   UNL     1      -0.135  17.646  22.190  0.00  0.00    +0.000 NA
ATOM     27  C   UNL     1       1.325  17.665  22.208  0.00  0.00    +0.000 C 
ATOM     28  C   UNL     1      -0.660  17.142  23.483  0.00  0.00    +0.000 C 
ATOM     29  C   UNL     1      -2.201  17.022  23.489  0.00  0.00    +0.000 C 
ENDBRANCH  20  23
BRANCH  17  31
ATOM     30  C   UNL     1      -7.623  11.905  21.957  0.00  0.00    +0.000 C 
ATOM     31  C   UNL     1      -7.294  13.039  22.932  0.00  0.00    +0.000 C 
ATOM     32  O   UNL     1      -7.916  13.195  23.957  0.00  0.00    +0.000 OA
ENDBRANCH  17  31
ENDBRANCH   1  22
BRANCH  10  33
ATOM     33  C   UNL     1       1.265   9.456  18.492  0.00  0.00    +0.000 C 
ATOM     34  N   UNL     1       1.635   8.505  19.403  0.00  0.00    +0.000 N 
ATOM     35  O   UNL     1       1.898   9.570  17.433  0.00  0.00    +0.000 OA
ATOM     36  H   UNL     1       1.233   8.500  20.337  0.00  0.00    +0.000 HD
ATOM     37  H   UNL     1       2.474   7.975  19.207  0.00  0.00    +0.000 HD
ENDBRANCH  10  33
TORSDOF 4
ENDMDL
MODEL 8
REMARK VINA RESULT:      -6.6      3.363      7.923
REMARK  Name = 
REMARK  7 active torsions:
REMARK  status: ('A' for Active; 'I' for Inactive)
REMARK    1  A    between atoms: C_1  and  C_2
REMARK    2  A    between atoms: C_2  and  C_4
REMARK    3  A    between atoms: C_7  and  N_8
REMARK    4  A    between atoms: N_11  and  C_12
REMARK    5  A    between atoms: C_16  and  N_17
REMARK    6  A    between atoms: C_26  and  C_27
REMARK    7  A    between atoms: N_31  and  C_32
REMARK                            x       y       z     vdW  Elec       q    Type
REMARK                         _______ _______ _______ _____ _____    ______ ____
ROOT
ATOM      1  N   UNL     1      -0.823  13.713  22.033  0.00  0.00    +0.000 N 
ATOM      2  C   UNL     1      -0.385  12.369  22.056  0.00  0.00    +0.000 A 
ATOM      3  N   UNL     1      -0.791  11.626  23.098  0.00  0.00    +0.000 NA
ATOM      4  C   UNL     1      -0.653  10.289  23.001  0.00  0.00    +0.000 A 
ATOM      5  C   UNL     1      -0.092   9.670  21.916  0.00  0.00    +0.000 A 
ATOM      6  C   UNL     1       0.382  10.519  20.931  0.00  0.00    +0.000 A 
ATOM      7  N   UNL     1       0.250  11.845  20.983  0.00  0.00    +0.000 NA
ATOM      8  C   UNL     1       1.085   9.924  19.804  0.00  0.00    +0.000 A 
ATOM      9  C   UNL     1       1.477   8.595  19.773  0.00  0.00    +0.000 A 
ATOM     10  C   UNL     1       2.186   8.419  18.548  0.00  0.00    +0.000 A 
ATOM     11  N   UNL     1       2.151   9.563  17.827  0.00  0.00    +0.000 NA
ATOM     12  N   UNL     1       1.466  10.444  18.596  0.00  0.00    +0.000 N 
ATOM     13  C   UNL     1       1.158  11.729  18.019  0.00  0.00    +0.000 C 
ATOM     14  C   UNL     1       1.160   7.684  20.924  0.00  0.00    +0.000 C 
ATOM     15  C   UNL     1      -0.096   8.178  21.688  0.00  0.00    +0.000 C 
ATOM     16  H   UNL     1      -1.789  13.691  22.349  0.00  0.00    +0.000 HD
ENDROOT
BRANCH   1  22
ATOM     17  C   UNL     1      -1.465  15.622  20.517  0.00  0.00    +0.000 A 
ATOM     18  C   UNL     1      -1.082  16.451  19.455  0.00  0.00    +0.000 A 
ATOM     19  C   UNL     1       0.219  16.453  18.974  0.00  0.00    +0.000 A 
ATOM     20  C   UNL     1       1.182  15.660  19.561  0.00  0.00    +0.000 A 
ATOM     21  C   UNL     1       0.768  14.760  20.553  0.00  0.00    +0.000 A 
ATOM     22  C   UNL     1      -0.551  14.670  21.018  0.00  0.00    +0.000 A 
BRANCH  20  23
ATOM     23  N   UNL     1       2.507  15.684  19.194  0.00  0.00    +0.000 N 
ATOM     24  C   UNL     1       2.913  16.224  17.894  0.00  0.00    +0.000 C 
ATOM     25  C   UNL     1       4.249  15.554  17.497  0.00  0.00    +0.000 C 
ATOM     26  N   UNL     1       5.309  15.763  18.513  0.00  0.00    +0.000 NA
ATOM     27  C   UNL     1       6.528  15.057  18.127  0.00  0.00    +0.000 C 
ATOM     28  C   UNL     1       4.836  15.287  19.837  0.00  0.00    +0.000 C 
ATOM     29  C   UNL     1       3.501  15.943  20.257  0.00  0.00    +0.000 C 
ENDBRANCH  20  23
BRANCH  17  31
ATOM     30  C   UNL     1      -3.561  17.129  20.487  0.00  0.00    +0.000 C 
ATOM     31  C   UNL     1      -2.882  15.830  20.931  0.00  0.00    +0.000 C 
ATOM     32  O   UNL     1      -3.486  14.969  21.527  0.00  0.00    +0.000 OA
ENDBRANCH  17  31
ENDBRANCH   1  22
BRANCH  10  33
ATOM     33  C   UNL     1       2.884   7.235  18.028  0.00  0.00    +0.000 C 
ATOM     34  N   UNL     1       2.233   6.037  18.145  0.00  0.00    +0.000 N 
ATOM     35  O   UNL     1       4.011   7.272  17.515  0.00  0.00    +0.000 OA
ATOM     36  H   UNL     1       1.385   5.962  18.700  0.00  0.00    +0.000 HD
ATOM     37  H   UNL     1       2.739   5.205  17.873  0.00  0.00    +0.000 HD
ENDBRANCH  10  33
TORSDOF 4
ENDMDL
MODEL 9
REMARK VINA RESULT:      -6.6      3.783      7.769
REMARK  Name = 
REMARK  7 active torsions:
REMARK  status: ('A' for Active; 'I' for Inactive)
REMARK    1  A    between atoms: C_1  and  C_2
REMARK    2  A    between atoms: C_2  and  C_4
REMARK    3  A    between atoms: C_7  and  N_8
REMARK    4  A    between atoms: N_11  and  C_12
REMARK    5  A    between atoms: C_16  and  N_17
REMARK    6  A    between atoms: C_26  and  C_27
REMARK    7  A    between atoms: N_31  and  C_32
REMARK                            x       y       z     vdW  Elec       q    Type
REMARK                         _______ _______ _______ _____ _____    ______ ____
ROOT
ATOM      1  N   UNL     1       0.135  14.293  21.472  0.00  0.00    +0.000 N 
ATOM      2  C   UNL     1       0.233  12.894  21.655  0.00  0.00    +0.000 A 
ATOM      3  N   UNL     1      -0.448  12.378  22.691  0.00  0.00    +0.000 NA
ATOM      4  C   UNL     1      -0.625  11.043  22.717  0.00  0.00    +0.000 A 
ATOM      5  C   UNL     1      -0.117  10.201  21.764  0.00  0.00    +0.000 A 
ATOM      6  C   UNL     1       0.648  10.810  20.785  0.00  0.00    +0.000 A 
ATOM      7  N   UNL     1       0.834  12.128  20.717  0.00  0.00    +0.000 NA
ATOM      8  C   UNL     1       1.304   9.954  19.807  0.00  0.00    +0.000 A 
ATOM      9  C   UNL     1       1.367   8.574  19.931  0.00  0.00    +0.000 A 
ATOM     10  C   UNL     1       2.139   8.112  18.824  0.00  0.00    +0.000 A 
ATOM     11  N   UNL     1       2.456   9.152  18.017  0.00  0.00    +0.000 NA
ATOM     12  N   UNL     1       1.925  10.242  18.621  0.00  0.00    +0.000 N 
ATOM     13  C   UNL     1       1.996  11.495  17.911  0.00  0.00    +0.000 C 
ATOM     14  C   UNL     1       0.720   7.887  21.098  0.00  0.00    +0.000 C 
ATOM     15  C   UNL     1      -0.454   8.733  21.655  0.00  0.00    +0.000 C 
ATOM     16  H   UNL     1      -0.836  14.526  21.662  0.00  0.00    +0.000 HD
ENDROOT
BRANCH   1  22
ATOM     17  C   UNL     1       0.084  16.019  19.636  0.00  0.00    +0.000 A 
ATOM     18  C   UNL     1       0.781  16.630  18.587  0.00  0.00    +0.000 A 
ATOM     19  C   UNL     1       2.136  16.404  18.392  0.00  0.00    +0.000 A 
ATOM     20  C   UNL     1       2.841  15.597  19.259  0.00  0.00    +0.000 A 
ATOM     21  C   UNL     1       2.116  14.910  20.243  0.00  0.00    +0.000 A 
ATOM     22  C   UNL     1       0.734  15.050  20.428  0.00  0.00    +0.000 A 
BRANCH  20  23
ATOM     23  N   UNL     1       4.200  15.406  19.178  0.00  0.00    +0.000 N 
ATOM     24  C   UNL     1       4.873  15.367  17.878  0.00  0.00    +0.000 C 
ATOM     25  C   UNL     1       6.162  14.528  18.034  0.00  0.00    +0.000 C 
ATOM     26  N   UNL     1       7.064  15.067  19.081  0.00  0.00    +0.000 NA
ATOM     27  C   UNL     1       8.232  14.204  19.238  0.00  0.00    +0.000 C 
ATOM     28  C   UNL     1       6.328  15.177  20.366  0.00  0.00    +0.000 C 
ATOM     29  C   UNL     1       5.035  16.013  20.236  0.00  0.00    +0.000 C 
ENDBRANCH  20  23
BRANCH  17  31
ATOM     30  C   UNL     1      -1.776  17.601  18.798  0.00  0.00    +0.000 C 
ATOM     31  C   UNL     1      -1.339  16.456  19.716  0.00  0.00    +0.000 C 
ATOM     32  O   UNL     1      -2.128  15.873  20.423  0.00  0.00    +0.000 OA
ENDBRANCH  17  31
ENDBRANCH   1  22
BRANCH  10  33
ATOM     33  C   UNL     1       2.584   6.751  18.491  0.00  0.00    +0.000 C 
ATOM     34  N   UNL     1       3.624   6.643  17.609  0.00  0.00    +0.000 N 
ATOM     35  O   UNL     1       2.063   5.727  18.954  0.00  0.00    +0.000 OA
ATOM     36  H   UNL     1       3.958   7.458  17.102  0.00  0.00    +0.000 HD
ATOM     37  H   UNL     1       3.880   5.714  17.304  0.00  0.00    +0.000 HD
ENDBRANCH  10  33
TORSDOF 4
ENDMDL
