MODEL 1
REMARK VINA RESULT:      -7.0      0.000      0.000
REMARK  Name = 
REMARK  2 active torsions:
REMARK  status: ('A' for Active; 'I' for Inactive)
REMARK    1  A    between atoms: C_1  and  C_2
REMARK    2  A    between atoms: C_2  and  N_3
REMARK                            x       y       z     vdW  Elec       q    Type
REMARK                         _______ _______ _______ _____ _____    ______ ____
ROOT
ATOM      1  N   UNL     1       6.104   6.113  17.950  0.00  0.00    +0.000 N 
ATOM      2  C   UNL     1       4.930   6.124  17.198  0.00  0.00    +0.000 C 
ATOM      3  O   UNL     1       4.806   6.458  16.029  0.00  0.00    +0.000 OA
ATOM      4  C   UNL     1       3.798   5.652  18.066  0.00  0.00    +0.000 C 
ATOM      5  C   UNL     1       2.570   4.480  17.432  0.00  0.00    +0.000 C 
ATOM      6  C   UNL     1       2.364   2.696  17.692  0.00  0.00    +0.000 C 
ATOM      7  C   UNL     1       3.179   2.077  18.739  0.00  0.00    +0.000 C 
ATOM      8  C   UNL     1       4.479   3.089  19.487  0.00  0.00    +0.000 C 
ATOM      9  C   UNL     1       4.358   3.461  18.140  0.00  0.00    +0.000 C 
ATOM     10  C   UNL     1       2.703   4.228  18.813  0.00  0.00    +0.000 C 
ATOM     11  C   UNL     1       4.716   4.901  19.493  0.00  0.00    +0.000 C 
ATOM     12  C   UNL     1       6.105   5.434  19.175  0.00  0.00    +0.000 C 
ATOM     13  O   UNL     1       7.082   5.223  19.878  0.00  0.00    +0.000 OA
ENDROOT
BRANCH   1  15
ATOM     14  C   UNL     1       7.711   7.949  17.621  0.00  0.00    +0.000 C 
ATOM     15  C   UNL     1       7.362   6.494  17.331  0.00  0.00    +0.000 C 
ENDBRANCH   1  15
TORSDOF 1
ENDMDL
MODEL 2
REMARK VINA RESULT:      -6.6      2.185      3.052
REMARK  Name = 
REMARK  2 active torsions:
REMARK  status: ('A' for Active; 'I' for Inactive)
REMARK    1  A    between atoms: C_1  and  C_2
REMARK    2  A    between atoms: C_2  and  N_3
REMARK                            x       y       z     vdW  Elec       q    Type
REMARK                         _______ _______ _______ _____ _____    ______ ____
ROOT
ATOM      1  N   UNL     1       3.888   5.518  17.391  0.00  0.00    +0.000 N 
ATOM      2  C   UNL     1       3.765   4.131  17.293  0.00  0.00    +0.000 C 
ATOM      3  O   UNL     1       4.616   3.341  16.913  0.00  0.00    +0.000 OA
ATOM      4  C   UNL     1       2.384   3.738  17.734  0.00  0.00    +0.000 C 
ATOM      5  C   UNL     1       2.128   2.309  18.817  0.00  0.00    +0.000 C 
ATOM      6  C   UNL     1       1.788   2.194  20.596  0.00  0.00    +0.000 C 
ATOM      7  C   UNL     1       1.455   3.439  21.293  0.00  0.00    +0.000 C 
ATOM      8  C   UNL     1       1.664   4.985  20.376  0.00  0.00    +0.000 C 
ATOM      9  C   UNL     1       2.657   4.090  19.952  0.00  0.00    +0.000 C 
ATOM     10  C   UNL     1       1.116   3.242  19.123  0.00  0.00    +0.000 C 
ATOM     11  C   UNL     1       1.813   5.289  18.580  0.00  0.00    +0.000 C 
ATOM     12  C   UNL     1       2.917   6.224  18.110  0.00  0.00    +0.000 C 
ATOM     13  O   UNL     1       2.957   7.411  18.396  0.00  0.00    +0.000 OA
ENDROOT
BRANCH   1  15
ATOM     14  C   UNL     1       5.214   6.527  15.578  0.00  0.00    +0.000 C 
ATOM     15  C   UNL     1       5.149   6.156  17.055  0.00  0.00    +0.000 C 
ENDBRANCH   1  15
TORSDOF 1
ENDMDL
MODEL 3
REMARK VINA RESULT:      -6.6      2.258      4.889
REMARK  Name = 
REMARK  2 active torsions:
REMARK  status: ('A' for Active; 'I' for Inactive)
REMARK    1  A    between atoms: C_1  and  C_2
REMARK    2  A    between atoms: C_2  and  N_3
REMARK                            x       y       z     vdW  Elec       q    Type
REMARK                         _______ _______ _______ _____ _____    ______ ____
ROOT
ATOM      1  N   UNL     1       3.095   3.357  18.931  0.00  0.00    +0.000 N 
ATOM      2  C   UNL     1       4.409   3.439  19.390  0.00  0.00    +0.000 C 
ATOM      3  O   UNL     1       4.983   2.652  20.129  0.00  0.00    +0.000 OA
ATOM      4  C   UNL     1       5.039   4.681  18.827  0.00  0.00    +0.000 C 
ATOM      5  C   UNL     1       6.723   4.647  18.161  0.00  0.00    +0.000 C 
ATOM      6  C   UNL     1       7.342   4.608  16.456  0.00  0.00    +0.000 C 
ATOM      7  C   UNL     1       6.368   4.841  15.388  0.00  0.00    +0.000 C 
ATOM      8  C   UNL     1       4.620   4.892  15.855  0.00  0.00    +0.000 C 
ATOM      9  C   UNL     1       5.268   3.971  16.691  0.00  0.00    +0.000 C 
ATOM     10  C   UNL     1       6.010   5.613  17.422  0.00  0.00    +0.000 C 
ATOM     11  C   UNL     1       3.835   5.130  17.488  0.00  0.00    +0.000 C 
ATOM     12  C   UNL     1       2.705   4.188  17.874  0.00  0.00    +0.000 C 
ATOM     13  O   UNL     1       1.639   4.139  17.278  0.00  0.00    +0.000 OA
ENDROOT
BRANCH   1  15
ATOM     14  C   UNL     1       1.367   2.547  20.487  0.00  0.00    +0.000 C 
ATOM     15  C   UNL     1       2.269   2.221  19.303  0.00  0.00    +0.000 C 
ENDBRANCH   1  15
TORSDOF 1
ENDMDL
MODEL 4
REMARK VINA RESULT:      -6.6      2.126      4.421
REMARK  Name = 
REMARK  2 active torsions:
REMARK  status: ('A' for Active; 'I' for Inactive)
REMARK    1  A    between atoms: C_1  and  C_2
REMARK    2  A    between atoms: C_2  and  N_3
REMARK                            x       y       z     vdW  Elec       q    Type
REMARK                         _______ _______ _______ _____ _____    ______ ____
ROOT
ATOM      1  N   UNL     1       3.177   4.223  19.751  0.00  0.00    +0.000 N 
ATOM      2  C   UNL     1       2.924   5.396  19.039  0.00  0.00    +0.000 C 
ATOM      3  O   UNL     1       2.206   6.325  19.379  0.00  0.00    +0.000 OA
ATOM      4  C   UNL     1       3.687   5.348  17.746  0.00  0.00    +0.000 C 
ATOM      5  C   UNL     1       4.585   6.803  17.145  0.00  0.00    +0.000 C 
ATOM      6  C   UNL     1       6.350   7.220  17.166  0.00  0.00    +0.000 C 
ATOM      7  C   UNL     1       7.283   6.154  17.540  0.00  0.00    +0.000 C 
ATOM      8  C   UNL     1       6.573   4.619  18.184  0.00  0.00    +0.000 C 
ATOM      9  C   UNL     1       5.757   5.682  18.596  0.00  0.00    +0.000 C 
ATOM     10  C   UNL     1       5.300   5.669  16.706  0.00  0.00    +0.000 C 
ATOM     11  C   UNL     1       4.873   3.957  18.069  0.00  0.00    +0.000 C 
ATOM     12  C   UNL     1       4.240   3.410  19.339  0.00  0.00    +0.000 C 
ATOM     13  O   UNL     1       4.667   2.431  19.934  0.00  0.00    +0.000 OA
ENDROOT
BRANCH   1  15
ATOM     14  C   UNL     1       1.295   3.222  20.983  0.00  0.00    +0.000 C 
ATOM     15  C   UNL     1       2.583   4.033  21.063  0.00  0.00    +0.000 C 
ENDBRANCH   1  15
TORSDOF 1
ENDMDL
MODEL 5
REMARK VINA RESULT:      -6.5      1.972      4.589
REMARK  Name = 
REMARK  2 active torsions:
REMARK  status: ('A' for Active; 'I' for Inactive)
REMARK    1  A    between atoms: C_1  and  C_2
REMARK    2  A    between atoms: C_2  and  N_3
REMARK                            x       y       z     vdW  Elec       q    Type
REMARK                         _______ _______ _______ _____ _____    ______ ____
ROOT
ATOM      1  N   UNL     1       3.638   4.818  19.136  0.00  0.00    +0.000 N 
ATOM      2  C   UNL     1       4.895   4.217  19.187  0.00  0.00    +0.000 C 
ATOM      3  O   UNL     1       5.171   3.122  19.656  0.00  0.00    +0.000 OA
ATOM      4  C   UNL     1       5.898   5.144  18.561  0.00  0.00    +0.000 C 
ATOM      5  C   UNL     1       7.158   4.515  17.422  0.00  0.00    +0.000 C 
ATOM      6  C   UNL     1       7.278   4.568  15.613  0.00  0.00    +0.000 C 
ATOM      7  C   UNL     1       6.322   5.424  14.906  0.00  0.00    +0.000 C 
ATOM      8  C   UNL     1       4.971   6.136  15.876  0.00  0.00    +0.000 C 
ATOM      9  C   UNL     1       5.267   4.872  16.406  0.00  0.00    +0.000 C 
ATOM     10  C   UNL     1       6.850   5.827  17.008  0.00  0.00    +0.000 C 
ATOM     11  C   UNL     1       4.789   6.346  17.683  0.00  0.00    +0.000 C 
ATOM     12  C   UNL     1       3.467   5.937  18.313  0.00  0.00    +0.000 C 
ATOM     13  O   UNL     1       2.405   6.488  18.061  0.00  0.00    +0.000 OA
ENDROOT
BRANCH   1  15
ATOM     14  C   UNL     1       2.163   4.509  21.084  0.00  0.00    +0.000 C 
ATOM     15  C   UNL     1       2.477   4.109  19.647  0.00  0.00    +0.000 C 
ENDBRANCH   1  15
TORSDOF 1
ENDMDL
MODEL 6
REMARK VINA RESULT:      -6.5      2.392      4.593
REMARK  Name = 
REMARK  2 active torsions:
REMARK  status: ('A' for Active; 'I' for Inactive)
REMARK    1  A    between atoms: C_1  and  C_2
REMARK    2  A    between atoms: C_2  and  N_3
REMARK                            x       y       z     vdW  Elec       q    Type
REMARK                         _______ _______ _______ _____ _____    ______ ____
ROOT
ATOM      1  N   UNL     1       2.978   3.824  18.970  0.00  0.00    +0.000 N 
ATOM      2  C   UNL     1       3.340   5.171  18.997  0.00  0.00    +0.000 C 
ATOM      3  O   UNL     1       3.350   5.913  19.968  0.00  0.00    +0.000 OA
ATOM      4  C   UNL     1       3.728   5.593  17.608  0.00  0.00    +0.000 C 
ATOM      5  C   UNL     1       5.194   6.619  17.326  0.00  0.00    +0.000 C 
ATOM      6  C   UNL     1       6.855   6.203  16.727  0.00  0.00    +0.000 C 
ATOM      7  C   UNL     1       7.048   4.861  16.172  0.00  0.00    +0.000 C 
ATOM      8  C   UNL     1       5.693   3.679  16.372  0.00  0.00    +0.000 C 
ATOM      9  C   UNL     1       5.713   4.512  17.499  0.00  0.00    +0.000 C 
ATOM     10  C   UNL     1       5.048   5.791  16.194  0.00  0.00    +0.000 C 
ATOM     11  C   UNL     1       3.929   3.950  16.767  0.00  0.00    +0.000 C 
ATOM     12  C   UNL     1       3.300   3.069  17.836  0.00  0.00    +0.000 C 
ATOM     13  O   UNL     1       3.171   1.860  17.718  0.00  0.00    +0.000 OA
ENDROOT
BRANCH   1  15
ATOM     14  C   UNL     1       1.088   3.232  20.434  0.00  0.00    +0.000 C 
ATOM     15  C   UNL     1       2.592   3.155  20.201  0.00  0.00    +0.000 C 
ENDBRANCH   1  15
TORSDOF 1
ENDMDL
MODEL 7
REMARK VINA RESULT:      -6.5      2.613      4.742
REMARK  Name = 
REMARK  2 active torsions:
REMARK  status: ('A' for Active; 'I' for Inactive)
REMARK    1  A    between atoms: C_1  and  C_2
REMARK    2  A    between atoms: C_2  and  N_3
REMARK                            x       y       z     vdW  Elec       q    Type
REMARK                         _______ _______ _______ _____ _____    ______ ____
ROOT
ATOM      1  N   UNL     1       2.745   3.769  19.849  0.00  0.00    +0.000 N 
ATOM      2  C   UNL     1       3.747   3.112  19.135  0.00  0.00    +0.000 C 
ATOM      3  O   UNL     1       3.734   1.955  18.741  0.00  0.00    +0.000 OA
ATOM      4  C   UNL     1       4.887   4.065  18.917  0.00  0.00    +0.000 C 
ATOM      5  C   UNL     1       5.712   4.172  17.308  0.00  0.00    +0.000 C 
ATOM      6  C   UNL     1       5.580   5.386  15.966  0.00  0.00    +0.000 C 
ATOM      7  C   UNL     1       4.846   6.620  16.255  0.00  0.00    +0.000 C 
ATOM      8  C   UNL     1       3.938   6.700  17.817  0.00  0.00    +0.000 C 
ATOM      9  C   UNL     1       3.900   5.375  17.359  0.00  0.00    +0.000 C 
ATOM     10  C   UNL     1       5.770   5.457  17.884  0.00  0.00    +0.000 C 
ATOM     11  C   UNL     1       4.092   5.690  19.333  0.00  0.00    +0.000 C 
ATOM     12  C   UNL     1       2.813   5.162  19.965  0.00  0.00    +0.000 C 
ATOM     13  O   UNL     1       1.950   5.887  20.438  0.00  0.00    +0.000 OA
ENDROOT
BRANCH   1  15
ATOM     14  C   UNL     1       1.478   2.610  21.614  0.00  0.00    +0.000 C 
ATOM     15  C   UNL     1       1.508   3.074  20.163  0.00  0.00    +0.000 C 
ENDBRANCH   1  15
TORSDOF 1
ENDMDL
MODEL 8
REMARK VINA RESULT:      -6.5      0.942      1.185
REMARK  Name = 
REMARK  2 active torsions:
REMARK  status: ('A' for Active; 'I' for Inactive)
REMARK    1  A    between atoms: C_1  and  C_2
REMARK    2  A    between atoms: C_2  and  N_3
REMARK                            x       y       z     vdW  Elec       q    Type
REMARK                         _______ _______ _______ _____ _____    ______ ____
ROOT
ATOM      1  N   UNL     1       5.935   6.023  17.952  0.00  0.00    +0.000 N 
ATOM      2  C   UNL     1       4.739   6.353  17.314  0.00  0.00    +0.000 C 
ATOM      3  O   UNL     1       4.598   6.717  16.156  0.00  0.00    +0.000 OA
ATOM      4  C   UNL     1       3.611   6.194  18.293  0.00  0.00    +0.000 C 
ATOM      5  C   UNL     1       2.060   5.398  17.799  0.00  0.00    +0.000 C 
ATOM      6  C   UNL     1       1.411   3.732  18.108  0.00  0.00    +0.000 C 
ATOM      7  C   UNL     1       2.128   2.909  19.085  0.00  0.00    +0.000 C 
ATOM      8  C   UNL     1       3.717   3.531  19.688  0.00  0.00    +0.000 C 
ATOM      9  C   UNL     1       3.571   3.933  18.353  0.00  0.00    +0.000 C 
ATOM     10  C   UNL     1       2.253   5.109  19.165  0.00  0.00    +0.000 C 
ATOM     11  C   UNL     1       4.428   5.214  19.640  0.00  0.00    +0.000 C 
ATOM     12  C   UNL     1       5.872   5.359  19.183  0.00  0.00    +0.000 C 
ATOM     13  O   UNL     1       6.819   4.888  19.794  0.00  0.00    +0.000 OA
ENDROOT
BRANCH   1  15
ATOM     14  C   UNL     1       7.401   4.777  16.415  0.00  0.00    +0.000 C 
ATOM     15  C   UNL     1       7.183   6.059  17.210  0.00  0.00    +0.000 C 
ENDBRANCH   1  15
TORSDOF 1
ENDMDL
MODEL 9
REMARK VINA RESULT:      -6.4      1.345      2.855
REMARK  Name = 
REMARK  2 active torsions:
REMARK  status: ('A' for Active; 'I' for Inactive)
REMARK    1  A    between atoms: C_1  and  C_2
REMARK    2  A    between atoms: C_2  and  N_3
REMARK                            x       y       z     vdW  Elec       q    Type
REMARK                         _______ _______ _______ _____ _____    ______ ____
ROOT
ATOM      1  N   UNL     1       5.904   4.612  17.567  0.00  0.00    +0.000 N 
ATOM      2  C   UNL     1       5.667   4.427  18.929  0.00  0.00    +0.000 C 
ATOM      3  O   UNL     1       6.151   5.062  19.855  0.00  0.00    +0.000 OA
ATOM      4  C   UNL     1       4.698   3.292  19.100  0.00  0.00    +0.000 C 
ATOM      5  C   UNL     1       3.326   3.413  20.277  0.00  0.00    +0.000 C 
ATOM      6  C   UNL     1       1.558   3.739  20.034  0.00  0.00    +0.000 C 
ATOM      7  C   UNL     1       1.059   3.714  18.657  0.00  0.00    +0.000 C 
ATOM      8  C   UNL     1       2.286   3.613  17.331  0.00  0.00    +0.000 C 
ATOM      9  C   UNL     1       2.839   4.361  18.380  0.00  0.00    +0.000 C 
ATOM     10  C   UNL     1       2.882   2.604  19.211  0.00  0.00    +0.000 C 
ATOM     11  C   UNL     1       4.042   3.105  17.374  0.00  0.00    +0.000 C 
ATOM     12  C   UNL     1       5.050   3.986  16.651  0.00  0.00    +0.000 C 
ATOM     13  O   UNL     1       5.045   4.156  15.441  0.00  0.00    +0.000 OA
ENDROOT
BRANCH   1  15
ATOM     14  C   UNL     1       6.065   7.022  17.091  0.00  0.00    +0.000 C 
ATOM     15  C   UNL     1       6.785   5.679  17.125  0.00  0.00    +0.000 C 
ENDBRANCH   1  15
TORSDOF 1
ENDMDL
