MODEL 1
REMARK VINA RESULT:      -7.6      0.000      0.000
REMARK  Name = 
REMARK  9 active torsions:
REMARK  status: ('A' for Active; 'I' for Inactive)
REMARK    1  A    between atoms: C_2  and  C_3
REMARK    2  A    between atoms: C_3  and  C_4
REMARK    3  A    between atoms: N_6  and  C_7
REMARK    4  A    between atoms: C_10  and  O_11
REMARK    5  A    between atoms: O_11  and  C_12
REMARK    6  A    between atoms: C_18  and  O_19
REMARK    7  A    between atoms: C_18  and  C_20
REMARK    8  A    between atoms: C_23  and  O_24
REMARK    9  A    between atoms: O_24  and  C_25
REMARK                            x       y       z     vdW  Elec       q    Type
REMARK                         _______ _______ _______ _____ _____    ______ ____
ROOT
ATOM      1  C   UNL     1       2.063   7.776  19.625  0.00  0.00    +0.000 C 
ATOM      2  C   UNL     1       2.478   6.519  19.924  0.00  0.00    +0.000 C 
ENDROOT
BRANCH   2   3
ATOM      3  C   UNL     1       3.256   5.684  18.999  0.00  0.00    +0.000 A 
ATOM      4  C   UNL     1       2.616   4.993  17.967  0.00  0.00    +0.000 A 
ATOM      5  C   UNL     1       3.364   4.253  17.049  0.00  0.00    +0.000 A 
ATOM      6  C   UNL     1       4.761   4.208  17.141  0.00  0.00    +0.000 A 
ATOM      7  C   UNL     1       5.392   4.842  18.208  0.00  0.00    +0.000 A 
ATOM      8  C   UNL     1       4.647   5.597  19.121  0.00  0.00    +0.000 A 
BRANCH   6   9
ATOM      9  O   UNL     1       5.376   3.472  16.177  0.00  0.00    +0.000 OA
BRANCH   9  10
ATOM     10  C   UNL     1       6.092   4.138  15.143  0.00  0.00    +0.000 C 
ATOM     11  F   UNL     1       5.536   5.294  14.726  0.00  0.00    +0.000 F 
ATOM     12  F   UNL     1       7.348   4.394  15.570  0.00  0.00    +0.000 F 
ATOM     13  F   UNL     1       6.173   3.312  14.075  0.00  0.00    +0.000 F 
ENDBRANCH   9  10
ENDBRANCH   6   9
ENDBRANCH   2   3
BRANCH   1  14
ATOM     14  C   UNL     1       1.311   8.538  20.659  0.00  0.00    +0.000 C 
ATOM     15  O   UNL     1       1.402   8.157  21.832  0.00  0.00    +0.000 OA
ATOM     16  N   UNL     1       0.522   9.591  20.248  0.00  0.00    +0.000 N 
ATOM     17  H   UNL     1       0.342   9.730  19.260  0.00  0.00    +0.000 HD
BRANCH  16  18
ATOM     18  C   UNL     1      -0.194  10.434  21.136  0.00  0.00    +0.000 A 
ATOM     19  C   UNL     1      -0.653  10.008  22.387  0.00  0.00    +0.000 A 
ATOM     20  C   UNL     1      -1.378  10.865  23.216  0.00  0.00    +0.000 A 
ATOM     21  C   UNL     1      -1.642  12.174  22.822  0.00  0.00    +0.000 A 
ATOM     22  C   UNL     1      -1.210  12.600  21.568  0.00  0.00    +0.000 A 
ATOM     23  C   UNL     1      -0.462  11.747  20.743  0.00  0.00    +0.000 A 
BRANCH  21  24
ATOM     24  O   UNL     1      -2.383  12.893  23.705  0.00  0.00    +0.000 OA
BRANCH  24  25
ATOM     25  C   UNL     1      -3.799  12.772  23.688  0.00  0.00    +0.000 C 
ATOM     26  F   UNL     1      -4.308  12.321  22.524  0.00  0.00    +0.000 F 
ATOM     27  F   UNL     1      -4.175  11.932  24.676  0.00  0.00    +0.000 F 
ATOM     28  F   UNL     1      -4.339  13.985  23.936  0.00  0.00    +0.000 F 
ENDBRANCH  24  25
ENDBRANCH  21  24
ENDBRANCH  16  18
ENDBRANCH   1  14
BRANCH   1  30
ATOM     29  N   UNL     1       2.677   8.812  17.118  0.00  0.00    +0.000 NA
ATOM     30  C   UNL     1       2.398   8.342  18.254  0.00  0.00    +0.000 C 
ENDBRANCH   1  30
BRANCH   2  31
ATOM     31  O   UNL     1       2.241   5.861  21.119  0.00  0.00    +0.000 OA
ATOM     32  H   UNL     1       2.204   6.522  21.847  0.00  0.00    +0.000 HD
ENDBRANCH   2  31
TORSDOF 9
ENDMDL
MODEL 2
REMARK VINA RESULT:      -7.6      0.141      1.114
REMARK  Name = 
REMARK  9 active torsions:
REMARK  status: ('A' for Active; 'I' for Inactive)
REMARK    1  A    between atoms: C_2  and  C_3
REMARK    2  A    between atoms: C_3  and  C_4
REMARK    3  A    between atoms: N_6  and  C_7
REMARK    4  A    between atoms: C_10  and  O_11
REMARK    5  A    between atoms: O_11  and  C_12
REMARK    6  A    between atoms: C_18  and  O_19
REMARK    7  A    between atoms: C_18  and  C_20
REMARK    8  A    between atoms: C_23  and  O_24
REMARK    9  A    between atoms: O_24  and  C_25
REMARK                            x       y       z     vdW  Elec       q    Type
REMARK                         _______ _______ _______ _____ _____    ______ ____
ROOT
ATOM      1  C   UNL     1       2.048   7.748  19.588  0.00  0.00    +0.000 C 
ATOM      2  C   UNL     1       2.461   6.493  19.898  0.00  0.00    +0.000 C 
ENDROOT
BRANCH   2   3
ATOM      3  C   UNL     1       3.256   5.657  18.990  0.00  0.00    +0.000 A 
ATOM      4  C   UNL     1       2.625   4.870  18.023  0.00  0.00    +0.000 A 
ATOM      5  C   UNL     1       3.385   4.127  17.117  0.00  0.00    +0.000 A 
ATOM      6  C   UNL     1       4.784   4.176  17.156  0.00  0.00    +0.000 A 
ATOM      7  C   UNL     1       5.412   4.908  18.160  0.00  0.00    +0.000 A 
ATOM      8  C   UNL     1       4.654   5.666  19.060  0.00  0.00    +0.000 A 
BRANCH   6   9
ATOM      9  O   UNL     1       5.410   3.426  16.209  0.00  0.00    +0.000 OA
BRANCH   9  10
ATOM     10  C   UNL     1       6.100   4.078  15.148  0.00  0.00    +0.000 C 
ATOM     11  F   UNL     1       6.175   3.367  14.003  0.00  0.00    +0.000 F 
ATOM     12  F   UNL     1       5.493   5.255  14.885  0.00  0.00    +0.000 F 
ATOM     13  F   UNL     1       7.364   4.339  15.553  0.00  0.00    +0.000 F 
ENDBRANCH   9  10
ENDBRANCH   6   9
ENDBRANCH   2   3
BRANCH   1  14
ATOM     14  C   UNL     1       1.276   8.511  20.607  0.00  0.00    +0.000 C 
ATOM     15  O   UNL     1       1.404   8.180  21.792  0.00  0.00    +0.000 OA
ATOM     16  N   UNL     1       0.430   9.509  20.172  0.00  0.00    +0.000 N 
ATOM     17  H   UNL     1       0.228   9.602  19.183  0.00  0.00    +0.000 HD
BRANCH  16  18
ATOM     18  C   UNL     1      -0.312  10.349  21.041  0.00  0.00    +0.000 A 
ATOM     19  C   UNL     1      -0.784  11.610  20.664  0.00  0.00    +0.000 A 
ATOM     20  C   UNL     1      -1.486  12.413  21.564  0.00  0.00    +0.000 A 
ATOM     21  C   UNL     1      -1.751  11.964  22.855  0.00  0.00    +0.000 A 
ATOM     22  C   UNL     1      -1.264  10.719  23.248  0.00  0.00    +0.000 A 
ATOM     23  C   UNL     1      -0.578   9.901  22.338  0.00  0.00    +0.000 A 
BRANCH  21  24
ATOM     24  O   UNL     1      -2.414  12.853  23.639  0.00  0.00    +0.000 OA
BRANCH  24  25
ATOM     25  C   UNL     1      -3.830  12.781  23.733  0.00  0.00    +0.000 C 
ATOM     26  F   UNL     1      -4.448  12.406  22.595  0.00  0.00    +0.000 F 
ATOM     27  F   UNL     1      -4.156  11.907  24.709  0.00  0.00    +0.000 F 
ATOM     28  F   UNL     1      -4.302  13.998  24.081  0.00  0.00    +0.000 F 
ENDBRANCH  24  25
ENDBRANCH  21  24
ENDBRANCH  16  18
ENDBRANCH   1  14
BRANCH   1  30
ATOM     29  N   UNL     1       2.703   8.778  17.089  0.00  0.00    +0.000 NA
ATOM     30  C   UNL     1       2.406   8.311  18.222  0.00  0.00    +0.000 C 
ENDBRANCH   1  30
BRANCH   2  31
ATOM     31  O   UNL     1       2.204   5.837  21.091  0.00  0.00    +0.000 OA
ATOM     32  H   UNL     1       1.888   6.492  21.754  0.00  0.00    +0.000 HD
ENDBRANCH   2  31
TORSDOF 9
ENDMDL
MODEL 3
REMARK VINA RESULT:      -7.6      0.278      1.019
REMARK  Name = 
REMARK  9 active torsions:
REMARK  status: ('A' for Active; 'I' for Inactive)
REMARK    1  A    between atoms: C_2  and  C_3
REMARK    2  A    between atoms: C_3  and  C_4
REMARK    3  A    between atoms: N_6  and  C_7
REMARK    4  A    between atoms: C_10  and  O_11
REMARK    5  A    between atoms: O_11  and  C_12
REMARK    6  A    between atoms: C_18  and  O_19
REMARK    7  A    between atoms: C_18  and  C_20
REMARK    8  A    between atoms: C_23  and  O_24
REMARK    9  A    between atoms: O_24  and  C_25
REMARK                            x       y       z     vdW  Elec       q    Type
REMARK                         _______ _______ _______ _____ _____    ______ ____
ROOT
ATOM      1  C   UNL     1       1.920   7.945  19.673  0.00  0.00    +0.000 C 
ATOM      2  C   UNL     1       2.309   6.685  19.992  0.00  0.00    +0.000 C 
ENDROOT
BRANCH   2   3
ATOM      3  C   UNL     1       3.055   5.813  19.074  0.00  0.00    +0.000 A 
ATOM      4  C   UNL     1       2.380   5.075  18.099  0.00  0.00    +0.000 A 
ATOM      5  C   UNL     1       3.096   4.299  17.185  0.00  0.00    +0.000 A 
ATOM      6  C   UNL     1       4.495   4.264  17.226  0.00  0.00    +0.000 A 
ATOM      7  C   UNL     1       5.164   4.946  18.238  0.00  0.00    +0.000 A 
ATOM      8  C   UNL     1       4.451   5.738  19.146  0.00  0.00    +0.000 A 
BRANCH   6   9
ATOM      9  O   UNL     1       5.078   3.489  16.271  0.00  0.00    +0.000 OA
BRANCH   9  10
ATOM     10  C   UNL     1       5.987   4.082  15.351  0.00  0.00    +0.000 C 
ATOM     11  F   UNL     1       7.225   4.297  15.840  0.00  0.00    +0.000 F 
ATOM     12  F   UNL     1       6.086   3.293  14.258  0.00  0.00    +0.000 F 
ATOM     13  F   UNL     1       5.486   5.276  14.960  0.00  0.00    +0.000 F 
ENDBRANCH   9  10
ENDBRANCH   6   9
ENDBRANCH   2   3
BRANCH   1  14
ATOM     14  C   UNL     1       1.199   8.745  20.701  0.00  0.00    +0.000 C 
ATOM     15  O   UNL     1       1.449   8.511  21.889  0.00  0.00    +0.000 OA
ATOM     16  N   UNL     1       0.264   9.664  20.274  0.00  0.00    +0.000 N 
ATOM     17  H   UNL     1      -0.028   9.670  19.303  0.00  0.00    +0.000 HD
BRANCH  16  18
ATOM     18  C   UNL     1      -0.445  10.530  21.145  0.00  0.00    +0.000 A 
ATOM     19  C   UNL     1      -0.733  10.205  22.474  0.00  0.00    +0.000 A 
ATOM     20  C   UNL     1      -1.458  11.078  23.286  0.00  0.00    +0.000 A 
ATOM     21  C   UNL     1      -1.893  12.306  22.794  0.00  0.00    +0.000 A 
ATOM     22  C   UNL     1      -1.631  12.629  21.463  0.00  0.00    +0.000 A 
ATOM     23  C   UNL     1      -0.883  11.762  20.653  0.00  0.00    +0.000 A 
BRANCH  21  24
ATOM     24  O   UNL     1      -2.614  13.046  23.675  0.00  0.00    +0.000 OA
BRANCH  24  25
ATOM     25  C   UNL     1      -4.013  12.826  23.789  0.00  0.00    +0.000 C 
ATOM     26  F   UNL     1      -4.733  13.930  24.074  0.00  0.00    +0.000 F 
ATOM     27  F   UNL     1      -4.468  12.305  22.629  0.00  0.00    +0.000 F 
ATOM     28  F   UNL     1      -4.230  11.923  24.771  0.00  0.00    +0.000 F 
ENDBRANCH  24  25
ENDBRANCH  21  24
ENDBRANCH  16  18
ENDBRANCH   1  14
BRANCH   1  30
ATOM     29  N   UNL     1       2.529   8.917  17.139  0.00  0.00    +0.000 NA
ATOM     30  C   UNL     1       2.253   8.476  18.288  0.00  0.00    +0.000 C 
ENDBRANCH   1  30
BRANCH   2  31
ATOM     31  O   UNL     1       2.069   6.055  21.202  0.00  0.00    +0.000 OA
ATOM     32  H   UNL     1       1.312   5.436  21.096  0.00  0.00    +0.000 HD
ENDBRANCH   2  31
TORSDOF 9
ENDMDL
MODEL 4
REMARK VINA RESULT:      -7.4      0.929      1.343
REMARK  Name = 
REMARK  9 active torsions:
REMARK  status: ('A' for Active; 'I' for Inactive)
REMARK    1  A    between atoms: C_2  and  C_3
REMARK    2  A    between atoms: C_3  and  C_4
REMARK    3  A    between atoms: N_6  and  C_7
REMARK    4  A    between atoms: C_10  and  O_11
REMARK    5  A    between atoms: O_11  and  C_12
REMARK    6  A    between atoms: C_18  and  O_19
REMARK    7  A    between atoms: C_18  and  C_20
REMARK    8  A    between atoms: C_23  and  O_24
REMARK    9  A    between atoms: O_24  and  C_25
REMARK                            x       y       z     vdW  Elec       q    Type
REMARK                         _______ _______ _______ _____ _____    ______ ____
ROOT
ATOM      1  C   UNL     1       1.992   7.776  19.600  0.00  0.00    +0.000 C 
ATOM      2  C   UNL     1       2.376   6.508  19.897  0.00  0.00    +0.000 C 
ENDROOT
BRANCH   2   3
ATOM      3  C   UNL     1       3.180   5.676  18.993  0.00  0.00    +0.000 A 
ATOM      4  C   UNL     1       2.560   4.914  18.000  0.00  0.00    +0.000 A 
ATOM      5  C   UNL     1       3.331   4.175  17.099  0.00  0.00    +0.000 A 
ATOM      6  C   UNL     1       4.729   4.203  17.169  0.00  0.00    +0.000 A 
ATOM      7  C   UNL     1       5.344   4.909  18.199  0.00  0.00    +0.000 A 
ATOM      8  C   UNL     1       4.576   5.663  19.095  0.00  0.00    +0.000 A 
BRANCH   6   9
ATOM      9  O   UNL     1       5.366   3.460  16.225  0.00  0.00    +0.000 OA
BRANCH   9  10
ATOM     10  C   UNL     1       6.014   4.117  15.141  0.00  0.00    +0.000 C 
ATOM     11  F   UNL     1       6.089   3.393  14.005  0.00  0.00    +0.000 F 
ATOM     12  F   UNL     1       5.364   5.271  14.873  0.00  0.00    +0.000 F 
ATOM     13  F   UNL     1       7.276   4.425  15.517  0.00  0.00    +0.000 F 
ENDBRANCH   9  10
ENDBRANCH   6   9
ENDBRANCH   2   3
BRANCH   1  14
ATOM     14  C   UNL     1       1.207   8.533  20.614  0.00  0.00    +0.000 C 
ATOM     15  O   UNL     1       1.367   8.235  21.804  0.00  0.00    +0.000 OA
ATOM     16  N   UNL     1       0.315   9.486  20.170  0.00  0.00    +0.000 N 
ATOM     17  H   UNL     1       0.094   9.546  19.183  0.00  0.00    +0.000 HD
BRANCH  16  18
ATOM     18  C   UNL     1      -0.445  10.317  21.032  0.00  0.00    +0.000 A 
ATOM     19  C   UNL     1      -0.507  10.126  22.415  0.00  0.00    +0.000 A 
ATOM     20  C   UNL     1      -1.292  10.953  23.220  0.00  0.00    +0.000 A 
ATOM     21  C   UNL     1      -2.014  12.004  22.663  0.00  0.00    +0.000 A 
ATOM     22  C   UNL     1      -1.978  12.188  21.282  0.00  0.00    +0.000 A 
ATOM     23  C   UNL     1      -1.172  11.372  20.474  0.00  0.00    +0.000 A 
BRANCH  21  24
ATOM     24  O   UNL     1      -2.761  12.711  23.550  0.00  0.00    +0.000 OA
BRANCH  24  25
ATOM     25  C   UNL     1      -2.349  14.020  23.921  0.00  0.00    +0.000 C 
ATOM     26  F   UNL     1      -1.045  14.125  24.245  0.00  0.00    +0.000 F 
ATOM     27  F   UNL     1      -2.608  14.863  22.899  0.00  0.00    +0.000 F 
ATOM     28  F   UNL     1      -3.077  14.415  24.989  0.00  0.00    +0.000 F 
ENDBRANCH  24  25
ENDBRANCH  21  24
ENDBRANCH  16  18
ENDBRANCH   1  14
BRANCH   1  30
ATOM     29  N   UNL     1       2.727   8.841  17.139  0.00  0.00    +0.000 NA
ATOM     30  C   UNL     1       2.393   8.358  18.255  0.00  0.00    +0.000 C 
ENDBRANCH   1  30
BRANCH   2  31
ATOM     31  O   UNL     1       2.078   5.835  21.070  0.00  0.00    +0.000 OA
ATOM     32  H   UNL     1       2.169   6.457  21.828  0.00  0.00    +0.000 HD
ENDBRANCH   2  31
TORSDOF 9
ENDMDL
MODEL 5
REMARK VINA RESULT:      -7.3      0.239      1.128
REMARK  Name = 
REMARK  9 active torsions:
REMARK  status: ('A' for Active; 'I' for Inactive)
REMARK    1  A    between atoms: C_2  and  C_3
REMARK    2  A    between atoms: C_3  and  C_4
REMARK    3  A    between atoms: N_6  and  C_7
REMARK    4  A    between atoms: C_10  and  O_11
REMARK    5  A    between atoms: O_11  and  C_12
REMARK    6  A    between atoms: C_18  and  O_19
REMARK    7  A    between atoms: C_18  and  C_20
REMARK    8  A    between atoms: C_23  and  O_24
REMARK    9  A    between atoms: O_24  and  C_25
REMARK                            x       y       z     vdW  Elec       q    Type
REMARK                         _______ _______ _______ _____ _____    ______ ____
ROOT
ATOM      1  C   UNL     1       2.004   7.868  19.531  0.00  0.00    +0.000 C 
ATOM      2  C   UNL     1       2.387   6.588  19.768  0.00  0.00    +0.000 C 
ENDROOT
BRANCH   2   3
ATOM      3  C   UNL     1       3.154   5.784  18.807  0.00  0.00    +0.000 A 
ATOM      4  C   UNL     1       4.550   5.825  18.811  0.00  0.00    +0.000 A 
ATOM      5  C   UNL     1       5.279   5.010  17.942  0.00  0.00    +0.000 A 
ATOM      6  C   UNL     1       4.620   4.131  17.073  0.00  0.00    +0.000 A 
ATOM      7  C   UNL     1       3.229   4.138  17.023  0.00  0.00    +0.000 A 
ATOM      8  C   UNL     1       2.496   4.943  17.903  0.00  0.00    +0.000 A 
BRANCH   6   9
ATOM      9  O   UNL     1       5.440   3.375  16.292  0.00  0.00    +0.000 OA
BRANCH   9  10
ATOM     10  C   UNL     1       6.142   3.991  15.218  0.00  0.00    +0.000 C 
ATOM     11  F   UNL     1       7.377   4.433  15.531  0.00  0.00    +0.000 F 
ATOM     12  F   UNL     1       6.246   3.111  14.198  0.00  0.00    +0.000 F 
ATOM     13  F   UNL     1       5.422   5.051  14.785  0.00  0.00    +0.000 F 
ENDBRANCH   9  10
ENDBRANCH   6   9
ENDBRANCH   2   3
BRANCH   1  14
ATOM     14  C   UNL     1       1.259   8.593  20.598  0.00  0.00    +0.000 C 
ATOM     15  O   UNL     1       1.449   8.244  21.769  0.00  0.00    +0.000 OA
ATOM     16  N   UNL     1       0.369   9.576  20.219  0.00  0.00    +0.000 N 
ATOM     17  H   UNL     1       0.121   9.680  19.242  0.00  0.00    +0.000 HD
BRANCH  16  18
ATOM     18  C   UNL     1      -0.354  10.380  21.136  0.00  0.00    +0.000 A 
ATOM     19  C   UNL     1      -0.618   9.987  22.452  0.00  0.00    +0.000 A 
ATOM     20  C   UNL     1      -1.358  10.801  23.310  0.00  0.00    +0.000 A 
ATOM     21  C   UNL     1      -1.833  12.036  22.879  0.00  0.00    +0.000 A 
ATOM     22  C   UNL     1      -1.596  12.427  21.562  0.00  0.00    +0.000 A 
ATOM     23  C   UNL     1      -0.833  11.620  20.705  0.00  0.00    +0.000 A 
BRANCH  21  24
ATOM     24  O   UNL     1      -2.566  12.714  23.800  0.00  0.00    +0.000 OA
BRANCH  24  25
ATOM     25  C   UNL     1      -3.977  12.787  23.652  0.00  0.00    +0.000 C 
ATOM     26  F   UNL     1      -4.452  12.222  22.524  0.00  0.00    +0.000 F 
ATOM     27  F   UNL     1      -4.557  12.184  24.713  0.00  0.00    +0.000 F 
ATOM     28  F   UNL     1      -4.345  14.088  23.653  0.00  0.00    +0.000 F 
ENDBRANCH  24  25
ENDBRANCH  21  24
ENDBRANCH  16  18
ENDBRANCH   1  14
BRANCH   1  30
ATOM     29  N   UNL     1       2.667   9.019  17.088  0.00  0.00    +0.000 NA
ATOM     30  C   UNL     1       2.366   8.497  18.196  0.00  0.00    +0.000 C 
ENDBRANCH   1  30
BRANCH   2  31
ATOM     31  O   UNL     1       2.122   5.874  20.924  0.00  0.00    +0.000 OA
ATOM     32  H   UNL     1       1.149   5.747  21.006  0.00  0.00    +0.000 HD
ENDBRANCH   2  31
TORSDOF 9
ENDMDL
MODEL 6
REMARK VINA RESULT:      -7.3      2.187      3.304
REMARK  Name = 
REMARK  9 active torsions:
REMARK  status: ('A' for Active; 'I' for Inactive)
REMARK    1  A    between atoms: C_2  and  C_3
REMARK    2  A    between atoms: C_3  and  C_4
REMARK    3  A    between atoms: N_6  and  C_7
REMARK    4  A    between atoms: C_10  and  O_11
REMARK    5  A    between atoms: O_11  and  C_12
REMARK    6  A    between atoms: C_18  and  O_19
REMARK    7  A    between atoms: C_18  and  C_20
REMARK    8  A    between atoms: C_23  and  O_24
REMARK    9  A    between atoms: O_24  and  C_25
REMARK                            x       y       z     vdW  Elec       q    Type
REMARK                         _______ _______ _______ _____ _____    ______ ____
ROOT
ATOM      1  C   UNL     1       2.872   5.814  18.231  0.00  0.00    +0.000 C 
ATOM      2  C   UNL     1       4.041   6.245  17.693  0.00  0.00    +0.000 C 
ENDROOT
BRANCH   2   3
ATOM      3  C   UNL     1       4.766   5.516  16.645  0.00  0.00    +0.000 A 
ATOM      4  C   UNL     1       5.038   4.154  16.794  0.00  0.00    +0.000 A 
ATOM      5  C   UNL     1       5.669   3.447  15.768  0.00  0.00    +0.000 A 
ATOM      6  C   UNL     1       6.019   4.089  14.574  0.00  0.00    +0.000 A 
ATOM      7  C   UNL     1       5.807   5.460  14.451  0.00  0.00    +0.000 A 
ATOM      8  C   UNL     1       5.162   6.168  15.472  0.00  0.00    +0.000 A 
BRANCH   6   9
ATOM      9  O   UNL     1       6.607   3.290  13.643  0.00  0.00    +0.000 OA
BRANCH   9  10
ATOM     10  C   UNL     1       6.143   3.328  12.298  0.00  0.00    +0.000 C 
ATOM     11  F   UNL     1       6.311   2.179  11.611  0.00  0.00    +0.000 F 
ATOM     12  F   UNL     1       4.830   3.644  12.294  0.00  0.00    +0.000 F 
ATOM     13  F   UNL     1       6.811   4.302  11.640  0.00  0.00    +0.000 F 
ENDBRANCH   9  10
ENDBRANCH   6   9
ENDBRANCH   2   3
BRANCH   1  14
ATOM     14  C   UNL     1       2.213   6.660  19.264  0.00  0.00    +0.000 C 
ATOM     15  O   UNL     1       1.865   6.114  20.317  0.00  0.00    +0.000 OA
ATOM     16  N   UNL     1       1.986   7.987  18.970  0.00  0.00    +0.000 N 
ATOM     17  H   UNL     1       2.120   8.324  18.024  0.00  0.00    +0.000 HD
BRANCH  16  18
ATOM     18  C   UNL     1       1.425   8.912  19.887  0.00  0.00    +0.000 A 
ATOM     19  C   UNL     1       0.928  10.162  19.503  0.00  0.00    +0.000 A 
ATOM     20  C   UNL     1       0.410  11.050  20.446  0.00  0.00    +0.000 A 
ATOM     21  C   UNL     1       0.357  10.701  21.792  0.00  0.00    +0.000 A 
ATOM     22  C   UNL     1       0.872   9.469  22.189  0.00  0.00    +0.000 A 
ATOM     23  C   UNL     1       1.372   8.565  21.240  0.00  0.00    +0.000 A 
BRANCH  21  24
ATOM     24  O   UNL     1      -0.139  11.667  22.609  0.00  0.00    +0.000 OA
BRANCH  24  25
ATOM     25  C   UNL     1      -1.522  11.664  22.932  0.00  0.00    +0.000 C 
ATOM     26  F   UNL     1      -1.946  10.557  23.573  0.00  0.00    +0.000 F 
ATOM     27  F   UNL     1      -1.790  12.738  23.706  0.00  0.00    +0.000 F 
ATOM     28  F   UNL     1      -2.233  11.781  21.789  0.00  0.00    +0.000 F 
ENDBRANCH  24  25
ENDBRANCH  21  24
ENDBRANCH  16  18
ENDBRANCH   1  14
BRANCH   1  30
ATOM     29  N   UNL     1       1.812   3.404  17.334  0.00  0.00    +0.000 NA
ATOM     30  C   UNL     1       2.293   4.497  17.741  0.00  0.00    +0.000 C 
ENDBRANCH   1  30
BRANCH   2  31
ATOM     31  O   UNL     1       4.700   7.412  18.043  0.00  0.00    +0.000 OA
ATOM     32  H   UNL     1       4.064   8.162  18.008  0.00  0.00    +0.000 HD
ENDBRANCH   2  31
TORSDOF 9
ENDMDL
MODEL 7
REMARK VINA RESULT:      -7.3      2.148      3.030
REMARK  Name = 
REMARK  9 active torsions:
REMARK  status: ('A' for Active; 'I' for Inactive)
REMARK    1  A    between atoms: C_2  and  C_3
REMARK    2  A    between atoms: C_3  and  C_4
REMARK    3  A    between atoms: N_6  and  C_7
REMARK    4  A    between atoms: C_10  and  O_11
REMARK    5  A    between atoms: O_11  and  C_12
REMARK    6  A    between atoms: C_18  and  O_19
REMARK    7  A    between atoms: C_18  and  C_20
REMARK    8  A    between atoms: C_23  and  O_24
REMARK    9  A    between atoms: O_24  and  C_25
REMARK                            x       y       z     vdW  Elec       q    Type
REMARK                         _______ _______ _______ _____ _____    ______ ____
ROOT
ATOM      1  C   UNL     1       2.865   5.704  18.407  0.00  0.00    +0.000 C 
ATOM      2  C   UNL     1       4.044   6.147  17.901  0.00  0.00    +0.000 C 
ENDROOT
BRANCH   2   3
ATOM      3  C   UNL     1       4.747   5.485  16.794  0.00  0.00    +0.000 A 
ATOM      4  C   UNL     1       5.081   4.132  16.880  0.00  0.00    +0.000 A 
ATOM      5  C   UNL     1       5.689   3.489  15.800  0.00  0.00    +0.000 A 
ATOM      6  C   UNL     1       5.955   4.187  14.615  0.00  0.00    +0.000 A 
ATOM      7  C   UNL     1       5.683   5.551  14.554  0.00  0.00    +0.000 A 
ATOM      8  C   UNL     1       5.059   6.195  15.629  0.00  0.00    +0.000 A 
BRANCH   6   9
ATOM      9  O   UNL     1       6.530   3.446  13.630  0.00  0.00    +0.000 OA
BRANCH   9  10
ATOM     10  C   UNL     1       5.895   3.366  12.358  0.00  0.00    +0.000 C 
ATOM     11  F   UNL     1       4.579   3.661  12.365  0.00  0.00    +0.000 F 
ATOM     12  F   UNL     1       6.519   4.203  11.500  0.00  0.00    +0.000 F 
ATOM     13  F   UNL     1       6.032   2.106  11.888  0.00  0.00    +0.000 F 
ENDBRANCH   9  10
ENDBRANCH   6   9
ENDBRANCH   2   3
BRANCH   1  14
ATOM     14  C   UNL     1       2.232   6.481  19.508  0.00  0.00    +0.000 C 
ATOM     15  O   UNL     1       2.050   5.904  20.588  0.00  0.00    +0.000 OA
ATOM     16  N   UNL     1       1.841   7.777  19.250  0.00  0.00    +0.000 N 
ATOM     17  H   UNL     1       1.844   8.124  18.298  0.00  0.00    +0.000 HD
BRANCH  16  18
ATOM     18  C   UNL     1       1.285   8.642  20.227  0.00  0.00    +0.000 A 
ATOM     19  C   UNL     1       0.736   8.182  21.428  0.00  0.00    +0.000 A 
ATOM     20  C   UNL     1       0.174   9.070  22.347  0.00  0.00    +0.000 A 
ATOM     21  C   UNL     1       0.168  10.439  22.096  0.00  0.00    +0.000 A 
ATOM     22  C   UNL     1       0.691  10.905  20.891  0.00  0.00    +0.000 A 
ATOM     23  C   UNL     1       1.276  10.017  19.976  0.00  0.00    +0.000 A 
BRANCH  21  24
ATOM     24  O   UNL     1      -0.437  11.188  23.054  0.00  0.00    +0.000 OA
BRANCH  24  25
ATOM     25  C   UNL     1      -1.546  12.005  22.705  0.00  0.00    +0.000 C 
ATOM     26  F   UNL     1      -2.071  11.747  21.490  0.00  0.00    +0.000 F 
ATOM     27  F   UNL     1      -2.513  11.846  23.633  0.00  0.00    +0.000 F 
ATOM     28  F   UNL     1      -1.152  13.297  22.722  0.00  0.00    +0.000 F 
ENDBRANCH  24  25
ENDBRANCH  21  24
ENDBRANCH  16  18
ENDBRANCH   1  14
BRANCH   1  30
ATOM     29  N   UNL     1       1.739   3.405  17.322  0.00  0.00    +0.000 NA
ATOM     30  C   UNL     1       2.250   4.447  17.814  0.00  0.00    +0.000 C 
ENDBRANCH   1  30
BRANCH   2  31
ATOM     31  O   UNL     1       4.736   7.263  18.342  0.00  0.00    +0.000 OA
ATOM     32  H   UNL     1       5.268   7.624  17.597  0.00  0.00    +0.000 HD
ENDBRANCH   2  31
TORSDOF 9
ENDMDL
MODEL 8
REMARK VINA RESULT:      -7.2      2.206      2.880
REMARK  Name = 
REMARK  9 active torsions:
REMARK  status: ('A' for Active; 'I' for Inactive)
REMARK    1  A    between atoms: C_2  and  C_3
REMARK    2  A    between atoms: C_3  and  C_4
REMARK    3  A    between atoms: N_6  and  C_7
REMARK    4  A    between atoms: C_10  and  O_11
REMARK    5  A    between atoms: O_11  and  C_12
REMARK    6  A    between atoms: C_18  and  O_19
REMARK    7  A    between atoms: C_18  and  C_20
REMARK    8  A    between atoms: C_23  and  O_24
REMARK    9  A    between atoms: O_24  and  C_25
REMARK                            x       y       z     vdW  Elec       q    Type
REMARK                         _______ _______ _______ _____ _____    ______ ____
ROOT
ATOM      1  C   UNL     1       3.058   5.739  19.182  0.00  0.00    +0.000 C 
ATOM      2  C   UNL     1       3.397   6.252  17.971  0.00  0.00    +0.000 C 
ENDROOT
BRANCH   2   3
ATOM      3  C   UNL     1       4.305   5.577  17.034  0.00  0.00    +0.000 A 
ATOM      4  C   UNL     1       4.091   4.242  16.684  0.00  0.00    +0.000 A 
ATOM      5  C   UNL     1       4.915   3.622  15.742  0.00  0.00    +0.000 A 
ATOM      6  C   UNL     1       5.953   4.335  15.128  0.00  0.00    +0.000 A 
ATOM      7  C   UNL     1       6.207   5.644  15.526  0.00  0.00    +0.000 A 
ATOM      8  C   UNL     1       5.374   6.273  16.458  0.00  0.00    +0.000 A 
BRANCH   6   9
ATOM      9  O   UNL     1       6.671   3.628  14.214  0.00  0.00    +0.000 OA
BRANCH   9  10
ATOM     10  C   UNL     1       6.334   3.728  12.835  0.00  0.00    +0.000 C 
ATOM     11  F   UNL     1       5.026   3.947  12.589  0.00  0.00    +0.000 F 
ATOM     12  F   UNL     1       7.051   4.727  12.277  0.00  0.00    +0.000 F 
ATOM     13  F   UNL     1       6.679   2.572  12.223  0.00  0.00    +0.000 F 
ENDBRANCH   9  10
ENDBRANCH   6   9
ENDBRANCH   2   3
BRANCH   1  14
ATOM     14  C   UNL     1       2.099   6.501  20.029  0.00  0.00    +0.000 C 
ATOM     15  O   UNL     1       1.359   5.856  20.780  0.00  0.00    +0.000 OA
ATOM     16  N   UNL     1       2.058   7.873  19.894  0.00  0.00    +0.000 N 
ATOM     17  H   UNL     1       2.551   8.318  19.129  0.00  0.00    +0.000 HD
BRANCH  16  18
ATOM     18  C   UNL     1       1.237   8.718  20.684  0.00  0.00    +0.000 A 
ATOM     19  C   UNL     1       1.274   8.727  22.081  0.00  0.00    +0.000 A 
ATOM     20  C   UNL     1       0.426   9.557  22.817  0.00  0.00    +0.000 A 
ATOM     21  C   UNL     1      -0.462  10.412  22.171  0.00  0.00    +0.000 A 
ATOM     22  C   UNL     1      -0.524  10.392  20.779  0.00  0.00    +0.000 A 
ATOM     23  C   UNL     1       0.343   9.576  20.037  0.00  0.00    +0.000 A 
BRANCH  21  24
ATOM     24  O   UNL     1      -1.252  11.141  23.002  0.00  0.00    +0.000 OA
BRANCH  24  25
ATOM     25  C   UNL     1      -1.388  12.539  22.786  0.00  0.00    +0.000 C 
ATOM     26  F   UNL     1      -2.227  12.872  21.785  0.00  0.00    +0.000 F 
ATOM     27  F   UNL     1      -1.828  13.114  23.926  0.00  0.00    +0.000 F 
ATOM     28  F   UNL     1      -0.171  13.051  22.497  0.00  0.00    +0.000 F 
ENDBRANCH  24  25
ENDBRANCH  21  24
ENDBRANCH  16  18
ENDBRANCH   1  14
BRANCH   1  30
ATOM     29  N   UNL     1       4.168   3.308  19.949  0.00  0.00    +0.000 NA
ATOM     30  C   UNL     1       3.665   4.410  19.601  0.00  0.00    +0.000 C 
ENDBRANCH   1  30
BRANCH   2  31
ATOM     31  O   UNL     1       2.942   7.453  17.454  0.00  0.00    +0.000 OA
ATOM     32  H   UNL     1       2.673   8.040  18.198  0.00  0.00    +0.000 HD
ENDBRANCH   2  31
TORSDOF 9
ENDMDL
MODEL 9
REMARK VINA RESULT:      -7.2      1.067      1.608
REMARK  Name = 
REMARK  9 active torsions:
REMARK  status: ('A' for Active; 'I' for Inactive)
REMARK    1  A    between atoms: C_2  and  C_3
REMARK    2  A    between atoms: C_3  and  C_4
REMARK    3  A    between atoms: N_6  and  C_7
REMARK    4  A    between atoms: C_10  and  O_11
REMARK    5  A    between atoms: O_11  and  C_12
REMARK    6  A    between atoms: C_18  and  O_19
REMARK    7  A    between atoms: C_18  and  C_20
REMARK    8  A    between atoms: C_23  and  O_24
REMARK    9  A    between atoms: O_24  and  C_25
REMARK                            x       y       z     vdW  Elec       q    Type
REMARK                         _______ _______ _______ _____ _____    ______ ____
ROOT
ATOM      1  C   UNL     1       1.942   7.903  19.645  0.00  0.00    +0.000 C 
ATOM      2  C   UNL     1       2.305   6.637  19.971  0.00  0.00    +0.000 C 
ENDROOT
BRANCH   2   3
ATOM      3  C   UNL     1       3.086   5.767  19.082  0.00  0.00    +0.000 A 
ATOM      4  C   UNL     1       2.450   5.030  18.080  0.00  0.00    +0.000 A 
ATOM      5  C   UNL     1       3.202   4.255  17.194  0.00  0.00    +0.000 A 
ATOM      6  C   UNL     1       4.598   4.221  17.289  0.00  0.00    +0.000 A 
ATOM      7  C   UNL     1       5.227   4.902  18.327  0.00  0.00    +0.000 A 
ATOM      8  C   UNL     1       4.478   5.692  19.208  0.00  0.00    +0.000 A 
BRANCH   6   9
ATOM      9  O   UNL     1       5.218   3.448  16.356  0.00  0.00    +0.000 OA
BRANCH   9  10
ATOM     10  C   UNL     1       6.025   4.068  15.361  0.00  0.00    +0.000 C 
ATOM     11  F   UNL     1       6.166   3.355  14.225  0.00  0.00    +0.000 F 
ATOM     12  F   UNL     1       5.495   5.271  15.051  0.00  0.00    +0.000 F 
ATOM     13  F   UNL     1       7.259   4.273  15.875  0.00  0.00    +0.000 F 
ENDBRANCH   9  10
ENDBRANCH   6   9
ENDBRANCH   2   3
BRANCH   1  14
ATOM     14  C   UNL     1       1.179   8.700  20.645  0.00  0.00    +0.000 C 
ATOM     15  O   UNL     1       1.466   8.550  21.839  0.00  0.00    +0.000 OA
ATOM     16  N   UNL     1       0.169   9.522  20.191  0.00  0.00    +0.000 N 
ATOM     17  H   UNL     1      -0.139   9.454  19.228  0.00  0.00    +0.000 HD
BRANCH  16  18
ATOM     18  C   UNL     1      -0.589  10.377  21.030  0.00  0.00    +0.000 A 
ATOM     19  C   UNL     1      -1.265  11.506  20.557  0.00  0.00    +0.000 A 
ATOM     20  C   UNL     1      -1.976  12.334  21.426  0.00  0.00    +0.000 A 
ATOM     21  C   UNL     1      -2.045  12.041  22.786  0.00  0.00    +0.000 A 
ATOM     22  C   UNL     1      -1.355  10.931  23.271  0.00  0.00    +0.000 A 
ATOM     23  C   UNL     1      -0.658  10.085  22.395  0.00  0.00    +0.000 A 
BRANCH  21  24
ATOM     24  O   UNL     1      -2.740  12.943  23.526  0.00  0.00    +0.000 OA
BRANCH  24  25
ATOM     25  C   UNL     1      -2.141  14.191  23.847  0.00  0.00    +0.000 C 
ATOM     26  F   UNL     1      -2.447  15.194  22.999  0.00  0.00    +0.000 F 
ATOM     27  F   UNL     1      -2.524  14.549  25.092  0.00  0.00    +0.000 F 
ATOM     28  F   UNL     1      -0.799  14.039  23.846  0.00  0.00    +0.000 F 
ENDBRANCH  24  25
ENDBRANCH  21  24
ENDBRANCH  16  18
ENDBRANCH   1  14
BRANCH   1  30
ATOM     29  N   UNL     1       2.678   8.892  17.152  0.00  0.00    +0.000 NA
ATOM     30  C   UNL     1       2.344   8.444  18.283  0.00  0.00    +0.000 C 
ENDBRANCH   1  30
BRANCH   2  31
ATOM     31  O   UNL     1       2.003   5.999  21.162  0.00  0.00    +0.000 OA
ATOM     32  H   UNL     1       2.212   6.603  21.911  0.00  0.00    +0.000 HD
ENDBRANCH   2  31
TORSDOF 9
ENDMDL
