MODEL 1
REMARK VINA RESULT:      -7.8      0.000      0.000
REMARK  Name = 
REMARK  7 active torsions:
REMARK  status: ('A' for Active; 'I' for Inactive)
REMARK    1  A    between atoms: S_2  and  N_4
REMARK    2  A    between atoms: S_2  and  C_21
REMARK    3  A    between atoms: N_4  and  C_5
REMARK    4  A    between atoms: N_8  and  C_9
REMARK    5  A    between atoms: C_9  and  C_10
REMARK    6  A    between atoms: C_10  and  O_11
REMARK    7  A    between atoms: O_11  and  C_12
REMARK                            x       y       z     vdW  Elec       q    Type
REMARK                         _______ _______ _______ _____ _____    ______ ____
ROOT
ATOM      1  C   UNL     1       5.119   3.902  17.675  0.00  0.00    +0.000 C 
ATOM      2  C   UNL     1       3.734   3.432  17.269  0.00  0.00    +0.000 C 
ATOM      3  C   UNL     1       2.654   4.395  17.743  0.00  0.00    +0.000 C 
ATOM      4  N   UNL     1       2.692   4.582  19.200  0.00  0.00    +0.000 NA
ATOM      5  C   UNL     1       4.008   5.056  19.656  0.00  0.00    +0.000 C 
ATOM      6  C   UNL     1       5.137   4.128  19.191  0.00  0.00    +0.000 C 
ENDROOT
BRANCH   1   7
ATOM      7  N   UNL     1       5.542   5.143  16.978  0.00  0.00    +0.000 NA
ATOM      8  H   UNL     1       4.852   5.578  16.371  0.00  0.00    +0.000 HD
BRANCH   7  10
ATOM      9  O   UNL     1       7.412   6.721  16.385  0.00  0.00    +0.000 OA
ATOM     10  S   UNL     1       7.112   5.309  16.381  0.00  0.00    +0.000 S 
ATOM     11  O   UNL     1       7.956   4.335  17.045  0.00  0.00    +0.000 OA
BRANCH  10  12
ATOM     12  C   UNL     1       6.958   4.842  14.666  0.00  0.00    +0.000 A 
ATOM     13  C   UNL     1       7.812   5.426  13.723  0.00  0.00    +0.000 A 
ATOM     14  C   UNL     1       7.716   5.051  12.382  0.00  0.00    +0.000 A 
ATOM     15  C   UNL     1       6.786   4.088  11.990  0.00  0.00    +0.000 A 
ATOM     16  C   UNL     1       5.949   3.493  12.936  0.00  0.00    +0.000 A 
ATOM     17  C   UNL     1       6.037   3.864  14.279  0.00  0.00    +0.000 A 
ENDBRANCH  10  12
ENDBRANCH   7  10
ENDBRANCH   1   7
BRANCH   4  18
ATOM     18  C   UNL     1       1.626   5.500  19.664  0.00  0.00    +0.000 C 
BRANCH  18  19
ATOM     19  C   UNL     1       2.184   6.704  20.436  0.00  0.00    +0.000 C 
BRANCH  19  20
ATOM     20  O   UNL     1       1.944   7.922  19.726  0.00  0.00    +0.000 OA
BRANCH  20  21
ATOM     21  C   UNL     1       1.143   8.824  20.383  0.00  0.00    +0.000 A 
ATOM     22  C   UNL     1       0.392   9.839  19.781  0.00  0.00    +0.000 A 
ATOM     23  C   UNL     1      -0.401  10.689  20.556  0.00  0.00    +0.000 A 
ATOM     24  C   UNL     1      -0.444  10.522  21.936  0.00  0.00    +0.000 A 
ATOM     25 BR   UNL     1      -1.534  11.661  22.981  0.00  0.00    +0.000 Br
ATOM     26  C   UNL     1       0.305   9.522  22.549  0.00  0.00    +0.000 A 
ATOM     27  C   UNL     1       1.099   8.674  21.771  0.00  0.00    +0.000 A 
ENDBRANCH  20  21
ENDBRANCH  19  20
ENDBRANCH  18  19
ENDBRANCH   4  18
TORSDOF 7
ENDMDL
MODEL 2
REMARK VINA RESULT:      -7.5      5.647      7.967
REMARK  Name = 
REMARK  7 active torsions:
REMARK  status: ('A' for Active; 'I' for Inactive)
REMARK    1  A    between atoms: S_2  and  N_4
REMARK    2  A    between atoms: S_2  and  C_21
REMARK    3  A    between atoms: N_4  and  C_5
REMARK    4  A    between atoms: N_8  and  C_9
REMARK    5  A    between atoms: C_9  and  C_10
REMARK    6  A    between atoms: C_10  and  O_11
REMARK    7  A    between atoms: O_11  and  C_12
REMARK                            x       y       z     vdW  Elec       q    Type
REMARK                         _______ _______ _______ _____ _____    ______ ____
ROOT
ATOM      1  C   UNL     1       5.081   5.051  16.124  0.00  0.00    +0.000 C 
ATOM      2  C   UNL     1       6.455   4.458  16.380  0.00  0.00    +0.000 C 
ATOM      3  C   UNL     1       7.193   5.206  17.482  0.00  0.00    +0.000 C 
ATOM      4  N   UNL     1       7.336   6.634  17.171  0.00  0.00    +0.000 NA
ATOM      5  C   UNL     1       6.033   7.274  16.929  0.00  0.00    +0.000 C 
ATOM      6  C   UNL     1       5.238   6.549  15.836  0.00  0.00    +0.000 C 
ENDROOT
BRANCH   1   7
ATOM      7  N   UNL     1       4.141   4.856  17.257  0.00  0.00    +0.000 NA
ATOM      8  H   UNL     1       4.395   5.296  18.138  0.00  0.00    +0.000 HD
BRANCH   7  10
ATOM      9  O   UNL     1       2.153   3.419  16.690  0.00  0.00    +0.000 OA
ATOM     10  S   UNL     1       3.357   3.379  17.486  0.00  0.00    +0.000 S 
ATOM     11  O   UNL     1       4.336   2.319  17.356  0.00  0.00    +0.000 OA
BRANCH  10  12
ATOM     12  C   UNL     1       2.825   3.448  19.188  0.00  0.00    +0.000 A 
ATOM     13  C   UNL     1       2.188   4.603  19.655  0.00  0.00    +0.000 A 
ATOM     14  C   UNL     1       1.747   4.659  20.978  0.00  0.00    +0.000 A 
ATOM     15  C   UNL     1       1.926   3.563  21.822  0.00  0.00    +0.000 A 
ATOM     16  C   UNL     1       2.545   2.404  21.347  0.00  0.00    +0.000 A 
ATOM     17  C   UNL     1       2.991   2.341  20.026  0.00  0.00    +0.000 A 
ENDBRANCH  10  12
ENDBRANCH   7  10
ENDBRANCH   1   7
BRANCH   4  18
ATOM     18  C   UNL     1       8.074   7.357  18.231  0.00  0.00    +0.000 C 
BRANCH  18  19
ATOM     19  C   UNL     1       8.220   8.855  17.929  0.00  0.00    +0.000 C 
BRANCH  19  20
ATOM     20  O   UNL     1       8.855   9.536  19.014  0.00  0.00    +0.000 OA
BRANCH  20  21
ATOM     21  C   UNL     1       9.439  10.733  18.679  0.00  0.00    +0.000 A 
ATOM     22  C   UNL     1      10.743  11.125  19.001  0.00  0.00    +0.000 A 
ATOM     23  C   UNL     1      11.233  12.367  18.591  0.00  0.00    +0.000 A 
ATOM     24  C   UNL     1      10.417  13.220  17.854  0.00  0.00    +0.000 A 
ATOM     25 BR   UNL     1      11.089  14.892  17.282  0.00  0.00    +0.000 Br
ATOM     26  C   UNL     1       9.115  12.846  17.533  0.00  0.00    +0.000 A 
ATOM     27  C   UNL     1       8.628  11.604  17.948  0.00  0.00    +0.000 A 
ENDBRANCH  20  21
ENDBRANCH  19  20
ENDBRANCH  18  19
ENDBRANCH   4  18
TORSDOF 7
ENDMDL
MODEL 3
REMARK VINA RESULT:      -7.5      5.350      7.483
REMARK  Name = 
REMARK  7 active torsions:
REMARK  status: ('A' for Active; 'I' for Inactive)
REMARK    1  A    between atoms: S_2  and  N_4
REMARK    2  A    between atoms: S_2  and  C_21
REMARK    3  A    between atoms: N_4  and  C_5
REMARK    4  A    between atoms: N_8  and  C_9
REMARK    5  A    between atoms: C_9  and  C_10
REMARK    6  A    between atoms: C_10  and  O_11
REMARK    7  A    between atoms: O_11  and  C_12
REMARK                            x       y       z     vdW  Elec       q    Type
REMARK                         _______ _______ _______ _____ _____    ______ ____
ROOT
ATOM      1  C   UNL     1       4.603   4.115  17.929  0.00  0.00    +0.000 C 
ATOM      2  C   UNL     1       5.233   4.231  16.553  0.00  0.00    +0.000 C 
ATOM      3  C   UNL     1       6.581   4.938  16.610  0.00  0.00    +0.000 C 
ATOM      4  N   UNL     1       6.468   6.278  17.203  0.00  0.00    +0.000 NA
ATOM      5  C   UNL     1       5.878   6.231  18.550  0.00  0.00    +0.000 C 
ATOM      6  C   UNL     1       4.524   5.513  18.552  0.00  0.00    +0.000 C 
ENDROOT
BRANCH   1   7
ATOM      7  N   UNL     1       5.346   3.204  18.836  0.00  0.00    +0.000 NA
ATOM      8  H   UNL     1       6.281   2.935  18.541  0.00  0.00    +0.000 HD
BRANCH   7  10
ATOM      9  O   UNL     1       4.534   0.822  18.757  0.00  0.00    +0.000 OA
ATOM     10  S   UNL     1       4.552   1.957  19.650  0.00  0.00    +0.000 S 
ATOM     11  O   UNL     1       5.088   1.877  20.994  0.00  0.00    +0.000 OA
BRANCH  10  12
ATOM     12  C   UNL     1       2.865   2.531  19.750  0.00  0.00    +0.000 A 
ATOM     13  C   UNL     1       1.940   2.092  18.797  0.00  0.00    +0.000 A 
ATOM     14  C   UNL     1       0.612   2.515  18.880  0.00  0.00    +0.000 A 
ATOM     15  C   UNL     1       0.211   3.358  19.916  0.00  0.00    +0.000 A 
ATOM     16  C   UNL     1       1.133   3.779  20.877  0.00  0.00    +0.000 A 
ATOM     17  C   UNL     1       2.462   3.361  20.801  0.00  0.00    +0.000 A 
ENDBRANCH  10  12
ENDBRANCH   7  10
ENDBRANCH   1   7
BRANCH   4  18
ATOM     18  C   UNL     1       7.774   6.975  17.237  0.00  0.00    +0.000 C 
BRANCH  18  19
ATOM     19  C   UNL     1       7.651   8.431  17.708  0.00  0.00    +0.000 C 
BRANCH  19  20
ATOM     20  O   UNL     1       8.644   8.736  18.690  0.00  0.00    +0.000 OA
BRANCH  20  21
ATOM     21  C   UNL     1       8.963  10.068  18.791  0.00  0.00    +0.000 A 
ATOM     22  C   UNL     1       8.729  11.040  17.812  0.00  0.00    +0.000 A 
ATOM     23  C   UNL     1       9.085  12.372  18.035  0.00  0.00    +0.000 A 
ATOM     24  C   UNL     1       9.675  12.734  19.242  0.00  0.00    +0.000 A 
ATOM     25 BR   UNL     1      10.138  14.542  19.551  0.00  0.00    +0.000 Br
ATOM     26  C   UNL     1       9.921  11.775  20.222  0.00  0.00    +0.000 A 
ATOM     27  C   UNL     1       9.565  10.444  19.993  0.00  0.00    +0.000 A 
ENDBRANCH  20  21
ENDBRANCH  19  20
ENDBRANCH  18  19
ENDBRANCH   4  18
TORSDOF 7
ENDMDL
MODEL 4
REMARK VINA RESULT:      -7.5      5.625      7.868
REMARK  Name = 
REMARK  7 active torsions:
REMARK  status: ('A' for Active; 'I' for Inactive)
REMARK    1  A    between atoms: S_2  and  N_4
REMARK    2  A    between atoms: S_2  and  C_21
REMARK    3  A    between atoms: N_4  and  C_5
REMARK    4  A    between atoms: N_8  and  C_9
REMARK    5  A    between atoms: C_9  and  C_10
REMARK    6  A    between atoms: C_10  and  O_11
REMARK    7  A    between atoms: O_11  and  C_12
REMARK                            x       y       z     vdW  Elec       q    Type
REMARK                         _______ _______ _______ _____ _____    ______ ____
ROOT
ATOM      1  C   UNL     1       4.637   4.993  16.319  0.00  0.00    +0.000 C 
ATOM      2  C   UNL     1       5.960   5.011  15.575  0.00  0.00    +0.000 C 
ATOM      3  C   UNL     1       7.095   5.508  16.460  0.00  0.00    +0.000 C 
ATOM      4  N   UNL     1       6.824   6.850  16.992  0.00  0.00    +0.000 NA
ATOM      5  C   UNL     1       5.559   6.894  17.743  0.00  0.00    +0.000 C 
ATOM      6  C   UNL     1       4.381   6.388  16.901  0.00  0.00    +0.000 C 
ENDROOT
BRANCH   1   7
ATOM      7  N   UNL     1       4.592   3.981  17.405  0.00  0.00    +0.000 NA
ATOM      8  H   UNL     1       5.476   3.543  17.652  0.00  0.00    +0.000 HD
BRANCH   7  10
ATOM      9  O   UNL     1       2.279   3.374  16.620  0.00  0.00    +0.000 OA
ATOM     10  S   UNL     1       3.291   2.915  17.542  0.00  0.00    +0.000 S 
ATOM     11  O   UNL     1       3.808   1.561  17.514  0.00  0.00    +0.000 OA
BRANCH  10  12
ATOM     12  C   UNL     1       2.654   3.240  19.176  0.00  0.00    +0.000 A 
ATOM     13  C   UNL     1       1.882   2.262  19.812  0.00  0.00    +0.000 A 
ATOM     14  C   UNL     1       1.398   2.495  21.100  0.00  0.00    +0.000 A 
ATOM     15  C   UNL     1       1.697   3.691  21.753  0.00  0.00    +0.000 A 
ATOM     16  C   UNL     1       2.485   4.657  21.123  0.00  0.00    +0.000 A 
ATOM     17  C   UNL     1       2.971   4.432  19.835  0.00  0.00    +0.000 A 
ENDBRANCH  10  12
ENDBRANCH   7  10
ENDBRANCH   1   7
BRANCH   4  18
ATOM     18  C   UNL     1       7.939   7.342  17.834  0.00  0.00    +0.000 C 
BRANCH  18  19
ATOM     19  C   UNL     1       8.045   8.874  17.830  0.00  0.00    +0.000 C 
BRANCH  19  20
ATOM     20  O   UNL     1       8.783   9.338  18.962  0.00  0.00    +0.000 OA
BRANCH  20  21
ATOM     21  C   UNL     1       9.273  10.616  18.846  0.00  0.00    +0.000 A 
ATOM     22  C   UNL     1      10.293  11.174  19.624  0.00  0.00    +0.000 A 
ATOM     23  C   UNL     1      10.719  12.485  19.402  0.00  0.00    +0.000 A 
ATOM     24  C   UNL     1      10.125  13.241  18.397  0.00  0.00    +0.000 A 
ATOM     25 BR   UNL     1      10.717  15.009  18.083  0.00  0.00    +0.000 Br
ATOM     26  C   UNL     1       9.103  12.701  17.620  0.00  0.00    +0.000 A 
ATOM     27  C   UNL     1       8.678  11.390  17.847  0.00  0.00    +0.000 A 
ENDBRANCH  20  21
ENDBRANCH  19  20
ENDBRANCH  18  19
ENDBRANCH   4  18
TORSDOF 7
ENDMDL
MODEL 5
REMARK VINA RESULT:      -7.4      5.579      7.598
REMARK  Name = 
REMARK  7 active torsions:
REMARK  status: ('A' for Active; 'I' for Inactive)
REMARK    1  A    between atoms: S_2  and  N_4
REMARK    2  A    between atoms: S_2  and  C_21
REMARK    3  A    between atoms: N_4  and  C_5
REMARK    4  A    between atoms: N_8  and  C_9
REMARK    5  A    between atoms: C_9  and  C_10
REMARK    6  A    between atoms: C_10  and  O_11
REMARK    7  A    between atoms: O_11  and  C_12
REMARK                            x       y       z     vdW  Elec       q    Type
REMARK                         _______ _______ _______ _____ _____    ______ ____
ROOT
ATOM      1  C   UNL     1       4.454   5.107  16.548  0.00  0.00    +0.000 C 
ATOM      2  C   UNL     1       5.698   5.178  15.681  0.00  0.00    +0.000 C 
ATOM      3  C   UNL     1       6.919   5.605  16.486  0.00  0.00    +0.000 C 
ATOM      4  N   UNL     1       6.712   6.905  17.140  0.00  0.00    +0.000 NA
ATOM      5  C   UNL     1       5.526   6.895  18.011  0.00  0.00    +0.000 C 
ATOM      6  C   UNL     1       4.268   6.455  17.253  0.00  0.00    +0.000 C 
ENDROOT
BRANCH   1   7
ATOM      7  N   UNL     1       4.506   4.017  17.556  0.00  0.00    +0.000 NA
ATOM      8  H   UNL     1       5.431   3.680  17.810  0.00  0.00    +0.000 HD
BRANCH   7  10
ATOM      9  O   UNL     1       2.343   3.157  16.596  0.00  0.00    +0.000 OA
ATOM     10  S   UNL     1       3.354   2.783  17.556  0.00  0.00    +0.000 S 
ATOM     11  O   UNL     1       4.049   1.513  17.495  0.00  0.00    +0.000 OA
BRANCH  10  12
ATOM     12  C   UNL     1       2.588   2.928  19.161  0.00  0.00    +0.000 A 
ATOM     13  C   UNL     1       3.340   2.629  20.303  0.00  0.00    +0.000 A 
ATOM     14  C   UNL     1       2.758   2.762  21.565  0.00  0.00    +0.000 A 
ATOM     15  C   UNL     1       1.441   3.205  21.684  0.00  0.00    +0.000 A 
ATOM     16  C   UNL     1       0.700   3.522  20.543  0.00  0.00    +0.000 A 
ATOM     17  C   UNL     1       1.273   3.390  19.278  0.00  0.00    +0.000 A 
ENDBRANCH  10  12
ENDBRANCH   7  10
ENDBRANCH   1   7
BRANCH   4  18
ATOM     18  C   UNL     1       7.907   7.332  17.903  0.00  0.00    +0.000 C 
BRANCH  18  19
ATOM     19  C   UNL     1       8.110   8.854  17.874  0.00  0.00    +0.000 C 
BRANCH  19  20
ATOM     20  O   UNL     1       8.950   9.278  18.950  0.00  0.00    +0.000 OA
BRANCH  20  21
ATOM     21  C   UNL     1       9.163  10.633  19.013  0.00  0.00    +0.000 A 
ATOM     22  C   UNL     1       8.974  11.540  17.965  0.00  0.00    +0.000 A 
ATOM     23  C   UNL     1       9.210  12.903  18.154  0.00  0.00    +0.000 A 
ATOM     24  C   UNL     1       9.635  13.362  19.397  0.00  0.00    +0.000 A 
ATOM     25 BR   UNL     1       9.934  15.211  19.658  0.00  0.00    +0.000 Br
ATOM     26  C   UNL     1       9.835  12.470  20.447  0.00  0.00    +0.000 A 
ATOM     27  C   UNL     1       9.600  11.106  20.252  0.00  0.00    +0.000 A 
ENDBRANCH  20  21
ENDBRANCH  19  20
ENDBRANCH  18  19
ENDBRANCH   4  18
TORSDOF 7
ENDMDL
MODEL 6
REMARK VINA RESULT:      -7.3      2.542      3.347
REMARK  Name = 
REMARK  7 active torsions:
REMARK  status: ('A' for Active; 'I' for Inactive)
REMARK    1  A    between atoms: S_2  and  N_4
REMARK    2  A    between atoms: S_2  and  C_21
REMARK    3  A    between atoms: N_4  and  C_5
REMARK    4  A    between atoms: N_8  and  C_9
REMARK    5  A    between atoms: C_9  and  C_10
REMARK    6  A    between atoms: C_10  and  O_11
REMARK    7  A    between atoms: O_11  and  C_12
REMARK                            x       y       z     vdW  Elec       q    Type
REMARK                         _______ _______ _______ _____ _____    ______ ____
ROOT
ATOM      1  C   UNL     1       3.685   3.598  17.235  0.00  0.00    +0.000 C 
ATOM      2  C   UNL     1       2.172   3.542  17.340  0.00  0.00    +0.000 C 
ATOM      3  C   UNL     1       1.643   4.540  18.362  0.00  0.00    +0.000 C 
ATOM      4  N   UNL     1       2.227   4.319  19.692  0.00  0.00    +0.000 NA
ATOM      5  C   UNL     1       3.697   4.379  19.660  0.00  0.00    +0.000 C 
ATOM      6  C   UNL     1       4.283   3.403  18.633  0.00  0.00    +0.000 C 
ENDROOT
BRANCH   1   7
ATOM      7  N   UNL     1       4.183   4.869  16.650  0.00  0.00    +0.000 NA
ATOM      8  H   UNL     1       3.493   5.453  16.184  0.00  0.00    +0.000 HD
BRANCH   7  10
ATOM      9  O   UNL     1       6.208   3.595  15.866  0.00  0.00    +0.000 OA
ATOM     10  S   UNL     1       5.693   4.944  15.902  0.00  0.00    +0.000 S 
ATOM     11  O   UNL     1       5.570   5.757  14.709  0.00  0.00    +0.000 OA
BRANCH  10  12
ATOM     12  C   UNL     1       6.701   5.825  17.081  0.00  0.00    +0.000 A 
ATOM     13  C   UNL     1       7.243   5.128  18.167  0.00  0.00    +0.000 A 
ATOM     14  C   UNL     1       8.052   5.801  19.083  0.00  0.00    +0.000 A 
ATOM     15  C   UNL     1       8.330   7.156  18.906  0.00  0.00    +0.000 A 
ATOM     16  C   UNL     1       7.804   7.845  17.811  0.00  0.00    +0.000 A 
ATOM     17  C   UNL     1       6.992   7.179  16.891  0.00  0.00    +0.000 A 
ENDBRANCH  10  12
ENDBRANCH   7  10
ENDBRANCH   1   7
BRANCH   4  18
ATOM     18  C   UNL     1       1.695   5.275  20.690  0.00  0.00    +0.000 C 
BRANCH  18  19
ATOM     19  C   UNL     1       2.053   6.731  20.359  0.00  0.00    +0.000 C 
BRANCH  19  20
ATOM     20  O   UNL     1       1.106   7.633  20.935  0.00  0.00    +0.000 OA
BRANCH  20  21
ATOM     21  C   UNL     1       1.066   8.876  20.350  0.00  0.00    +0.000 A 
ATOM     22  C   UNL     1       1.431   9.170  19.031  0.00  0.00    +0.000 A 
ATOM     23  C   UNL     1       1.333  10.474  18.542  0.00  0.00    +0.000 A 
ATOM     24  C   UNL     1       0.866  11.488  19.373  0.00  0.00    +0.000 A 
ATOM     25 BR   UNL     1       0.715  13.250  18.703  0.00  0.00    +0.000 Br
ATOM     26  C   UNL     1       0.508  11.211  20.690  0.00  0.00    +0.000 A 
ATOM     27  C   UNL     1       0.609   9.905  21.176  0.00  0.00    +0.000 A 
ENDBRANCH  20  21
ENDBRANCH  19  20
ENDBRANCH  18  19
ENDBRANCH   4  18
TORSDOF 7
ENDMDL
MODEL 7
REMARK VINA RESULT:      -7.3      5.750      7.973
REMARK  Name = 
REMARK  7 active torsions:
REMARK  status: ('A' for Active; 'I' for Inactive)
REMARK    1  A    between atoms: S_2  and  N_4
REMARK    2  A    between atoms: S_2  and  C_21
REMARK    3  A    between atoms: N_4  and  C_5
REMARK    4  A    between atoms: N_8  and  C_9
REMARK    5  A    between atoms: C_9  and  C_10
REMARK    6  A    between atoms: C_10  and  O_11
REMARK    7  A    between atoms: O_11  and  C_12
REMARK                            x       y       z     vdW  Elec       q    Type
REMARK                         _______ _______ _______ _____ _____    ______ ____
ROOT
ATOM      1  C   UNL     1       4.992   5.126  16.332  0.00  0.00    +0.000 C 
ATOM      2  C   UNL     1       6.419   4.619  16.233  0.00  0.00    +0.000 C 
ATOM      3  C   UNL     1       7.315   5.253  17.289  0.00  0.00    +0.000 C 
ATOM      4  N   UNL     1       7.316   6.719  17.194  0.00  0.00    +0.000 NA
ATOM      5  C   UNL     1       5.958   7.275  17.301  0.00  0.00    +0.000 C 
ATOM      6  C   UNL     1       5.008   6.658  16.268  0.00  0.00    +0.000 C 
ENDROOT
BRANCH   1   7
ATOM      7  N   UNL     1       4.300   4.685  17.570  0.00  0.00    +0.000 NA
ATOM      8  H   UNL     1       4.761   3.957  18.111  0.00  0.00    +0.000 HD
BRANCH   7  10
ATOM      9  O   UNL     1       2.092   5.892  17.640  0.00  0.00    +0.000 OA
ATOM     10  S   UNL     1       2.619   4.548  17.620  0.00  0.00    +0.000 S 
ATOM     11  O   UNL     1       2.212   3.571  16.630  0.00  0.00    +0.000 OA
BRANCH  10  12
ATOM     12  C   UNL     1       2.303   3.870  19.240  0.00  0.00    +0.000 A 
ATOM     13  C   UNL     1       2.650   4.620  20.370  0.00  0.00    +0.000 A 
ATOM     14  C   UNL     1       2.386   4.111  21.642  0.00  0.00    +0.000 A 
ATOM     15  C   UNL     1       1.766   2.870  21.784  0.00  0.00    +0.000 A 
ATOM     16  C   UNL     1       1.403   2.133  20.654  0.00  0.00    +0.000 A 
ATOM     17  C   UNL     1       1.665   2.634  19.378  0.00  0.00    +0.000 A 
ENDBRANCH  10  12
ENDBRANCH   7  10
ENDBRANCH   1   7
BRANCH   4  18
ATOM     18  C   UNL     1       8.205   7.335  18.205  0.00  0.00    +0.000 C 
BRANCH  18  19
ATOM     19  C   UNL     1       8.264   8.864  18.083  0.00  0.00    +0.000 C 
BRANCH  19  20
ATOM     20  O   UNL     1       8.833   9.449  19.257  0.00  0.00    +0.000 OA
BRANCH  20  21
ATOM     21  C   UNL     1       9.476  10.645  19.050  0.00  0.00    +0.000 A 
ATOM     22  C   UNL     1       9.947  11.117  17.820  0.00  0.00    +0.000 A 
ATOM     23  C   UNL     1      10.575  12.361  17.730  0.00  0.00    +0.000 A 
ATOM     24  C   UNL     1      10.731  13.138  18.874  0.00  0.00    +0.000 A 
ATOM     25 BR   UNL     1      11.563  14.831  18.747  0.00  0.00    +0.000 Br
ATOM     26  C   UNL     1      10.275  12.677  20.106  0.00  0.00    +0.000 A 
ATOM     27  C   UNL     1       9.649  11.430  20.192  0.00  0.00    +0.000 A 
ENDBRANCH  20  21
ENDBRANCH  19  20
ENDBRANCH  18  19
ENDBRANCH   4  18
TORSDOF 7
ENDMDL
MODEL 8
REMARK VINA RESULT:      -7.3      5.574      7.779
REMARK  Name = 
REMARK  7 active torsions:
REMARK  status: ('A' for Active; 'I' for Inactive)
REMARK    1  A    between atoms: S_2  and  N_4
REMARK    2  A    between atoms: S_2  and  C_21
REMARK    3  A    between atoms: N_4  and  C_5
REMARK    4  A    between atoms: N_8  and  C_9
REMARK    5  A    between atoms: C_9  and  C_10
REMARK    6  A    between atoms: C_10  and  O_11
REMARK    7  A    between atoms: O_11  and  C_12
REMARK                            x       y       z     vdW  Elec       q    Type
REMARK                         _______ _______ _______ _____ _____    ______ ____
ROOT
ATOM      1  C   UNL     1       5.071   4.767  19.101  0.00  0.00    +0.000 C 
ATOM      2  C   UNL     1       4.508   6.085  18.602  0.00  0.00    +0.000 C 
ATOM      3  C   UNL     1       5.425   6.735  17.575  0.00  0.00    +0.000 C 
ATOM      4  N   UNL     1       6.773   6.961  18.114  0.00  0.00    +0.000 NA
ATOM      5  C   UNL     1       7.383   5.713  18.600  0.00  0.00    +0.000 C 
ATOM      6  C   UNL     1       6.491   5.007  19.628  0.00  0.00    +0.000 C 
ENDROOT
BRANCH   1   7
ATOM      7  N   UNL     1       5.096   3.711  18.057  0.00  0.00    +0.000 NA
ATOM      8  H   UNL     1       5.629   3.918  17.217  0.00  0.00    +0.000 HD
BRANCH   7  10
ATOM      9  O   UNL     1       2.986   3.483  16.703  0.00  0.00    +0.000 OA
ATOM     10  S   UNL     1       3.723   2.785  17.730  0.00  0.00    +0.000 S 
ATOM     11  O   UNL     1       4.131   1.402  17.586  0.00  0.00    +0.000 OA
BRANCH  10  12
ATOM     12  C   UNL     1       2.754   2.934  19.220  0.00  0.00    +0.000 A 
ATOM     13  C   UNL     1       3.273   2.437  20.421  0.00  0.00    +0.000 A 
ATOM     14  C   UNL     1       2.534   2.569  21.598  0.00  0.00    +0.000 A 
ATOM     15  C   UNL     1       1.294   3.207  21.577  0.00  0.00    +0.000 A 
ATOM     16  C   UNL     1       0.788   3.720  20.380  0.00  0.00    +0.000 A 
ATOM     17  C   UNL     1       1.519   3.590  19.199  0.00  0.00    +0.000 A 
ENDBRANCH  10  12
ENDBRANCH   7  10
ENDBRANCH   1   7
BRANCH   4  18
ATOM     18  C   UNL     1       7.658   7.614  17.123  0.00  0.00    +0.000 C 
BRANCH  18  19
ATOM     19  C   UNL     1       8.031   9.049  17.525  0.00  0.00    +0.000 C 
BRANCH  19  20
ATOM     20  O   UNL     1       8.663   9.072  18.808  0.00  0.00    +0.000 OA
BRANCH  20  21
ATOM     21  C   UNL     1       9.276  10.259  19.126  0.00  0.00    +0.000 A 
ATOM     22  C   UNL     1       9.587  10.698  20.418  0.00  0.00    +0.000 A 
ATOM     23  C   UNL     1      10.227  11.923  20.616  0.00  0.00    +0.000 A 
ATOM     24  C   UNL     1      10.560  12.712  19.520  0.00  0.00    +0.000 A 
ATOM     25 BR   UNL     1      11.446  14.360  19.789  0.00  0.00    +0.000 Br
ATOM     26  C   UNL     1      10.249  12.291  18.229  0.00  0.00    +0.000 A 
ATOM     27  C   UNL     1       9.606  11.066  18.035  0.00  0.00    +0.000 A 
ENDBRANCH  20  21
ENDBRANCH  19  20
ENDBRANCH  18  19
ENDBRANCH   4  18
TORSDOF 7
ENDMDL
MODEL 9
REMARK VINA RESULT:      -7.3      2.751      3.574
REMARK  Name = 
REMARK  7 active torsions:
REMARK  status: ('A' for Active; 'I' for Inactive)
REMARK    1  A    between atoms: S_2  and  N_4
REMARK    2  A    between atoms: S_2  and  C_21
REMARK    3  A    between atoms: N_4  and  C_5
REMARK    4  A    between atoms: N_8  and  C_9
REMARK    5  A    between atoms: C_9  and  C_10
REMARK    6  A    between atoms: C_10  and  O_11
REMARK    7  A    between atoms: O_11  and  C_12
REMARK                            x       y       z     vdW  Elec       q    Type
REMARK                         _______ _______ _______ _____ _____    ______ ____
ROOT
ATOM      1  C   UNL     1       3.900   2.641  17.493  0.00  0.00    +0.000 C 
ATOM      2  C   UNL     1       2.634   3.274  16.943  0.00  0.00    +0.000 C 
ATOM      3  C   UNL     1       1.953   4.157  17.980  0.00  0.00    +0.000 C 
ATOM      4  N   UNL     1       1.626   3.410  19.202  0.00  0.00    +0.000 NA
ATOM      5  C   UNL     1       2.818   2.784  19.795  0.00  0.00    +0.000 C 
ATOM      6  C   UNL     1       3.554   1.894  18.786  0.00  0.00    +0.000 C 
ENDROOT
BRANCH   1   7
ATOM      7  N   UNL     1       4.979   3.626  17.757  0.00  0.00    +0.000 NA
ATOM      8  H   UNL     1       4.900   4.164  18.616  0.00  0.00    +0.000 HD
BRANCH   7  10
ATOM      9  O   UNL     1       6.564   3.651  15.802  0.00  0.00    +0.000 OA
ATOM     10  S   UNL     1       5.654   4.528  16.500  0.00  0.00    +0.000 S 
ATOM     11  O   UNL     1       4.586   5.235  15.822  0.00  0.00    +0.000 OA
BRANCH  10  12
ATOM     12  C   UNL     1       6.672   5.725  17.344  0.00  0.00    +0.000 A 
ATOM     13  C   UNL     1       7.355   5.339  18.503  0.00  0.00    +0.000 A 
ATOM     14  C   UNL     1       8.174   6.260  19.159  0.00  0.00    +0.000 A 
ATOM     15  C   UNL     1       8.321   7.550  18.651  0.00  0.00    +0.000 A 
ATOM     16  C   UNL     1       7.653   7.926  17.483  0.00  0.00    +0.000 A 
ATOM     17  C   UNL     1       6.832   7.012  16.823  0.00  0.00    +0.000 A 
ENDBRANCH  10  12
ENDBRANCH   7  10
ENDBRANCH   1   7
BRANCH   4  18
ATOM     18  C   UNL     1       0.941   4.263  20.201  0.00  0.00    +0.000 C 
BRANCH  18  19
ATOM     19  C   UNL     1       1.922   5.131  21.002  0.00  0.00    +0.000 C 
BRANCH  19  20
ATOM     20  O   UNL     1       2.646   6.013  20.140  0.00  0.00    +0.000 OA
BRANCH  20  21
ATOM     21  C   UNL     1       2.061   7.241  19.950  0.00  0.00    +0.000 A 
ATOM     22  C   UNL     1       1.296   7.936  20.895  0.00  0.00    +0.000 A 
ATOM     23  C   UNL     1       0.763   9.190  20.591  0.00  0.00    +0.000 A 
ATOM     24  C   UNL     1       0.996   9.754  19.341  0.00  0.00    +0.000 A 
ATOM     25 BR   UNL     1       0.291  11.461  18.939  0.00  0.00    +0.000 Br
ATOM     26  C   UNL     1       1.748   9.070  18.389  0.00  0.00    +0.000 A 
ATOM     27  C   UNL     1       2.278   7.814  18.696  0.00  0.00    +0.000 A 
ENDBRANCH  20  21
ENDBRANCH  19  20
ENDBRANCH  18  19
ENDBRANCH   4  18
TORSDOF 7
ENDMDL
