MODEL 1
REMARK VINA RESULT:      -6.3      0.000      0.000
REMARK  Name = 
REMARK  4 active torsions:
REMARK  status: ('A' for Active; 'I' for Inactive)
REMARK    1  A    between atoms: C_1  and  C_2
REMARK    2  A    between atoms: C_7  and  O_8
REMARK    3  A    between atoms: O_8  and  C_9
REMARK    4  A    between atoms: C_9  and  C_10
REMARK                            x       y       z     vdW  Elec       q    Type
REMARK                         _______ _______ _______ _____ _____    ______ ____
ROOT
ATOM      1  O   UNL     1       4.882   4.529  18.930  0.00  0.00    +0.000 OA
ENDROOT
BRANCH   1   8
ATOM      2  C   UNL     1       7.620   5.449  18.783  0.00  0.00    +0.000 C 
ATOM      3  C   UNL     1       6.844   4.962  17.595  0.00  0.00    +0.000 A 
ATOM      4  N   UNL     1       7.547   4.957  16.422  0.00  0.00    +0.000 NA
ATOM      5  C   UNL     1       6.909   4.527  15.313  0.00  0.00    +0.000 A 
ATOM      6  C   UNL     1       5.600   4.095  15.306  0.00  0.00    +0.000 A 
ATOM      7  C   UNL     1       4.906   4.092  16.509  0.00  0.00    +0.000 A 
ATOM      8  C   UNL     1       5.515   4.523  17.698  0.00  0.00    +0.000 A 
ENDBRANCH   1   8
BRANCH   1   9
ATOM      9  C   UNL     1       4.542   3.213  19.396  0.00  0.00    +0.000 C 
BRANCH   9  10
ATOM     10  C   UNL     1       3.057   2.941  19.662  0.00  0.00    +0.000 C 
ATOM     11  C   UNL     1       2.129   4.133  19.501  0.00  0.00    +0.000 C 
ATOM     12  C   UNL     1       0.939   3.742  20.365  0.00  0.00    +0.000 C 
ATOM     13  C   UNL     1       1.536   2.920  21.496  0.00  0.00    +0.000 C 
ATOM     14  N   UNL     1       2.904   2.613  21.095  0.00  0.00    +0.000 NA
ATOM     15  H   UNL     1       3.139   1.640  21.283  0.00  0.00    +0.000 HD
ENDBRANCH   9  10
ENDBRANCH   1   9
TORSDOF 3
ENDMDL
MODEL 2
REMARK VINA RESULT:      -6.1      0.966      1.091
REMARK  Name = 
REMARK  4 active torsions:
REMARK  status: ('A' for Active; 'I' for Inactive)
REMARK    1  A    between atoms: C_1  and  C_2
REMARK    2  A    between atoms: C_7  and  O_8
REMARK    3  A    between atoms: O_8  and  C_9
REMARK    4  A    between atoms: C_9  and  C_10
REMARK                            x       y       z     vdW  Elec       q    Type
REMARK                         _______ _______ _______ _____ _____    ______ ____
ROOT
ATOM      1  O   UNL     1       5.474   4.114  19.260  0.00  0.00    +0.000 OA
ENDROOT
BRANCH   1   8
ATOM      2  C   UNL     1       7.814   5.765  18.846  0.00  0.00    +0.000 C 
ATOM      3  C   UNL     1       6.979   5.214  17.728  0.00  0.00    +0.000 A 
ATOM      4  N   UNL     1       7.428   5.532  16.477  0.00  0.00    +0.000 NA
ATOM      5  C   UNL     1       6.724   5.065  15.423  0.00  0.00    +0.000 A 
ATOM      6  C   UNL     1       5.590   4.293  15.546  0.00  0.00    +0.000 A 
ATOM      7  C   UNL     1       5.156   3.967  16.825  0.00  0.00    +0.000 A 
ATOM      8  C   UNL     1       5.847   4.416  17.961  0.00  0.00    +0.000 A 
ENDBRANCH   1   8
BRANCH   1   9
ATOM      9  C   UNL     1       4.430   3.129  19.332  0.00  0.00    +0.000 C 
BRANCH   9  10
ATOM     10  C   UNL     1       3.215   3.479  20.198  0.00  0.00    +0.000 C 
ATOM     11  C   UNL     1       1.860   3.139  19.602  0.00  0.00    +0.000 C 
ATOM     12  C   UNL     1       0.928   4.091  20.339  0.00  0.00    +0.000 C 
ATOM     13  C   UNL     1       1.769   5.330  20.599  0.00  0.00    +0.000 C 
ATOM     14  N   UNL     1       3.149   4.951  20.315  0.00  0.00    +0.000 NA
ATOM     15  H   UNL     1       3.786   5.299  21.028  0.00  0.00    +0.000 HD
ENDBRANCH   9  10
ENDBRANCH   1   9
TORSDOF 3
ENDMDL
MODEL 3
REMARK VINA RESULT:      -6.1      1.507      1.674
REMARK  Name = 
REMARK  4 active torsions:
REMARK  status: ('A' for Active; 'I' for Inactive)
REMARK    1  A    between atoms: C_1  and  C_2
REMARK    2  A    between atoms: C_7  and  O_8
REMARK    3  A    between atoms: O_8  and  C_9
REMARK    4  A    between atoms: C_9  and  C_10
REMARK                            x       y       z     vdW  Elec       q    Type
REMARK                         _______ _______ _______ _____ _____    ______ ____
ROOT
ATOM      1  O   UNL     1       5.002   5.267  18.241  0.00  0.00    +0.000 OA
ENDROOT
BRANCH   1   8
ATOM      2  C   UNL     1       7.427   6.755  17.717  0.00  0.00    +0.000 C 
ATOM      3  C   UNL     1       6.801   5.815  16.729  0.00  0.00    +0.000 A 
ATOM      4  N   UNL     1       7.487   5.689  15.554  0.00  0.00    +0.000 NA
ATOM      5  C   UNL     1       6.981   4.855  14.620  0.00  0.00    +0.000 A 
ATOM      6  C   UNL     1       5.821   4.132  14.794  0.00  0.00    +0.000 A 
ATOM      7  C   UNL     1       5.144   4.261  16.000  0.00  0.00    +0.000 A 
ATOM      8  C   UNL     1       5.622   5.107  17.013  0.00  0.00    +0.000 A 
ENDBRANCH   1   8
BRANCH   1   9
ATOM      9  C   UNL     1       4.989   4.063  19.026  0.00  0.00    +0.000 C 
BRANCH   9  10
ATOM     10  C   UNL     1       3.615   3.454  19.324  0.00  0.00    +0.000 C 
ATOM     11  C   UNL     1       3.233   2.245  18.486  0.00  0.00    +0.000 C 
ATOM     12  C   UNL     1       1.713   2.258  18.561  0.00  0.00    +0.000 C 
ATOM     13  C   UNL     1       1.344   3.731  18.655  0.00  0.00    +0.000 C 
ATOM     14  N   UNL     1       2.585   4.442  18.939  0.00  0.00    +0.000 NA
ATOM     15  H   UNL     1       2.455   5.146  19.663  0.00  0.00    +0.000 HD
ENDBRANCH   9  10
ENDBRANCH   1   9
TORSDOF 3
ENDMDL
MODEL 4
REMARK VINA RESULT:      -6.1      1.313      1.434
REMARK  Name = 
REMARK  4 active torsions:
REMARK  status: ('A' for Active; 'I' for Inactive)
REMARK    1  A    between atoms: C_1  and  C_2
REMARK    2  A    between atoms: C_7  and  O_8
REMARK    3  A    between atoms: O_8  and  C_9
REMARK    4  A    between atoms: C_9  and  C_10
REMARK                            x       y       z     vdW  Elec       q    Type
REMARK                         _______ _______ _______ _____ _____    ______ ____
ROOT
ATOM      1  O   UNL     1       5.410   5.266  18.650  0.00  0.00    +0.000 OA
ENDROOT
BRANCH   1   8
ATOM      2  C   UNL     1       7.504   7.020  17.697  0.00  0.00    +0.000 C 
ATOM      3  C   UNL     1       6.907   5.918  16.873  0.00  0.00    +0.000 A 
ATOM      4  N   UNL     1       7.452   5.783  15.627  0.00  0.00    +0.000 NA
ATOM      5  C   UNL     1       6.963   4.806  14.833  0.00  0.00    +0.000 A 
ATOM      6  C   UNL     1       5.953   3.949  15.213  0.00  0.00    +0.000 A 
ATOM      7  C   UNL     1       5.420   4.092  16.487  0.00  0.00    +0.000 A 
ATOM      8  C   UNL     1       5.890   5.083  17.363  0.00  0.00    +0.000 A 
ENDBRANCH   1   8
BRANCH   1   9
ATOM      9  C   UNL     1       3.995   5.508  18.695  0.00  0.00    +0.000 C 
BRANCH   9  10
ATOM     10  C   UNL     1       3.125   4.386  19.274  0.00  0.00    +0.000 C 
ATOM     11  C   UNL     1       2.070   3.819  18.339  0.00  0.00    +0.000 C 
ATOM     12  C   UNL     1       1.053   3.233  19.308  0.00  0.00    +0.000 C 
ATOM     13  C   UNL     1       1.113   4.140  20.527  0.00  0.00    +0.000 C 
ATOM     14  N   UNL     1       2.306   4.961  20.362  0.00  0.00    +0.000 NA
ATOM     15  H   UNL     1       2.834   5.031  21.230  0.00  0.00    +0.000 HD
ENDBRANCH   9  10
ENDBRANCH   1   9
TORSDOF 3
ENDMDL
MODEL 5
REMARK VINA RESULT:      -6.1      1.410      5.785
REMARK  Name = 
REMARK  4 active torsions:
REMARK  status: ('A' for Active; 'I' for Inactive)
REMARK    1  A    between atoms: C_1  and  C_2
REMARK    2  A    between atoms: C_7  and  O_8
REMARK    3  A    between atoms: O_8  and  C_9
REMARK    4  A    between atoms: C_9  and  C_10
REMARK                            x       y       z     vdW  Elec       q    Type
REMARK                         _______ _______ _______ _____ _____    ______ ____
ROOT
ATOM      1  O   UNL     1       4.172   3.097  18.317  0.00  0.00    +0.000 OA
ENDROOT
BRANCH   1   8
ATOM      2  C   UNL     1       1.608   4.293  17.711  0.00  0.00    +0.000 C 
ATOM      3  C   UNL     1       1.954   3.704  19.047  0.00  0.00    +0.000 A 
ATOM      4  N   UNL     1       0.942   3.749  19.964  0.00  0.00    +0.000 NA
ATOM      5  C   UNL     1       1.185   3.232  21.189  0.00  0.00    +0.000 A 
ATOM      6  C   UNL     1       2.388   2.668  21.552  0.00  0.00    +0.000 A 
ATOM      7  C   UNL     1       3.400   2.617  20.603  0.00  0.00    +0.000 A 
ATOM      8  C   UNL     1       3.209   3.132  19.311  0.00  0.00    +0.000 A 
ENDBRANCH   1   8
BRANCH   1   9
ATOM      9  C   UNL     1       5.221   4.060  18.514  0.00  0.00    +0.000 C 
BRANCH   9  10
ATOM     10  C   UNL     1       5.853   4.655  17.251  0.00  0.00    +0.000 C 
ATOM     11  C   UNL     1       4.962   5.580  16.439  0.00  0.00    +0.000 C 
ATOM     12  C   UNL     1       5.587   5.507  15.054  0.00  0.00    +0.000 C 
ATOM     13  C   UNL     1       6.140   4.094  14.952  0.00  0.00    +0.000 C 
ATOM     14  N   UNL     1       6.105   3.548  16.304  0.00  0.00    +0.000 NA
ATOM     15  H   UNL     1       6.965   3.052  16.529  0.00  0.00    +0.000 HD
ENDBRANCH   9  10
ENDBRANCH   1   9
TORSDOF 3
ENDMDL
MODEL 6
REMARK VINA RESULT:      -6.1      1.154      1.357
REMARK  Name = 
REMARK  4 active torsions:
REMARK  status: ('A' for Active; 'I' for Inactive)
REMARK    1  A    between atoms: C_1  and  C_2
REMARK    2  A    between atoms: C_7  and  O_8
REMARK    3  A    between atoms: O_8  and  C_9
REMARK    4  A    between atoms: C_9  and  C_10
REMARK                            x       y       z     vdW  Elec       q    Type
REMARK                         _______ _______ _______ _____ _____    ______ ____
ROOT
ATOM      1  O   UNL     1       4.992   5.338  18.480  0.00  0.00    +0.000 OA
ENDROOT
BRANCH   1   8
ATOM      2  C   UNL     1       7.466   6.718  17.892  0.00  0.00    +0.000 C 
ATOM      3  C   UNL     1       6.783   5.792  16.929  0.00  0.00    +0.000 A 
ATOM      4  N   UNL     1       7.440   5.623  15.742  0.00  0.00    +0.000 NA
ATOM      5  C   UNL     1       6.882   4.800  14.829  0.00  0.00    +0.000 A 
ATOM      6  C   UNL     1       5.697   4.128  15.034  0.00  0.00    +0.000 A 
ATOM      7  C   UNL     1       5.049   4.299  16.251  0.00  0.00    +0.000 A 
ATOM      8  C   UNL     1       5.581   5.138  17.243  0.00  0.00    +0.000 A 
ENDBRANCH   1   8
BRANCH   1   9
ATOM      9  C   UNL     1       4.568   4.116  19.107  0.00  0.00    +0.000 C 
BRANCH   9  10
ATOM     10  C   UNL     1       3.251   4.168  19.890  0.00  0.00    +0.000 C 
ATOM     11  C   UNL     1       2.955   2.960  20.763  0.00  0.00    +0.000 C 
ATOM     12  C   UNL     1       1.440   3.016  20.899  0.00  0.00    +0.000 C 
ATOM     13  C   UNL     1       0.956   3.606  19.583  0.00  0.00    +0.000 C 
ATOM     14  N   UNL     1       2.140   4.134  18.916  0.00  0.00    +0.000 NA
ATOM     15  H   UNL     1       1.965   5.054  18.516  0.00  0.00    +0.000 HD
ENDBRANCH   9  10
ENDBRANCH   1   9
TORSDOF 3
ENDMDL
MODEL 7
REMARK VINA RESULT:      -6.1      1.494      1.707
REMARK  Name = 
REMARK  4 active torsions:
REMARK  status: ('A' for Active; 'I' for Inactive)
REMARK    1  A    between atoms: C_1  and  C_2
REMARK    2  A    between atoms: C_7  and  O_8
REMARK    3  A    between atoms: O_8  and  C_9
REMARK    4  A    between atoms: C_9  and  C_10
REMARK                            x       y       z     vdW  Elec       q    Type
REMARK                         _______ _______ _______ _____ _____    ______ ____
ROOT
ATOM      1  O   UNL     1       4.556   4.267  17.862  0.00  0.00    +0.000 OA
ENDROOT
BRANCH   1   8
ATOM      2  C   UNL     1       7.309   5.059  18.268  0.00  0.00    +0.000 C 
ATOM      3  C   UNL     1       6.712   4.795  16.918  0.00  0.00    +0.000 A 
ATOM      4  N   UNL     1       7.587   4.931  15.876  0.00  0.00    +0.000 NA
ATOM      5  C   UNL     1       7.116   4.704  14.630  0.00  0.00    +0.000 A 
ATOM      6  C   UNL     1       5.814   4.345  14.362  0.00  0.00    +0.000 A 
ATOM      7  C   UNL     1       4.942   4.197  15.434  0.00  0.00    +0.000 A 
ATOM      8  C   UNL     1       5.371   4.413  16.753  0.00  0.00    +0.000 A 
ENDBRANCH   1   8
BRANCH   1   9
ATOM      9  C   UNL     1       3.450   5.183  17.874  0.00  0.00    +0.000 C 
BRANCH   9  10
ATOM     10  C   UNL     1       2.113   4.639  18.390  0.00  0.00    +0.000 C 
ATOM     11  C   UNL     1       2.061   4.316  19.874  0.00  0.00    +0.000 C 
ATOM     12  C   UNL     1       0.931   3.300  19.951  0.00  0.00    +0.000 C 
ATOM     13  C   UNL     1       1.000   2.546  18.632  0.00  0.00    +0.000 C 
ATOM     14  N   UNL     1       1.891   3.315  17.771  0.00  0.00    +0.000 NA
ATOM     15  H   UNL     1       1.518   3.401  16.828  0.00  0.00    +0.000 HD
ENDBRANCH   9  10
ENDBRANCH   1   9
TORSDOF 3
ENDMDL
MODEL 8
REMARK VINA RESULT:      -6.1      1.507      2.591
REMARK  Name = 
REMARK  4 active torsions:
REMARK  status: ('A' for Active; 'I' for Inactive)
REMARK    1  A    between atoms: C_1  and  C_2
REMARK    2  A    between atoms: C_7  and  O_8
REMARK    3  A    between atoms: O_8  and  C_9
REMARK    4  A    between atoms: C_9  and  C_10
REMARK                            x       y       z     vdW  Elec       q    Type
REMARK                         _______ _______ _______ _____ _____    ______ ____
ROOT
ATOM      1  O   UNL     1       3.989   4.147  17.370  0.00  0.00    +0.000 OA
ENDROOT
BRANCH   1   8
ATOM      2  C   UNL     1       6.135   3.907  15.444  0.00  0.00    +0.000 C 
ATOM      3  C   UNL     1       6.320   4.453  16.829  0.00  0.00    +0.000 A 
ATOM      4  N   UNL     1       7.594   4.862  17.110  0.00  0.00    +0.000 NA
ATOM      5  C   UNL     1       7.831   5.368  18.340  0.00  0.00    +0.000 A 
ATOM      6  C   UNL     1       6.863   5.491  19.312  0.00  0.00    +0.000 A 
ATOM      7  C   UNL     1       5.571   5.084  19.004  0.00  0.00    +0.000 A 
ATOM      8  C   UNL     1       5.259   4.556  17.742  0.00  0.00    +0.000 A 
ENDBRANCH   1   8
BRANCH   1   9
ATOM      9  C   UNL     1       2.964   5.084  17.741  0.00  0.00    +0.000 C 
BRANCH   9  10
ATOM     10  C   UNL     1       1.746   4.512  18.474  0.00  0.00    +0.000 C 
ATOM     11  C   UNL     1       1.950   4.195  19.946  0.00  0.00    +0.000 C 
ATOM     12  C   UNL     1       0.872   3.153  20.211  0.00  0.00    +0.000 C 
ATOM     13  C   UNL     1       0.736   2.396  18.900  0.00  0.00    +0.000 C 
ATOM     14  N   UNL     1       1.453   3.181  17.902  0.00  0.00    +0.000 NA
ATOM     15  H   UNL     1       0.926   3.255  17.034  0.00  0.00    +0.000 HD
ENDBRANCH   9  10
ENDBRANCH   1   9
TORSDOF 3
ENDMDL
MODEL 9
REMARK VINA RESULT:      -6.0      1.700      1.965
REMARK  Name = 
REMARK  4 active torsions:
REMARK  status: ('A' for Active; 'I' for Inactive)
REMARK    1  A    between atoms: C_1  and  C_2
REMARK    2  A    between atoms: C_7  and  O_8
REMARK    3  A    between atoms: O_8  and  C_9
REMARK    4  A    between atoms: C_9  and  C_10
REMARK                            x       y       z     vdW  Elec       q    Type
REMARK                         _______ _______ _______ _____ _____    ______ ____
ROOT
ATOM      1  O   UNL     1       4.839   5.603  18.153  0.00  0.00    +0.000 OA
ENDROOT
BRANCH   1   8
ATOM      2  C   UNL     1       7.385   6.894  17.678  0.00  0.00    +0.000 C 
ATOM      3  C   UNL     1       6.765   5.909  16.732  0.00  0.00    +0.000 A 
ATOM      4  N   UNL     1       7.516   5.640  15.622  0.00  0.00    +0.000 NA
ATOM      5  C   UNL     1       7.019   4.758  14.728  0.00  0.00    +0.000 A 
ATOM      6  C   UNL     1       5.805   4.123  14.879  0.00  0.00    +0.000 A 
ATOM      7  C   UNL     1       5.061   4.398  16.020  0.00  0.00    +0.000 A 
ATOM      8  C   UNL     1       5.526   5.300  16.989  0.00  0.00    +0.000 A 
ENDBRANCH   1   8
BRANCH   1   9
ATOM      9  C   UNL     1       3.574   6.240  17.911  0.00  0.00    +0.000 C 
BRANCH   9  10
ATOM     10  C   UNL     1       2.360   5.652  18.639  0.00  0.00    +0.000 C 
ATOM     11  C   UNL     1       2.600   5.215  20.075  0.00  0.00    +0.000 C 
ATOM     12  C   UNL     1       1.495   4.192  20.296  0.00  0.00    +0.000 C 
ATOM     13  C   UNL     1       1.293   3.543  18.936  0.00  0.00    +0.000 C 
ATOM     14  N   UNL     1       2.004   4.379  17.977  0.00  0.00    +0.000 NA
ATOM     15  H   UNL     1       1.452   4.537  17.137  0.00  0.00    +0.000 HD
ENDBRANCH   9  10
ENDBRANCH   1   9
TORSDOF 3
ENDMDL
