MODEL 1
REMARK VINA RESULT:      -6.8      0.000      0.000
REMARK  Name = 
REMARK  8 active torsions:
REMARK  status: ('A' for Active; 'I' for Inactive)
REMARK    1  A    between atoms: C_1  and  C_2
REMARK    2  A    between atoms: C_2  and  C_3
REMARK    3  A    between atoms: C_3  and  C_5
REMARK    4  A    between atoms: C_5  and  C_6
REMARK    5  A    between atoms: C_6  and  N_7
REMARK    6  A    between atoms: C_6  and  C_12
REMARK    7  A    between atoms: C_8  and  O_10
REMARK    8  A    between atoms: O_10  and  C_11
REMARK                            x       y       z     vdW  Elec       q    Type
REMARK                         _______ _______ _______ _____ _____    ______ ____
ROOT
ATOM      1  C   UNL     1       5.578   4.926  16.781  0.00  0.00    +0.000 C 
ENDROOT
BRANCH   1   2
ATOM      2  C   UNL     1       4.246   4.711  17.487  0.00  0.00    +0.000 A 
ATOM      3  C   UNL     1       3.406   3.657  17.091  0.00  0.00    +0.000 A 
ATOM      4  C   UNL     1       2.147   3.492  17.672  0.00  0.00    +0.000 A 
ATOM      5  C   UNL     1       1.713   4.369  18.664  0.00  0.00    +0.000 A 
ATOM      6  C   UNL     1       2.548   5.398  19.093  0.00  0.00    +0.000 A 
ATOM      7  C   UNL     1       3.809   5.563  18.516  0.00  0.00    +0.000 A 
ENDBRANCH   1   2
BRANCH   1   8
ATOM      8  N   UNL     1       6.345   5.966  17.436  0.00  0.00    +0.000 N 
ATOM      9  C   UNL     1       7.481   5.700  18.141  0.00  0.00    +0.000 C 
ATOM     10  O   UNL     1       7.973   4.592  18.293  0.00  0.00    +0.000 OA
ATOM     11  H   UNL     1       6.075   6.936  17.369  0.00  0.00    +0.000 HD
BRANCH   9  12
ATOM     12  O   UNL     1       7.997   6.860  18.617  0.00  0.00    +0.000 OA
ATOM     13  C   UNL     1       7.851   7.963  17.721  0.00  0.00    +0.000 C 
ENDBRANCH   9  12
ENDBRANCH   1   8
BRANCH   1  14
ATOM     14  C   UNL     1       5.342   5.217  15.294  0.00  0.00    +0.000 C 
BRANCH  14  15
ATOM     15  C   UNL     1       6.502   4.760  14.440  0.00  0.00    +0.000 C 
ATOM     16  O   UNL     1       7.628   5.230  14.617  0.00  0.00    +0.000 OA
BRANCH  15  18
ATOM     17  C   UNL     1       6.978   3.965  12.088  0.00  0.00    +0.000 C 
ATOM     18  C   UNL     1       6.204   3.724  13.371  0.00  0.00    +0.000 C 
ENDBRANCH  15  18
ENDBRANCH  14  15
ENDBRANCH   1  14
TORSDOF 6
ENDMDL
MODEL 2
REMARK VINA RESULT:      -6.8      1.308      3.855
REMARK  Name = 
REMARK  8 active torsions:
REMARK  status: ('A' for Active; 'I' for Inactive)
REMARK    1  A    between atoms: C_1  and  C_2
REMARK    2  A    between atoms: C_2  and  C_3
REMARK    3  A    between atoms: C_3  and  C_5
REMARK    4  A    between atoms: C_5  and  C_6
REMARK    5  A    between atoms: C_6  and  N_7
REMARK    6  A    between atoms: C_6  and  C_12
REMARK    7  A    between atoms: C_8  and  O_10
REMARK    8  A    between atoms: O_10  and  C_11
REMARK                            x       y       z     vdW  Elec       q    Type
REMARK                         _______ _______ _______ _____ _____    ______ ____
ROOT
ATOM      1  C   UNL     1       4.934   5.129  17.582  0.00  0.00    +0.000 C 
ENDROOT
BRANCH   1   2
ATOM      2  C   UNL     1       3.775   4.171  17.823  0.00  0.00    +0.000 A 
ATOM      3  C   UNL     1       2.453   4.643  17.770  0.00  0.00    +0.000 A 
ATOM      4  C   UNL     1       1.381   3.798  18.065  0.00  0.00    +0.000 A 
ATOM      5  C   UNL     1       1.613   2.468  18.408  0.00  0.00    +0.000 A 
ATOM      6  C   UNL     1       2.915   1.975  18.432  0.00  0.00    +0.000 A 
ATOM      7  C   UNL     1       3.989   2.817  18.133  0.00  0.00    +0.000 A 
ENDBRANCH   1   2
BRANCH   1   8
ATOM      8  N   UNL     1       5.706   4.722  16.426  0.00  0.00    +0.000 N 
ATOM      9  C   UNL     1       5.784   5.482  15.298  0.00  0.00    +0.000 C 
ATOM     10  O   UNL     1       5.237   6.563  15.136  0.00  0.00    +0.000 OA
ATOM     11  H   UNL     1       6.238   3.865  16.428  0.00  0.00    +0.000 HD
BRANCH   9  12
ATOM     12  O   UNL     1       6.590   4.870  14.396  0.00  0.00    +0.000 OA
ATOM     13  C   UNL     1       5.936   3.844  13.646  0.00  0.00    +0.000 C 
ENDBRANCH   9  12
ENDBRANCH   1   8
BRANCH   1  14
ATOM     14  C   UNL     1       5.790   5.245  18.850  0.00  0.00    +0.000 C 
BRANCH  14  15
ATOM     15  C   UNL     1       7.264   5.328  18.527  0.00  0.00    +0.000 C 
ATOM     16  O   UNL     1       7.875   4.328  18.145  0.00  0.00    +0.000 OA
BRANCH  15  18
ATOM     17  C   UNL     1       7.659   7.629  17.555  0.00  0.00    +0.000 C 
ATOM     18  C   UNL     1       7.932   6.680  18.708  0.00  0.00    +0.000 C 
ENDBRANCH  15  18
ENDBRANCH  14  15
ENDBRANCH   1  14
TORSDOF 6
ENDMDL
MODEL 3
REMARK VINA RESULT:      -6.7      0.141      1.178
REMARK  Name = 
REMARK  8 active torsions:
REMARK  status: ('A' for Active; 'I' for Inactive)
REMARK    1  A    between atoms: C_1  and  C_2
REMARK    2  A    between atoms: C_2  and  C_3
REMARK    3  A    between atoms: C_3  and  C_5
REMARK    4  A    between atoms: C_5  and  C_6
REMARK    5  A    between atoms: C_6  and  N_7
REMARK    6  A    between atoms: C_6  and  C_12
REMARK    7  A    between atoms: C_8  and  O_10
REMARK    8  A    between atoms: O_10  and  C_11
REMARK                            x       y       z     vdW  Elec       q    Type
REMARK                         _______ _______ _______ _____ _____    ______ ____
ROOT
ATOM      1  C   UNL     1       5.546   5.015  16.804  0.00  0.00    +0.000 C 
ENDROOT
BRANCH   1   2
ATOM      2  C   UNL     1       4.196   4.859  17.491  0.00  0.00    +0.000 A 
ATOM      3  C   UNL     1       3.814   5.760  18.497  0.00  0.00    +0.000 A 
ATOM      4  C   UNL     1       2.616   5.588  19.193  0.00  0.00    +0.000 A 
ATOM      5  C   UNL     1       1.777   4.518  18.887  0.00  0.00    +0.000 A 
ATOM      6  C   UNL     1       2.124   3.635  17.868  0.00  0.00    +0.000 A 
ATOM      7  C   UNL     1       3.320   3.808  17.168  0.00  0.00    +0.000 A 
ENDBRANCH   1   2
BRANCH   1   8
ATOM      8  N   UNL     1       6.343   6.033  17.459  0.00  0.00    +0.000 N 
ATOM      9  C   UNL     1       7.468   5.735  18.166  0.00  0.00    +0.000 C 
ATOM     10  O   UNL     1       7.928   4.613  18.320  0.00  0.00    +0.000 OA
ATOM     11  H   UNL     1       6.101   7.010  17.391  0.00  0.00    +0.000 HD
BRANCH   9  12
ATOM     12  O   UNL     1       8.017   6.879  18.643  0.00  0.00    +0.000 OA
ATOM     13  C   UNL     1       7.897   7.988  17.749  0.00  0.00    +0.000 C 
ENDBRANCH   9  12
ENDBRANCH   1   8
BRANCH   1  14
ATOM     14  C   UNL     1       5.344   5.298  15.310  0.00  0.00    +0.000 C 
BRANCH  14  15
ATOM     15  C   UNL     1       6.514   4.816  14.484  0.00  0.00    +0.000 C 
ATOM     16  O   UNL     1       7.640   5.285  14.664  0.00  0.00    +0.000 OA
BRANCH  15  18
ATOM     17  C   UNL     1       6.966   4.001  12.133  0.00  0.00    +0.000 C 
ATOM     18  C   UNL     1       6.225   3.755  13.436  0.00  0.00    +0.000 C 
ENDBRANCH  15  18
ENDBRANCH  14  15
ENDBRANCH   1  14
TORSDOF 6
ENDMDL
MODEL 4
REMARK VINA RESULT:      -6.7      1.382      3.707
REMARK  Name = 
REMARK  8 active torsions:
REMARK  status: ('A' for Active; 'I' for Inactive)
REMARK    1  A    between atoms: C_1  and  C_2
REMARK    2  A    between atoms: C_2  and  C_3
REMARK    3  A    between atoms: C_3  and  C_5
REMARK    4  A    between atoms: C_5  and  C_6
REMARK    5  A    between atoms: C_6  and  N_7
REMARK    6  A    between atoms: C_6  and  C_12
REMARK    7  A    between atoms: C_8  and  O_10
REMARK    8  A    between atoms: O_10  and  C_11
REMARK                            x       y       z     vdW  Elec       q    Type
REMARK                         _______ _______ _______ _____ _____    ______ ____
ROOT
ATOM      1  C   UNL     1       4.983   5.185  17.740  0.00  0.00    +0.000 C 
ENDROOT
BRANCH   1   2
ATOM      2  C   UNL     1       3.765   4.306  17.993  0.00  0.00    +0.000 A 
ATOM      3  C   UNL     1       3.936   2.955  18.337  0.00  0.00    +0.000 A 
ATOM      4  C   UNL     1       2.833   2.114  18.496  0.00  0.00    +0.000 A 
ATOM      5  C   UNL     1       1.543   2.611  18.322  0.00  0.00    +0.000 A 
ATOM      6  C   UNL     1       1.355   3.956  18.014  0.00  0.00    +0.000 A 
ATOM      7  C   UNL     1       2.456   4.801  17.860  0.00  0.00    +0.000 A 
ENDBRANCH   1   2
BRANCH   1   8
ATOM      8  N   UNL     1       5.550   4.916  16.434  0.00  0.00    +0.000 N 
ATOM      9  C   UNL     1       5.526   5.833  15.427  0.00  0.00    +0.000 C 
ATOM     10  O   UNL     1       5.047   6.954  15.504  0.00  0.00    +0.000 OA
ATOM     11  H   UNL     1       6.010   4.041  16.235  0.00  0.00    +0.000 HD
BRANCH   9  12
ATOM     12  O   UNL     1       6.148   5.320  14.336  0.00  0.00    +0.000 OA
ATOM     13  C   UNL     1       6.432   3.923  14.443  0.00  0.00    +0.000 C 
ENDBRANCH   9  12
ENDBRANCH   1   8
BRANCH   1  14
ATOM     14  C   UNL     1       6.002   5.007  18.873  0.00  0.00    +0.000 C 
BRANCH  14  15
ATOM     15  C   UNL     1       7.416   5.255  18.400  0.00  0.00    +0.000 C 
ATOM     16  O   UNL     1       8.033   4.377  17.794  0.00  0.00    +0.000 OA
BRANCH  15  18
ATOM     17  C   UNL     1       7.716   7.654  17.660  0.00  0.00    +0.000 C 
ATOM     18  C   UNL     1       8.019   6.611  18.721  0.00  0.00    +0.000 C 
ENDBRANCH  15  18
ENDBRANCH  14  15
ENDBRANCH   1  14
TORSDOF 6
ENDMDL
MODEL 5
REMARK VINA RESULT:      -6.6      1.526      3.996
REMARK  Name = 
REMARK  8 active torsions:
REMARK  status: ('A' for Active; 'I' for Inactive)
REMARK    1  A    between atoms: C_1  and  C_2
REMARK    2  A    between atoms: C_2  and  C_3
REMARK    3  A    between atoms: C_3  and  C_5
REMARK    4  A    between atoms: C_5  and  C_6
REMARK    5  A    between atoms: C_6  and  N_7
REMARK    6  A    between atoms: C_6  and  C_12
REMARK    7  A    between atoms: C_8  and  O_10
REMARK    8  A    between atoms: O_10  and  C_11
REMARK                            x       y       z     vdW  Elec       q    Type
REMARK                         _______ _______ _______ _____ _____    ______ ____
ROOT
ATOM      1  C   UNL     1       4.104   5.221  17.303  0.00  0.00    +0.000 C 
ENDROOT
BRANCH   1   2
ATOM      2  C   UNL     1       2.995   4.442  17.998  0.00  0.00    +0.000 A 
ATOM      3  C   UNL     1       2.334   5.002  19.103  0.00  0.00    +0.000 A 
ATOM      4  C   UNL     1       1.370   4.273  19.802  0.00  0.00    +0.000 A 
ATOM      5  C   UNL     1       1.044   2.978  19.402  0.00  0.00    +0.000 A 
ATOM      6  C   UNL     1       1.666   2.422  18.286  0.00  0.00    +0.000 A 
ATOM      7  C   UNL     1       2.627   3.150  17.583  0.00  0.00    +0.000 A 
ENDBRANCH   1   2
BRANCH   1   8
ATOM      8  N   UNL     1       4.899   4.346  16.464  0.00  0.00    +0.000 N 
ATOM      9  C   UNL     1       5.567   4.798  15.366  0.00  0.00    +0.000 C 
ATOM     10  O   UNL     1       5.581   5.956  14.976  0.00  0.00    +0.000 OA
ATOM     11  H   UNL     1       5.005   3.367  16.683  0.00  0.00    +0.000 HD
BRANCH   9  12
ATOM     12  O   UNL     1       6.242   3.771  14.794  0.00  0.00    +0.000 OA
ATOM     13  C   UNL     1       6.166   3.759  13.367  0.00  0.00    +0.000 C 
ENDBRANCH   9  12
ENDBRANCH   1   8
BRANCH   1  14
ATOM     14  C   UNL     1       4.951   5.968  18.341  0.00  0.00    +0.000 C 
BRANCH  14  15
ATOM     15  C   UNL     1       6.139   5.150  18.791  0.00  0.00    +0.000 C 
ATOM     16  O   UNL     1       5.972   4.062  19.346  0.00  0.00    +0.000 OA
BRANCH  15  18
ATOM     17  C   UNL     1       7.462   7.033  17.744  0.00  0.00    +0.000 C 
ATOM     18  C   UNL     1       7.515   5.740  18.538  0.00  0.00    +0.000 C 
ENDBRANCH  15  18
ENDBRANCH  14  15
ENDBRANCH   1  14
TORSDOF 6
ENDMDL
MODEL 6
REMARK VINA RESULT:      -6.6      1.025      1.050
REMARK  Name = 
REMARK  8 active torsions:
REMARK  status: ('A' for Active; 'I' for Inactive)
REMARK    1  A    between atoms: C_1  and  C_2
REMARK    2  A    between atoms: C_2  and  C_3
REMARK    3  A    between atoms: C_3  and  C_5
REMARK    4  A    between atoms: C_5  and  C_6
REMARK    5  A    between atoms: C_6  and  N_7
REMARK    6  A    between atoms: C_6  and  C_12
REMARK    7  A    between atoms: C_8  and  O_10
REMARK    8  A    between atoms: O_10  and  C_11
REMARK                            x       y       z     vdW  Elec       q    Type
REMARK                         _______ _______ _______ _____ _____    ______ ____
ROOT
ATOM      1  C   UNL     1       5.577   5.057  16.137  0.00  0.00    +0.000 C 
ENDROOT
BRANCH   1   2
ATOM      2  C   UNL     1       4.299   4.876  16.945  0.00  0.00    +0.000 A 
ATOM      3  C   UNL     1       3.702   3.608  17.037  0.00  0.00    +0.000 A 
ATOM      4  C   UNL     1       2.489   3.437  17.707  0.00  0.00    +0.000 A 
ATOM      5  C   UNL     1       1.858   4.528  18.302  0.00  0.00    +0.000 A 
ATOM      6  C   UNL     1       2.454   5.786  18.249  0.00  0.00    +0.000 A 
ATOM      7  C   UNL     1       3.670   5.959  17.584  0.00  0.00    +0.000 A 
ENDBRANCH   1   2
BRANCH   1   8
ATOM      8  N   UNL     1       6.097   6.401  16.291  0.00  0.00    +0.000 N 
ATOM      9  C   UNL     1       7.181   6.679  17.067  0.00  0.00    +0.000 C 
ATOM     10  O   UNL     1       7.827   5.855  17.698  0.00  0.00    +0.000 OA
ATOM     11  H   UNL     1       5.683   7.180  15.801  0.00  0.00    +0.000 HD
BRANCH   9  12
ATOM     12  O   UNL     1       7.454   8.005  17.002  0.00  0.00    +0.000 OA
ATOM     13  C   UNL     1       8.176   8.498  18.133  0.00  0.00    +0.000 C 
ENDBRANCH   9  12
ENDBRANCH   1   8
BRANCH   1  14
ATOM     14  C   UNL     1       5.327   4.687  14.670  0.00  0.00    +0.000 C 
BRANCH  14  15
ATOM     15  C   UNL     1       6.616   4.580  13.889  0.00  0.00    +0.000 C 
ATOM     16  O   UNL     1       7.594   5.261  14.206  0.00  0.00    +0.000 OA
BRANCH  15  18
ATOM     17  C   UNL     1       5.246   3.368  12.144  0.00  0.00    +0.000 C 
ATOM     18  C   UNL     1       6.631   3.619  12.714  0.00  0.00    +0.000 C 
ENDBRANCH  15  18
ENDBRANCH  14  15
ENDBRANCH   1  14
TORSDOF 6
ENDMDL
MODEL 7
REMARK VINA RESULT:      -6.6      1.966      4.085
REMARK  Name = 
REMARK  8 active torsions:
REMARK  status: ('A' for Active; 'I' for Inactive)
REMARK    1  A    between atoms: C_1  and  C_2
REMARK    2  A    between atoms: C_2  and  C_3
REMARK    3  A    between atoms: C_3  and  C_5
REMARK    4  A    between atoms: C_5  and  C_6
REMARK    5  A    between atoms: C_6  and  N_7
REMARK    6  A    between atoms: C_6  and  C_12
REMARK    7  A    between atoms: C_8  and  O_10
REMARK    8  A    between atoms: O_10  and  C_11
REMARK                            x       y       z     vdW  Elec       q    Type
REMARK                         _______ _______ _______ _____ _____    ______ ____
ROOT
ATOM      1  C   UNL     1       5.226   4.379  19.186  0.00  0.00    +0.000 C 
ENDROOT
BRANCH   1   2
ATOM      2  C   UNL     1       4.200   5.479  18.953  0.00  0.00    +0.000 A 
ATOM      3  C   UNL     1       4.250   6.245  17.777  0.00  0.00    +0.000 A 
ATOM      4  C   UNL     1       3.367   7.309  17.580  0.00  0.00    +0.000 A 
ATOM      5  C   UNL     1       2.414   7.616  18.550  0.00  0.00    +0.000 A 
ATOM      6  C   UNL     1       2.329   6.844  19.706  0.00  0.00    +0.000 A 
ATOM      7  C   UNL     1       3.208   5.777  19.903  0.00  0.00    +0.000 A 
ENDBRANCH   1   2
BRANCH   1   8
ATOM      8  N   UNL     1       6.085   4.222  18.029  0.00  0.00    +0.000 N 
ATOM      9  C   UNL     1       7.385   4.629  18.026  0.00  0.00    +0.000 C 
ATOM     10  O   UNL     1       7.963   5.150  18.968  0.00  0.00    +0.000 OA
ATOM     11  H   UNL     1       5.751   3.777  17.188  0.00  0.00    +0.000 HD
BRANCH   9  12
ATOM     12  O   UNL     1       7.946   4.335  16.828  0.00  0.00    +0.000 OA
ATOM     13  C   UNL     1       7.102   4.627  15.712  0.00  0.00    +0.000 C 
ENDBRANCH   9  12
ENDBRANCH   1   8
BRANCH   1  14
ATOM     14  C   UNL     1       4.518   3.074  19.574  0.00  0.00    +0.000 C 
BRANCH  14  15
ATOM     15  C   UNL     1       3.587   2.595  18.484  0.00  0.00    +0.000 C 
ATOM     16  O   UNL     1       3.989   2.492  17.323  0.00  0.00    +0.000 OA
BRANCH  15  18
ATOM     17  C   UNL     1       1.159   3.293  18.395  0.00  0.00    +0.000 C 
ATOM     18  C   UNL     1       2.162   2.268  18.892  0.00  0.00    +0.000 C 
ENDBRANCH  15  18
ENDBRANCH  14  15
ENDBRANCH   1  14
TORSDOF 6
ENDMDL
MODEL 8
REMARK VINA RESULT:      -6.6      2.168      4.635
REMARK  Name = 
REMARK  8 active torsions:
REMARK  status: ('A' for Active; 'I' for Inactive)
REMARK    1  A    between atoms: C_1  and  C_2
REMARK    2  A    between atoms: C_2  and  C_3
REMARK    3  A    between atoms: C_3  and  C_5
REMARK    4  A    between atoms: C_5  and  C_6
REMARK    5  A    between atoms: C_6  and  N_7
REMARK    6  A    between atoms: C_6  and  C_12
REMARK    7  A    between atoms: C_8  and  O_10
REMARK    8  A    between atoms: O_10  and  C_11
REMARK                            x       y       z     vdW  Elec       q    Type
REMARK                         _______ _______ _______ _____ _____    ______ ____
ROOT
ATOM      1  C   UNL     1       4.914   4.407  18.708  0.00  0.00    +0.000 C 
ENDROOT
BRANCH   1   2
ATOM      2  C   UNL     1       4.015   5.632  18.601  0.00  0.00    +0.000 A 
ATOM      3  C   UNL     1       4.163   6.517  17.522  0.00  0.00    +0.000 A 
ATOM      4  C   UNL     1       3.403   7.686  17.448  0.00  0.00    +0.000 A 
ATOM      5  C   UNL     1       2.477   7.983  18.446  0.00  0.00    +0.000 A 
ATOM      6  C   UNL     1       2.293   7.098  19.505  0.00  0.00    +0.000 A 
ATOM      7  C   UNL     1       3.049   5.927  19.579  0.00  0.00    +0.000 A 
ENDBRANCH   1   2
BRANCH   1   8
ATOM      8  N   UNL     1       5.874   4.378  17.623  0.00  0.00    +0.000 N 
ATOM      9  C   UNL     1       7.206   4.582  17.823  0.00  0.00    +0.000 C 
ATOM     10  O   UNL     1       7.732   4.800  18.904  0.00  0.00    +0.000 OA
ATOM     11  H   UNL     1       5.587   4.176  16.677  0.00  0.00    +0.000 HD
BRANCH   9  12
ATOM     12  O   UNL     1       7.861   4.472  16.641  0.00  0.00    +0.000 OA
ATOM     13  C   UNL     1       6.993   4.424  15.506  0.00  0.00    +0.000 C 
ENDBRANCH   9  12
ENDBRANCH   1   8
BRANCH   1  14
ATOM     14  C   UNL     1       4.060   3.135  18.773  0.00  0.00    +0.000 C 
BRANCH  14  15
ATOM     15  C   UNL     1       4.156   2.461  20.122  0.00  0.00    +0.000 C 
ATOM     16  O   UNL     1       5.191   1.880  20.456  0.00  0.00    +0.000 OA
BRANCH  15  18
ATOM     17  C   UNL     1       1.641   2.701  20.228  0.00  0.00    +0.000 C 
ATOM     18  C   UNL     1       2.929   2.530  21.014  0.00  0.00    +0.000 C 
ENDBRANCH  15  18
ENDBRANCH  14  15
ENDBRANCH   1  14
TORSDOF 6
ENDMDL
MODEL 9
REMARK VINA RESULT:      -6.6      0.897      1.029
REMARK  Name = 
REMARK  8 active torsions:
REMARK  status: ('A' for Active; 'I' for Inactive)
REMARK    1  A    between atoms: C_1  and  C_2
REMARK    2  A    between atoms: C_2  and  C_3
REMARK    3  A    between atoms: C_3  and  C_5
REMARK    4  A    between atoms: C_5  and  C_6
REMARK    5  A    between atoms: C_6  and  N_7
REMARK    6  A    between atoms: C_6  and  C_12
REMARK    7  A    between atoms: C_8  and  O_10
REMARK    8  A    between atoms: O_10  and  C_11
REMARK                            x       y       z     vdW  Elec       q    Type
REMARK                         _______ _______ _______ _____ _____    ______ ____
ROOT
ATOM      1  C   UNL     1       5.591   4.531  16.955  0.00  0.00    +0.000 C 
ENDROOT
BRANCH   1   2
ATOM      2  C   UNL     1       4.358   4.180  17.778  0.00  0.00    +0.000 A 
ATOM      3  C   UNL     1       4.481   3.355  18.908  0.00  0.00    +0.000 A 
ATOM      4  C   UNL     1       3.353   2.959  19.629  0.00  0.00    +0.000 A 
ATOM      5  C   UNL     1       2.086   3.388  19.238  0.00  0.00    +0.000 A 
ATOM      6  C   UNL     1       1.950   4.234  18.140  0.00  0.00    +0.000 A 
ATOM      7  C   UNL     1       3.077   4.636  17.420  0.00  0.00    +0.000 A 
ENDBRANCH   1   2
BRANCH   1   8
ATOM      8  N   UNL     1       6.304   5.645  17.546  0.00  0.00    +0.000 N 
ATOM      9  C   UNL     1       7.502   5.492  18.175  0.00  0.00    +0.000 C 
ATOM     10  O   UNL     1       8.101   4.434  18.306  0.00  0.00    +0.000 OA
ATOM     11  H   UNL     1       5.944   6.586  17.487  0.00  0.00    +0.000 HD
BRANCH   9  12
ATOM     12  O   UNL     1       7.944   6.700  18.604  0.00  0.00    +0.000 OA
ATOM     13  C   UNL     1       7.738   7.754  17.660  0.00  0.00    +0.000 C 
ENDBRANCH   9  12
ENDBRANCH   1   8
BRANCH   1  14
ATOM     14  C   UNL     1       5.190   4.795  15.498  0.00  0.00    +0.000 C 
BRANCH  14  15
ATOM     15  C   UNL     1       6.358   4.621  14.554  0.00  0.00    +0.000 C 
ATOM     16  O   UNL     1       7.415   5.224  14.754  0.00  0.00    +0.000 OA
BRANCH  15  18
ATOM     17  C   UNL     1       7.019   4.063  12.178  0.00  0.00    +0.000 C 
ATOM     18  C   UNL     1       6.152   3.695  13.369  0.00  0.00    +0.000 C 
ENDBRANCH  15  18
ENDBRANCH  14  15
ENDBRANCH   1  14
TORSDOF 6
ENDMDL
