MODEL 1
REMARK VINA RESULT:      -5.9      0.000      0.000
REMARK  Name = 
REMARK  6 active torsions:
REMARK  status: ('A' for Active; 'I' for Inactive)
REMARK    1  A    between atoms: C_1  and  C_2
REMARK    2  A    between atoms: C_2  and  C_3
REMARK    3  A    between atoms: C_2  and  N_9
REMARK    4  A    between atoms: C_3  and  N_4
REMARK    5  A    between atoms: C_14  and  N_15
REMARK    6  A    between atoms: C_22  and  C_23
REMARK                            x       y       z     vdW  Elec       q    Type
REMARK                         _______ _______ _______ _____ _____    ______ ____
ROOT
ATOM      1  N   UNL     1       0.975   9.542  19.203  0.00  0.00    +0.000 N 
ATOM      2  C   UNL     1       1.766   8.613  18.598  0.00  0.00    +0.000 C 
ATOM      3  O   UNL     1       2.057   8.707  17.403  0.00  0.00    +0.000 OA
ATOM      4  N   UNL     1       2.221   7.588  19.377  0.00  0.00    +0.000 N 
ATOM      5  C   UNL     1       3.224   6.693  18.833  0.00  0.00    +0.000 C 
ATOM      6  C   UNL     1       2.834   5.297  19.351  0.00  0.00    +0.000 C 
ATOM      7  C   UNL     1       2.332   5.671  20.774  0.00  0.00    +0.000 C 
ATOM      8  C   UNL     1       1.929   7.170  20.748  0.00  0.00    +0.000 C 
ATOM      9  C   UNL     1       0.524   7.371  21.303  0.00  0.00    +0.000 C 
ATOM     10  H   UNL     1       1.147   9.684  20.186  0.00  0.00    +0.000 HD
ENDROOT
BRANCH   6  11
ATOM     11  N   UNL     1       1.825   4.611  18.498  0.00  0.00    +0.000 NA
ATOM     12  C   UNL     1       1.039   3.578  19.217  0.00  0.00    +0.000 C 
ATOM     13  C   UNL     1       1.844   2.316  19.579  0.00  0.00    +0.000 C 
ATOM     14  O   UNL     1       2.435   1.714  18.421  0.00  0.00    +0.000 OA
ATOM     15  C   UNL     1       3.239   2.656  17.701  0.00  0.00    +0.000 C 
ATOM     16  C   UNL     1       2.429   3.911  17.326  0.00  0.00    +0.000 C 
ENDBRANCH   6  11
BRANCH   1  18
ATOM     17  C   UNL     1      -0.981  10.243  17.930  0.00  0.00    +0.000 C 
ATOM     18  C   UNL     1       0.398  10.661  18.445  0.00  0.00    +0.000 C 
BRANCH  18  19
ATOM     19  C   UNL     1       0.345  11.960  19.275  0.00  0.00    +0.000 C 
BRANCH  19  20
ATOM     20  N   UNL     1      -0.319  11.804  20.550  0.00  0.00    +0.000 N 
ATOM     21  C   UNL     1      -1.563  12.225  20.902  0.00  0.00    +0.000 A 
ATOM     22  N   UNL     1      -1.789  11.913  22.159  0.00  0.00    +0.000 NA
ATOM     23  C   UNL     1      -0.626  11.310  22.539  0.00  0.00    +0.000 A 
ATOM     24  N   UNL     1       0.308  11.222  21.590  0.00  0.00    +0.000 NA
ENDBRANCH  19  20
ENDBRANCH  18  19
ENDBRANCH   1  18
TORSDOF 4
ENDMDL
MODEL 2
REMARK VINA RESULT:      -5.9      2.287      7.687
REMARK  Name = 
REMARK  6 active torsions:
REMARK  status: ('A' for Active; 'I' for Inactive)
REMARK    1  A    between atoms: C_1  and  C_2
REMARK    2  A    between atoms: C_2  and  C_3
REMARK    3  A    between atoms: C_2  and  N_9
REMARK    4  A    between atoms: C_3  and  N_4
REMARK    5  A    between atoms: C_14  and  N_15
REMARK    6  A    between atoms: C_22  and  C_23
REMARK                            x       y       z     vdW  Elec       q    Type
REMARK                         _______ _______ _______ _____ _____    ______ ____
ROOT
ATOM      1  N   UNL     1       2.121   7.281  19.063  0.00  0.00    +0.000 N 
ATOM      2  C   UNL     1       1.875   8.495  18.497  0.00  0.00    +0.000 C 
ATOM      3  O   UNL     1       2.333   8.784  17.389  0.00  0.00    +0.000 OA
ATOM      4  N   UNL     1       1.096   9.361  19.210  0.00  0.00    +0.000 N 
ATOM      5  C   UNL     1       0.642  10.578  18.566  0.00  0.00    +0.000 C 
ATOM      6  C   UNL     1       0.717  11.658  19.659  0.00  0.00    +0.000 C 
ATOM      7  C   UNL     1       0.276  10.822  20.893  0.00  0.00    +0.000 C 
ATOM      8  C   UNL     1       0.551   9.329  20.567  0.00  0.00    +0.000 C 
ATOM      9  C   UNL     1       1.357   8.663  21.675  0.00  0.00    +0.000 C 
ATOM     10  H   UNL     1       1.402   6.935  19.677  0.00  0.00    +0.000 HD
ENDROOT
BRANCH   6  11
ATOM     11  N   UNL     1       2.064  12.282  19.782  0.00  0.00    +0.000 NA
ATOM     12  C   UNL     1       2.163  13.277  20.878  0.00  0.00    +0.000 C 
ATOM     13  C   UNL     1       1.393  14.584  20.611  0.00  0.00    +0.000 C 
ATOM     14  O   UNL     1       1.814  15.207  19.392  0.00  0.00    +0.000 OA
ATOM     15  C   UNL     1       1.706  14.303  18.285  0.00  0.00    +0.000 C 
ATOM     16  C   UNL     1       2.489  13.003  18.546  0.00  0.00    +0.000 C 
ENDBRANCH   6  11
BRANCH   1  18
ATOM     17  C   UNL     1       4.133   5.935  19.340  0.00  0.00    +0.000 C 
ATOM     18  C   UNL     1       2.982   6.292  18.398  0.00  0.00    +0.000 C 
BRANCH  18  19
ATOM     19  C   UNL     1       2.192   5.049  17.939  0.00  0.00    +0.000 C 
BRANCH  19  20
ATOM     20  N   UNL     1       1.908   4.118  19.009  0.00  0.00    +0.000 N 
ATOM     21  C   UNL     1       2.250   2.804  19.087  0.00  0.00    +0.000 A 
ATOM     22  N   UNL     1       1.785   2.299  20.208  0.00  0.00    +0.000 NA
ATOM     23  C   UNL     1       1.141   3.358  20.778  0.00  0.00    +0.000 A 
ATOM     24  N   UNL     1       1.184   4.495  20.080  0.00  0.00    +0.000 NA
ENDBRANCH  19  20
ENDBRANCH  18  19
ENDBRANCH   1  18
TORSDOF 4
ENDMDL
MODEL 3
REMARK VINA RESULT:      -5.7      1.560      2.230
REMARK  Name = 
REMARK  6 active torsions:
REMARK  status: ('A' for Active; 'I' for Inactive)
REMARK    1  A    between atoms: C_1  and  C_2
REMARK    2  A    between atoms: C_2  and  C_3
REMARK    3  A    between atoms: C_2  and  N_9
REMARK    4  A    between atoms: C_3  and  N_4
REMARK    5  A    between atoms: C_14  and  N_15
REMARK    6  A    between atoms: C_22  and  C_23
REMARK                            x       y       z     vdW  Elec       q    Type
REMARK                         _______ _______ _______ _____ _____    ______ ____
ROOT
ATOM      1  N   UNL     1       0.884   9.593  19.168  0.00  0.00    +0.000 N 
ATOM      2  C   UNL     1       1.702   8.680  18.574  0.00  0.00    +0.000 C 
ATOM      3  O   UNL     1       1.998   8.773  17.381  0.00  0.00    +0.000 OA
ATOM      4  N   UNL     1       2.177   7.672  19.364  0.00  0.00    +0.000 N 
ATOM      5  C   UNL     1       3.205   6.798  18.833  0.00  0.00    +0.000 C 
ATOM      6  C   UNL     1       2.846   5.397  19.358  0.00  0.00    +0.000 C 
ATOM      7  C   UNL     1       2.326   5.768  20.775  0.00  0.00    +0.000 C 
ATOM      8  C   UNL     1       1.886   7.256  20.736  0.00  0.00    +0.000 C 
ATOM      9  C   UNL     1       0.472   7.427  21.279  0.00  0.00    +0.000 C 
ATOM     10  H   UNL     1       1.046   9.746  20.150  0.00  0.00    +0.000 HD
ENDROOT
BRANCH   6  11
ATOM     11  N   UNL     1       1.860   4.680  18.503  0.00  0.00    +0.000 NA
ATOM     12  C   UNL     1       1.078   3.650  19.229  0.00  0.00    +0.000 C 
ATOM     13  C   UNL     1       1.895   2.407  19.628  0.00  0.00    +0.000 C 
ATOM     14  O   UNL     1       2.511   1.791  18.492  0.00  0.00    +0.000 OA
ATOM     15  C   UNL     1       3.313   2.731  17.766  0.00  0.00    +0.000 C 
ATOM     16  C   UNL     1       2.492   3.966  17.355  0.00  0.00    +0.000 C 
ENDBRANCH   6  11
BRANCH   1  18
ATOM     17  C   UNL     1      -1.082  10.240  17.882  0.00  0.00    +0.000 C 
ATOM     18  C   UNL     1       0.284  10.693  18.397  0.00  0.00    +0.000 C 
BRANCH  18  19
ATOM     19  C   UNL     1       0.200  11.997  19.216  0.00  0.00    +0.000 C 
BRANCH  19  20
ATOM     20  N   UNL     1       1.250  12.942  18.907  0.00  0.00    +0.000 N 
ATOM     21  C   UNL     1       1.212  14.297  19.007  0.00  0.00    +0.000 A 
ATOM     22  N   UNL     1       2.360  14.797  18.607  0.00  0.00    +0.000 NA
ATOM     23  C   UNL     1       3.069  13.687  18.248  0.00  0.00    +0.000 A 
ATOM     24  N   UNL     1       2.430  12.526  18.409  0.00  0.00    +0.000 NA
ENDBRANCH  19  20
ENDBRANCH  18  19
ENDBRANCH   1  18
TORSDOF 4
ENDMDL
MODEL 4
REMARK VINA RESULT:      -5.4      2.286      8.074
REMARK  Name = 
REMARK  6 active torsions:
REMARK  status: ('A' for Active; 'I' for Inactive)
REMARK    1  A    between atoms: C_1  and  C_2
REMARK    2  A    between atoms: C_2  and  C_3
REMARK    3  A    between atoms: C_2  and  N_9
REMARK    4  A    between atoms: C_3  and  N_4
REMARK    5  A    between atoms: C_14  and  N_15
REMARK    6  A    between atoms: C_22  and  C_23
REMARK                            x       y       z     vdW  Elec       q    Type
REMARK                         _______ _______ _______ _____ _____    ______ ____
ROOT
ATOM      1  N   UNL     1       2.078   7.329  19.170  0.00  0.00    +0.000 N 
ATOM      2  C   UNL     1       1.841   8.520  18.552  0.00  0.00    +0.000 C 
ATOM      3  O   UNL     1       2.305   8.760  17.434  0.00  0.00    +0.000 OA
ATOM      4  N   UNL     1       1.065   9.420  19.224  0.00  0.00    +0.000 N 
ATOM      5  C   UNL     1       0.620  10.612  18.528  0.00  0.00    +0.000 C 
ATOM      6  C   UNL     1       0.698  11.736  19.575  0.00  0.00    +0.000 C 
ATOM      7  C   UNL     1       0.247  10.955  20.841  0.00  0.00    +0.000 C 
ATOM      8  C   UNL     1       0.514   9.448  20.579  0.00  0.00    +0.000 C 
ATOM      9  C   UNL     1       1.312   8.825  21.718  0.00  0.00    +0.000 C 
ATOM     10  H   UNL     1       1.354   7.014  19.795  0.00  0.00    +0.000 HD
ENDROOT
BRANCH   6  11
ATOM     11  N   UNL     1       2.048  12.356  19.678  0.00  0.00    +0.000 NA
ATOM     12  C   UNL     1       2.227  13.201  20.883  0.00  0.00    +0.000 C 
ATOM     13  C   UNL     1       1.435  14.522  20.848  0.00  0.00    +0.000 C 
ATOM     14  O   UNL     1       1.759  15.304  19.693  0.00  0.00    +0.000 OA
ATOM     15  C   UNL     1       1.571  14.550  18.488  0.00  0.00    +0.000 C 
ATOM     16  C   UNL     1       2.375  13.238  18.518  0.00  0.00    +0.000 C 
ENDBRANCH   6  11
BRANCH   1  18
ATOM     17  C   UNL     1       3.835   5.705  19.631  0.00  0.00    +0.000 C 
ATOM     18  C   UNL     1       2.936   6.308  18.551  0.00  0.00    +0.000 C 
BRANCH  18  19
ATOM     19  C   UNL     1       2.116   5.236  17.804  0.00  0.00    +0.000 C 
BRANCH  19  20
ATOM     20  N   UNL     1       2.538   3.883  18.090  0.00  0.00    +0.000 N 
ATOM     21  C   UNL     1       3.549   3.182  17.510  0.00  0.00    +0.000 A 
ATOM     22  N   UNL     1       3.596   1.975  18.030  0.00  0.00    +0.000 NA
ATOM     23  C   UNL     1       2.564   1.985  18.922  0.00  0.00    +0.000 A 
ATOM     24  N   UNL     1       1.882   3.130  18.992  0.00  0.00    +0.000 NA
ENDBRANCH  19  20
ENDBRANCH  18  19
ENDBRANCH   1  18
TORSDOF 4
ENDMDL
MODEL 5
REMARK VINA RESULT:      -5.4      0.997      1.143
REMARK  Name = 
REMARK  6 active torsions:
REMARK  status: ('A' for Active; 'I' for Inactive)
REMARK    1  A    between atoms: C_1  and  C_2
REMARK    2  A    between atoms: C_2  and  C_3
REMARK    3  A    between atoms: C_2  and  N_9
REMARK    4  A    between atoms: C_3  and  N_4
REMARK    5  A    between atoms: C_14  and  N_15
REMARK    6  A    between atoms: C_22  and  C_23
REMARK                            x       y       z     vdW  Elec       q    Type
REMARK                         _______ _______ _______ _____ _____    ______ ____
ROOT
ATOM      1  N   UNL     1       0.207   9.989  18.916  0.00  0.00    +0.000 N 
ATOM      2  C   UNL     1       1.116   9.086  18.452  0.00  0.00    +0.000 C 
ATOM      3  O   UNL     1       1.401   9.031  17.253  0.00  0.00    +0.000 OA
ATOM      4  N   UNL     1       1.692   8.261  19.375  0.00  0.00    +0.000 N 
ATOM      5  C   UNL     1       2.806   7.428  18.963  0.00  0.00    +0.000 C 
ATOM      6  C   UNL     1       2.595   6.092  19.695  0.00  0.00    +0.000 C 
ATOM      7  C   UNL     1       2.038   6.613  21.049  0.00  0.00    +0.000 C 
ATOM      8  C   UNL     1       1.445   8.026  20.797  0.00  0.00    +0.000 C 
ATOM      9  C   UNL     1       0.022   8.129  21.331  0.00  0.00    +0.000 C 
ATOM     10  H   UNL     1       0.352  10.302  19.863  0.00  0.00    +0.000 HD
ENDROOT
BRANCH   6  11
ATOM     11  N   UNL     1       1.688   5.158  18.971  0.00  0.00    +0.000 NA
ATOM     12  C   UNL     1       1.182   4.045  19.810  0.00  0.00    +0.000 C 
ATOM     13  C   UNL     1       2.252   2.997  20.175  0.00  0.00    +0.000 C 
ATOM     14  O   UNL     1       2.869   2.442  19.008  0.00  0.00    +0.000 OA
ATOM     15  C   UNL     1       3.411   3.471  18.170  0.00  0.00    +0.000 C 
ATOM     16  C   UNL     1       2.338   4.508  17.794  0.00  0.00    +0.000 C 
ENDBRANCH   6  11
BRANCH   1  18
ATOM     17  C   UNL     1      -1.807  10.224  17.565  0.00  0.00    +0.000 C 
ATOM     18  C   UNL     1      -0.503  10.894  18.001  0.00  0.00    +0.000 C 
BRANCH  18  19
ATOM     19  C   UNL     1      -0.737  12.285  18.625  0.00  0.00    +0.000 C 
BRANCH  19  20
ATOM     20  N   UNL     1      -0.475  12.331  20.046  0.00  0.00    +0.000 N 
ATOM     21  C   UNL     1       0.494  13.029  20.696  0.00  0.00    +0.000 A 
ATOM     22  N   UNL     1       0.417  12.786  21.985  0.00  0.00    +0.000 NA
ATOM     23  C   UNL     1      -0.621  11.904  22.069  0.00  0.00    +0.000 A 
ATOM     24  N   UNL     1      -1.198  11.590  20.907  0.00  0.00    +0.000 NA
ENDBRANCH  19  20
ENDBRANCH  18  19
ENDBRANCH   1  18
TORSDOF 4
ENDMDL
MODEL 6
REMARK VINA RESULT:      -5.3      2.283      8.039
REMARK  Name = 
REMARK  6 active torsions:
REMARK  status: ('A' for Active; 'I' for Inactive)
REMARK    1  A    between atoms: C_1  and  C_2
REMARK    2  A    between atoms: C_2  and  C_3
REMARK    3  A    between atoms: C_2  and  N_9
REMARK    4  A    between atoms: C_3  and  N_4
REMARK    5  A    between atoms: C_14  and  N_15
REMARK    6  A    between atoms: C_22  and  C_23
REMARK                            x       y       z     vdW  Elec       q    Type
REMARK                         _______ _______ _______ _____ _____    ______ ____
ROOT
ATOM      1  N   UNL     1       2.204   7.397  18.952  0.00  0.00    +0.000 N 
ATOM      2  C   UNL     1       1.815   8.578  18.396  0.00  0.00    +0.000 C 
ATOM      3  O   UNL     1       2.163   8.888  17.254  0.00  0.00    +0.000 OA
ATOM      4  N   UNL     1       1.022   9.387  19.158  0.00  0.00    +0.000 N 
ATOM      5  C   UNL     1       0.420  10.552  18.541  0.00  0.00    +0.000 C 
ATOM      6  C   UNL     1       0.486  11.651  19.616  0.00  0.00    +0.000 C 
ATOM      7  C   UNL     1       0.211  10.799  20.887  0.00  0.00    +0.000 C 
ATOM      8  C   UNL     1       0.585   9.329  20.553  0.00  0.00    +0.000 C 
ATOM      9  C   UNL     1       1.525   8.749  21.603  0.00  0.00    +0.000 C 
ATOM     10  H   UNL     1       1.565   7.001  19.622  0.00  0.00    +0.000 HD
ENDROOT
BRANCH   6  11
ATOM     11  N   UNL     1       1.781  12.386  19.631  0.00  0.00    +0.000 NA
ATOM     12  C   UNL     1       2.022  13.146  20.882  0.00  0.00    +0.000 C 
ATOM     13  C   UNL     1       1.120  14.385  21.046  0.00  0.00    +0.000 C 
ATOM     14  O   UNL     1       1.245  15.282  19.938  0.00  0.00    +0.000 OA
ATOM     15  C   UNL     1       0.988  14.612  18.698  0.00  0.00    +0.000 C 
ATOM     16  C   UNL     1       1.900  13.383  18.527  0.00  0.00    +0.000 C 
ENDBRANCH   6  11
BRANCH   1  18
ATOM     17  C   UNL     1       4.294   7.260  17.706  0.00  0.00    +0.000 C 
ATOM     18  C   UNL     1       3.093   6.473  18.232  0.00  0.00    +0.000 C 
BRANCH  18  19
ATOM     19  C   UNL     1       3.515   5.273  19.105  0.00  0.00    +0.000 C 
BRANCH  19  20
ATOM     20  N   UNL     1       3.195   3.991  18.518  0.00  0.00    +0.000 N 
ATOM     21  C   UNL     1       2.094   3.653  17.796  0.00  0.00    +0.000 A 
ATOM     22  N   UNL     1       2.165   2.384  17.461  0.00  0.00    +0.000 NA
ATOM     23  C   UNL     1       3.339   1.982  18.029  0.00  0.00    +0.000 A 
ATOM     24  N   UNL     1       4.005   2.930  18.692  0.00  0.00    +0.000 NA
ENDBRANCH  19  20
ENDBRANCH  18  19
ENDBRANCH   1  18
TORSDOF 4
ENDMDL
MODEL 7
REMARK VINA RESULT:      -5.3      4.981      8.890
REMARK  Name = 
REMARK  6 active torsions:
REMARK  status: ('A' for Active; 'I' for Inactive)
REMARK    1  A    between atoms: C_1  and  C_2
REMARK    2  A    between atoms: C_2  and  C_3
REMARK    3  A    between atoms: C_2  and  N_9
REMARK    4  A    between atoms: C_3  and  N_4
REMARK    5  A    between atoms: C_14  and  N_15
REMARK    6  A    between atoms: C_22  and  C_23
REMARK                            x       y       z     vdW  Elec       q    Type
REMARK                         _______ _______ _______ _____ _____    ______ ____
ROOT
ATOM      1  N   UNL     1       7.069   5.062  14.991  0.00  0.00    +0.000 N 
ATOM      2  C   UNL     1       6.100   4.465  15.741  0.00  0.00    +0.000 C 
ATOM      3  O   UNL     1       5.208   3.799  15.211  0.00  0.00    +0.000 OA
ATOM      4  N   UNL     1       6.174   4.635  17.093  0.00  0.00    +0.000 N 
ATOM      5  C   UNL     1       5.291   3.858  17.941  0.00  0.00    +0.000 C 
ATOM      6  C   UNL     1       4.873   4.820  19.067  0.00  0.00    +0.000 C 
ATOM      7  C   UNL     1       6.205   5.596  19.265  0.00  0.00    +0.000 C 
ATOM      8  C   UNL     1       7.022   5.463  17.951  0.00  0.00    +0.000 C 
ATOM      9  C   UNL     1       7.480   6.827  17.448  0.00  0.00    +0.000 C 
ATOM     10  H   UNL     1       7.961   5.172  15.445  0.00  0.00    +0.000 HD
ENDROOT
BRANCH   6  11
ATOM     11  N   UNL     1       3.705   5.674  18.713  0.00  0.00    +0.000 NA
ATOM     12  C   UNL     1       2.941   6.159  19.888  0.00  0.00    +0.000 C 
ATOM     13  C   UNL     1       2.138   5.061  20.610  0.00  0.00    +0.000 C 
ATOM     14  O   UNL     1       1.232   4.396  19.723  0.00  0.00    +0.000 OA
ATOM     15  C   UNL     1       1.919   3.872  18.580  0.00  0.00    +0.000 C 
ATOM     16  C   UNL     1       2.710   4.972  17.849  0.00  0.00    +0.000 C 
ENDBRANCH   6  11
BRANCH   1  18
ATOM     17  C   UNL     1       8.218   5.808  12.976  0.00  0.00    +0.000 C 
ATOM     18  C   UNL     1       7.057   4.977  13.524  0.00  0.00    +0.000 C 
BRANCH  18  19
ATOM     19  C   UNL     1       7.095   3.517  13.027  0.00  0.00    +0.000 C 
BRANCH  19  20
ATOM     20  N   UNL     1       5.942   3.146  12.237  0.00  0.00    +0.000 N 
ATOM     21  C   UNL     1       5.759   2.016  11.503  0.00  0.00    +0.000 A 
ATOM     22  N   UNL     1       4.587   2.066  10.910  0.00  0.00    +0.000 NA
ATOM     23  C   UNL     1       4.094   3.276  11.306  0.00  0.00    +0.000 A 
ATOM     24  N   UNL     1       4.890   3.978  12.117  0.00  0.00    +0.000 NA
ENDBRANCH  19  20
ENDBRANCH  18  19
ENDBRANCH   1  18
TORSDOF 4
ENDMDL
MODEL 8
REMARK VINA RESULT:      -5.2      2.546      7.590
REMARK  Name = 
REMARK  6 active torsions:
REMARK  status: ('A' for Active; 'I' for Inactive)
REMARK    1  A    between atoms: C_1  and  C_2
REMARK    2  A    between atoms: C_2  and  C_3
REMARK    3  A    between atoms: C_2  and  N_9
REMARK    4  A    between atoms: C_3  and  N_4
REMARK    5  A    between atoms: C_14  and  N_15
REMARK    6  A    between atoms: C_22  and  C_23
REMARK                            x       y       z     vdW  Elec       q    Type
REMARK                         _______ _______ _______ _____ _____    ______ ____
ROOT
ATOM      1  N   UNL     1       2.321   4.783  19.154  0.00  0.00    +0.000 N 
ATOM      2  C   UNL     1       2.059   5.616  20.199  0.00  0.00    +0.000 C 
ATOM      3  O   UNL     1       1.735   5.169  21.302  0.00  0.00    +0.000 OA
ATOM      4  N   UNL     1       2.181   6.956  19.966  0.00  0.00    +0.000 N 
ATOM      5  C   UNL     1       2.111   7.867  21.092  0.00  0.00    +0.000 C 
ATOM      6  C   UNL     1       1.327   9.084  20.571  0.00  0.00    +0.000 C 
ATOM      7  C   UNL     1       1.874   9.153  19.117  0.00  0.00    +0.000 C 
ATOM      8  C   UNL     1       2.411   7.742  18.754  0.00  0.00    +0.000 C 
ATOM      9  C   UNL     1       1.829   7.256  17.432  0.00  0.00    +0.000 C 
ATOM     10  H   UNL     1       2.989   5.127  18.483  0.00  0.00    +0.000 HD
ENDROOT
BRANCH   6  11
ATOM     11  N   UNL     1      -0.151   8.921  20.669  0.00  0.00    +0.000 NA
ATOM     12  C   UNL     1      -0.914  10.100  20.194  0.00  0.00    +0.000 C 
ATOM     13  C   UNL     1      -0.815  11.328  21.119  0.00  0.00    +0.000 C 
ATOM     14  O   UNL     1      -1.236  11.022  22.453  0.00  0.00    +0.000 OA
ATOM     15  C   UNL     1      -0.506   9.909  22.983  0.00  0.00    +0.000 C 
ATOM     16  C   UNL     1      -0.619   8.678  22.066  0.00  0.00    +0.000 C 
ENDBRANCH   6  11
BRANCH   1  18
ATOM     17  C   UNL     1       0.865   2.901  18.627  0.00  0.00    +0.000 C 
ATOM     18  C   UNL     1       2.178   3.326  19.287  0.00  0.00    +0.000 C 
BRANCH  18  19
ATOM     19  C   UNL     1       3.394   2.568  18.716  0.00  0.00    +0.000 C 
BRANCH  19  20
ATOM     20  N   UNL     1       4.446   3.439  18.242  0.00  0.00    +0.000 N 
ATOM     21  C   UNL     1       4.720   3.800  16.960  0.00  0.00    +0.000 A 
ATOM     22  N   UNL     1       5.774   4.586  16.943  0.00  0.00    +0.000 NA
ATOM     23  C   UNL     1       6.122   4.659  18.261  0.00  0.00    +0.000 A 
ATOM     24  N   UNL     1       5.342   3.969  19.096  0.00  0.00    +0.000 NA
ENDBRANCH  19  20
ENDBRANCH  18  19
ENDBRANCH   1  18
TORSDOF 4
ENDMDL
MODEL 9
REMARK VINA RESULT:      -5.2      2.554      8.032
REMARK  Name = 
REMARK  6 active torsions:
REMARK  status: ('A' for Active; 'I' for Inactive)
REMARK    1  A    between atoms: C_1  and  C_2
REMARK    2  A    between atoms: C_2  and  C_3
REMARK    3  A    between atoms: C_2  and  N_9
REMARK    4  A    between atoms: C_3  and  N_4
REMARK    5  A    between atoms: C_14  and  N_15
REMARK    6  A    between atoms: C_22  and  C_23
REMARK                            x       y       z     vdW  Elec       q    Type
REMARK                         _______ _______ _______ _____ _____    ______ ____
ROOT
ATOM      1  N   UNL     1       1.854   7.339  19.843  0.00  0.00    +0.000 N 
ATOM      2  C   UNL     1       1.786   8.472  19.090  0.00  0.00    +0.000 C 
ATOM      3  O   UNL     1       2.460   8.594  18.064  0.00  0.00    +0.000 OA
ATOM      4  N   UNL     1       0.936   9.449  19.521  0.00  0.00    +0.000 N 
ATOM      5  C   UNL     1       0.678  10.580  18.652  0.00  0.00    +0.000 C 
ATOM      6  C   UNL     1       0.605  11.796  19.591  0.00  0.00    +0.000 C 
ATOM      7  C   UNL     1      -0.106  11.148  20.812  0.00  0.00    +0.000 C 
ATOM      8  C   UNL     1       0.144   9.617  20.739  0.00  0.00    +0.000 C 
ATOM      9  C   UNL     1       0.688   9.085  22.059  0.00  0.00    +0.000 C 
ATOM     10  H   UNL     1       1.014   7.101  20.345  0.00  0.00    +0.000 HD
ENDROOT
BRANCH   6  11
ATOM     11  N   UNL     1       1.937  12.391  19.893  0.00  0.00    +0.000 NA
ATOM     12  C   UNL     1       1.909  13.393  20.986  0.00  0.00    +0.000 C 
ATOM     13  C   UNL     1       1.213  14.715  20.607  0.00  0.00    +0.000 C 
ATOM     14  O   UNL     1       1.810  15.317  19.453  0.00  0.00    +0.000 OA
ATOM     15  C   UNL     1       1.834  14.405  18.348  0.00  0.00    +0.000 C 
ATOM     16  C   UNL     1       2.543  13.091  18.722  0.00  0.00    +0.000 C 
ENDBRANCH   6  11
BRANCH   1  18
ATOM     17  C   UNL     1       2.743   5.204  20.611  0.00  0.00    +0.000 C 
ATOM     18  C   UNL     1       2.770   6.244  19.490  0.00  0.00    +0.000 C 
BRANCH  18  19
ATOM     19  C   UNL     1       2.439   5.631  18.114  0.00  0.00    +0.000 C 
BRANCH  19  20
ATOM     20  N   UNL     1       3.606   5.186  17.384  0.00  0.00    +0.000 N 
ATOM     21  C   UNL     1       3.950   3.913  17.053  0.00  0.00    +0.000 A 
ATOM     22  N   UNL     1       5.098   3.925  16.412  0.00  0.00    +0.000 NA
ATOM     23  C   UNL     1       5.426   5.249  16.394  0.00  0.00    +0.000 A 
ATOM     24  N   UNL     1       4.545   6.063  16.982  0.00  0.00    +0.000 NA
ENDBRANCH  19  20
ENDBRANCH  18  19
ENDBRANCH   1  18
TORSDOF 4
ENDMDL
