MODEL 1
REMARK VINA RESULT:      -7.1      0.000      0.000
REMARK  Name = 
REMARK  11 active torsions:
REMARK  status: ('A' for Active; 'I' for Inactive)
REMARK    1  A    between atoms: C_1  and  N_2
REMARK    2  A    between atoms: N_2  and  C_3
REMARK    3  A    between atoms: N_2  and  C_11
REMARK    4  A    between atoms: C_3  and  C_4
REMARK    5  A    between atoms: C_4  and  C_5
REMARK    6  A    between atoms: C_13  and  C_14
REMARK    7  A    between atoms: C_25  and  O_27
REMARK    8  A    between atoms: O_27  and  C_28
REMARK    9  A    between atoms: C_28  and  C_29
REMARK   10  A    between atoms: C_28  and  C_30
REMARK   11  A    between atoms: C_28  and  C_31
REMARK                            x       y       z     vdW  Elec       q    Type
REMARK                         _______ _______ _______ _____ _____    ______ ____
ROOT
ATOM      1  C   UNL     1       1.140  10.445  19.664  0.00  0.00    +0.000 A 
ATOM      2  N   UNL     1       1.787   9.309  19.339  0.00  0.00    +0.000 NA
ATOM      3  C   UNL     1       1.621   8.210  20.101  0.00  0.00    +0.000 A 
ATOM      4  N   UNL     1       0.896   8.174  21.229  0.00  0.00    +0.000 NA
ATOM      5  C   UNL     1       0.281   9.313  21.584  0.00  0.00    +0.000 A 
ATOM      6  C   UNL     1       0.353  10.473  20.816  0.00  0.00    +0.000 A 
ATOM      7  C   UNL     1      -0.443  11.674  21.204  0.00  0.00    +0.000 C 
ATOM      8  N   UNL     1      -1.428  11.439  22.240  0.00  0.00    +0.000 N 
ATOM      9  C   UNL     1      -2.579  12.170  22.158  0.00  0.00    +0.000 C 
ATOM     10  O   UNL     1      -2.787  12.951  21.230  0.00  0.00    +0.000 OA
ATOM     11  C   UNL     1      -0.992  10.598  23.343  0.00  0.00    +0.000 C 
ATOM     12  C   UNL     1      -0.604   9.227  22.807  0.00  0.00    +0.000 C 
ENDROOT
BRANCH   3  13
ATOM     13  C   UNL     1       2.208   6.939  19.633  0.00  0.00    +0.000 A 
ATOM     14  C   UNL     1       2.086   5.749  20.364  0.00  0.00    +0.000 A 
ATOM     15  C   UNL     1       2.658   4.585  19.870  0.00  0.00    +0.000 A 
ATOM     16  N   UNL     1       3.346   4.517  18.711  0.00  0.00    +0.000 NA
ATOM     17  C   UNL     1       3.469   5.666  18.018  0.00  0.00    +0.000 A 
ATOM     18  C   UNL     1       2.933   6.875  18.432  0.00  0.00    +0.000 A 
ENDBRANCH   3  13
BRANCH   1  20
ATOM     19  C   UNL     1       2.441  11.819  18.053  0.00  0.00    +0.000 C 
ATOM     20  N   UNL     1       1.190  11.508  18.754  0.00  0.00    +0.000 N 
BRANCH  20  21
ATOM     21  C   UNL     1      -0.045  11.844  18.004  0.00  0.00    +0.000 C 
BRANCH  21  22
ATOM     22  C   UNL     1      -0.926  10.614  17.753  0.00  0.00    +0.000 C 
BRANCH  22  23
ATOM     23  C   UNL     1      -2.375  10.901  17.450  0.00  0.00    +0.000 A 
ATOM     24  C   UNL     1      -2.800  10.775  16.125  0.00  0.00    +0.000 A 
ATOM     25  C   UNL     1      -4.122  11.057  15.806  0.00  0.00    +0.000 A 
ATOM     26  C   UNL     1      -4.987  11.458  16.815  0.00  0.00    +0.000 A 
ATOM     27  C   UNL     1      -4.487  11.560  18.104  0.00  0.00    +0.000 A 
ATOM     28  N   UNL     1      -3.205  11.290  18.444  0.00  0.00    +0.000 NA
ENDBRANCH  22  23
ENDBRANCH  21  22
ENDBRANCH  20  21
ENDBRANCH   1  20
BRANCH   9  29
ATOM     29  O   UNL     1      -3.452  11.958  23.175  0.00  0.00    +0.000 OA
BRANCH  29  30
ATOM     30  C   UNL     1      -3.947  13.124  23.880  0.00  0.00    +0.000 C 
ATOM     31  C   UNL     1      -5.064  13.826  23.090  0.00  0.00    +0.000 C 
ATOM     32  C   UNL     1      -4.545  12.593  25.190  0.00  0.00    +0.000 C 
ATOM     33  C   UNL     1      -2.802  14.086  24.241  0.00  0.00    +0.000 C 
ENDBRANCH  29  30
ENDBRANCH   9  29
TORSDOF 7
ENDMDL
MODEL 2
REMARK VINA RESULT:      -7.1      0.501      1.178
REMARK  Name = 
REMARK  11 active torsions:
REMARK  status: ('A' for Active; 'I' for Inactive)
REMARK    1  A    between atoms: C_1  and  N_2
REMARK    2  A    between atoms: N_2  and  C_3
REMARK    3  A    between atoms: N_2  and  C_11
REMARK    4  A    between atoms: C_3  and  C_4
REMARK    5  A    between atoms: C_4  and  C_5
REMARK    6  A    between atoms: C_13  and  C_14
REMARK    7  A    between atoms: C_25  and  O_27
REMARK    8  A    between atoms: O_27  and  C_28
REMARK    9  A    between atoms: C_28  and  C_29
REMARK   10  A    between atoms: C_28  and  C_30
REMARK   11  A    between atoms: C_28  and  C_31
REMARK                            x       y       z     vdW  Elec       q    Type
REMARK                         _______ _______ _______ _____ _____    ______ ____
ROOT
ATOM      1  C   UNL     1       1.160  10.452  19.652  0.00  0.00    +0.000 A 
ATOM      2  N   UNL     1       1.796   9.326  19.276  0.00  0.00    +0.000 NA
ATOM      3  C   UNL     1       1.647   8.204  20.008  0.00  0.00    +0.000 A 
ATOM      4  N   UNL     1       0.951   8.135  21.153  0.00  0.00    +0.000 NA
ATOM      5  C   UNL     1       0.348   9.263  21.558  0.00  0.00    +0.000 A 
ATOM      6  C   UNL     1       0.403  10.446  20.825  0.00  0.00    +0.000 A 
ATOM      7  C   UNL     1      -0.381  11.636  21.269  0.00  0.00    +0.000 C 
ATOM      8  N   UNL     1      -1.338  11.370  22.323  0.00  0.00    +0.000 N 
ATOM      9  C   UNL     1      -2.490  12.105  22.293  0.00  0.00    +0.000 C 
ATOM     10  O   UNL     1      -2.721  12.914  21.394  0.00  0.00    +0.000 OA
ATOM     11  C   UNL     1      -0.876  10.496  23.388  0.00  0.00    +0.000 C 
ATOM     12  C   UNL     1      -0.505   9.141  22.800  0.00  0.00    +0.000 C 
ENDROOT
BRANCH   3  13
ATOM     13  C   UNL     1       2.219   6.948  19.487  0.00  0.00    +0.000 A 
ATOM     14  C   UNL     1       2.908   6.893  18.266  0.00  0.00    +0.000 A 
ATOM     15  C   UNL     1       3.426   5.682  17.830  0.00  0.00    +0.000 A 
ATOM     16  N   UNL     1       3.305   4.523  18.510  0.00  0.00    +0.000 NA
ATOM     17  C   UNL     1       2.633   4.578  19.676  0.00  0.00    +0.000 A 
ATOM     18  C   UNL     1       2.082   5.741  20.191  0.00  0.00    +0.000 A 
ENDBRANCH   3  13
BRANCH   1  20
ATOM     19  C   UNL     1       2.396  11.823  17.989  0.00  0.00    +0.000 C 
ATOM     20  N   UNL     1       1.189  11.542  18.774  0.00  0.00    +0.000 N 
BRANCH  20  21
ATOM     21  C   UNL     1      -0.083  11.956  18.132  0.00  0.00    +0.000 C 
BRANCH  21  22
ATOM     22  C   UNL     1      -0.920  10.756  17.671  0.00  0.00    +0.000 C 
BRANCH  22  23
ATOM     23  C   UNL     1      -2.380  11.037  17.422  0.00  0.00    +0.000 A 
ATOM     24  C   UNL     1      -3.147  11.492  18.496  0.00  0.00    +0.000 A 
ATOM     25  C   UNL     1      -4.502  11.735  18.308  0.00  0.00    +0.000 A 
ATOM     26  C   UNL     1      -5.057  11.519  17.054  0.00  0.00    +0.000 A 
ATOM     27  C   UNL     1      -4.228  11.066  16.040  0.00  0.00    +0.000 A 
ATOM     28  N   UNL     1      -2.905  10.822  16.194  0.00  0.00    +0.000 NA
ENDBRANCH  22  23
ENDBRANCH  21  22
ENDBRANCH  20  21
ENDBRANCH   1  20
BRANCH   9  29
ATOM     29  O   UNL     1      -3.337  11.863  23.325  0.00  0.00    +0.000 OA
BRANCH  29  30
ATOM     30  C   UNL     1      -4.034  13.000  23.893  0.00  0.00    +0.000 C 
ATOM     31  C   UNL     1      -5.156  13.493  22.964  0.00  0.00    +0.000 C 
ATOM     32  C   UNL     1      -4.674  12.488  25.191  0.00  0.00    +0.000 C 
ATOM     33  C   UNL     1      -3.054  14.127  24.264  0.00  0.00    +0.000 C 
ENDBRANCH  29  30
ENDBRANCH   9  29
TORSDOF 7
ENDMDL
MODEL 3
REMARK VINA RESULT:      -7.0      2.639      7.238
REMARK  Name = 
REMARK  11 active torsions:
REMARK  status: ('A' for Active; 'I' for Inactive)
REMARK    1  A    between atoms: C_1  and  N_2
REMARK    2  A    between atoms: N_2  and  C_3
REMARK    3  A    between atoms: N_2  and  C_11
REMARK    4  A    between atoms: C_3  and  C_4
REMARK    5  A    between atoms: C_4  and  C_5
REMARK    6  A    between atoms: C_13  and  C_14
REMARK    7  A    between atoms: C_25  and  O_27
REMARK    8  A    between atoms: O_27  and  C_28
REMARK    9  A    between atoms: C_28  and  C_29
REMARK   10  A    between atoms: C_28  and  C_30
REMARK   11  A    between atoms: C_28  and  C_31
REMARK                            x       y       z     vdW  Elec       q    Type
REMARK                         _______ _______ _______ _____ _____    ______ ____
ROOT
ATOM      1  C   UNL     1      -1.354  11.311  19.660  0.00  0.00    +0.000 A 
ATOM      2  N   UNL     1      -1.865  12.072  20.646  0.00  0.00    +0.000 NA
ATOM      3  C   UNL     1      -1.488  11.849  21.921  0.00  0.00    +0.000 A 
ATOM      4  N   UNL     1      -0.672  10.855  22.305  0.00  0.00    +0.000 NA
ATOM      5  C   UNL     1      -0.189  10.065  21.333  0.00  0.00    +0.000 A 
ATOM      6  C   UNL     1      -0.484  10.270  19.987  0.00  0.00    +0.000 A 
ATOM      7  C   UNL     1       0.172   9.427  18.944  0.00  0.00    +0.000 C 
ATOM      8  N   UNL     1       1.263   8.606  19.428  0.00  0.00    +0.000 N 
ATOM      9  C   UNL     1       2.294   8.394  18.556  0.00  0.00    +0.000 C 
ATOM     10  O   UNL     1       2.315   8.910  17.438  0.00  0.00    +0.000 OA
ATOM     11  C   UNL     1       1.040   7.953  20.707  0.00  0.00    +0.000 C 
ATOM     12  C   UNL     1       0.798   9.010  21.776  0.00  0.00    +0.000 C 
ENDROOT
BRANCH   3  13
ATOM     13  C   UNL     1      -1.934  12.798  22.959  0.00  0.00    +0.000 A 
ATOM     14  C   UNL     1      -1.126  13.858  23.396  0.00  0.00    +0.000 A 
ATOM     15  C   UNL     1      -1.602  14.719  24.374  0.00  0.00    +0.000 A 
ATOM     16  N   UNL     1      -2.815  14.602  24.953  0.00  0.00    +0.000 NA
ATOM     17  C   UNL     1      -3.583  13.576  24.538  0.00  0.00    +0.000 A 
ATOM     18  C   UNL     1      -3.193  12.667  23.568  0.00  0.00    +0.000 A 
ENDBRANCH   3  13
BRANCH   1  20
ATOM     19  C   UNL     1      -0.783  12.684  17.670  0.00  0.00    +0.000 C 
ATOM     20  N   UNL     1      -1.625  11.686  18.338  0.00  0.00    +0.000 N 
BRANCH  20  21
ATOM     21  C   UNL     1      -2.230  10.675  17.436  0.00  0.00    +0.000 C 
BRANCH  21  22
ATOM     22  C   UNL     1      -3.507  10.061  18.023  0.00  0.00    +0.000 C 
BRANCH  22  23
ATOM     23  C   UNL     1      -4.751  10.902  17.900  0.00  0.00    +0.000 A 
ATOM     24  C   UNL     1      -5.860  10.538  18.667  0.00  0.00    +0.000 A 
ATOM     25  C   UNL     1      -7.032  11.276  18.559  0.00  0.00    +0.000 A 
ATOM     26  C   UNL     1      -7.070  12.358  17.691  0.00  0.00    +0.000 A 
ATOM     27  C   UNL     1      -5.926  12.654  16.964  0.00  0.00    +0.000 A 
ATOM     28  N   UNL     1      -4.771  11.954  17.050  0.00  0.00    +0.000 NA
ENDBRANCH  22  23
ENDBRANCH  21  22
ENDBRANCH  20  21
ENDBRANCH   1  20
BRANCH   9  29
ATOM     29  O   UNL     1       3.270   7.579  19.028  0.00  0.00    +0.000 OA
BRANCH  29  30
ATOM     30  C   UNL     1       3.501   6.337  18.316  0.00  0.00    +0.000 C 
ATOM     31  C   UNL     1       4.382   6.556  17.075  0.00  0.00    +0.000 C 
ATOM     32  C   UNL     1       4.265   5.435  19.295  0.00  0.00    +0.000 C 
ATOM     33  C   UNL     1       2.175   5.638  17.969  0.00  0.00    +0.000 C 
ENDBRANCH  29  30
ENDBRANCH   9  29
TORSDOF 7
ENDMDL
MODEL 4
REMARK VINA RESULT:      -7.0      2.142      3.336
REMARK  Name = 
REMARK  11 active torsions:
REMARK  status: ('A' for Active; 'I' for Inactive)
REMARK    1  A    between atoms: C_1  and  N_2
REMARK    2  A    between atoms: N_2  and  C_3
REMARK    3  A    between atoms: N_2  and  C_11
REMARK    4  A    between atoms: C_3  and  C_4
REMARK    5  A    between atoms: C_4  and  C_5
REMARK    6  A    between atoms: C_13  and  C_14
REMARK    7  A    between atoms: C_25  and  O_27
REMARK    8  A    between atoms: O_27  and  C_28
REMARK    9  A    between atoms: C_28  and  C_29
REMARK   10  A    between atoms: C_28  and  C_30
REMARK   11  A    between atoms: C_28  and  C_31
REMARK                            x       y       z     vdW  Elec       q    Type
REMARK                         _______ _______ _______ _____ _____    ______ ____
ROOT
ATOM      1  C   UNL     1      -1.468  10.929  18.259  0.00  0.00    +0.000 A 
ATOM      2  N   UNL     1      -0.526   9.974  18.139  0.00  0.00    +0.000 NA
ATOM      3  C   UNL     1       0.500   9.940  19.013  0.00  0.00    +0.000 A 
ATOM      4  N   UNL     1       0.701  10.849  19.979  0.00  0.00    +0.000 NA
ATOM      5  C   UNL     1      -0.211  11.829  20.081  0.00  0.00    +0.000 A 
ATOM      6  C   UNL     1      -1.331  11.897  19.255  0.00  0.00    +0.000 A 
ATOM      7  C   UNL     1      -2.367  12.946  19.489  0.00  0.00    +0.000 C 
ATOM      8  N   UNL     1      -2.223  13.670  20.735  0.00  0.00    +0.000 N 
ATOM      9  C   UNL     1      -3.381  14.074  21.338  0.00  0.00    +0.000 C 
ATOM     10  O   UNL     1      -4.486  13.796  20.872  0.00  0.00    +0.000 OA
ATOM     11  C   UNL     1      -0.865  14.046  21.092  0.00  0.00    +0.000 C 
ATOM     12  C   UNL     1      -0.016  12.789  21.231  0.00  0.00    +0.000 C 
ENDROOT
BRANCH   3  13
ATOM     13  C   UNL     1       1.425   8.792  18.961  0.00  0.00    +0.000 A 
ATOM     14  C   UNL     1       1.565   7.898  20.033  0.00  0.00    +0.000 A 
ATOM     15  C   UNL     1       2.450   6.836  19.924  0.00  0.00    +0.000 A 
ATOM     16  N   UNL     1       3.210   6.598  18.834  0.00  0.00    +0.000 NA
ATOM     17  C   UNL     1       3.080   7.465  17.811  0.00  0.00    +0.000 A 
ATOM     18  C   UNL     1       2.223   8.554  17.830  0.00  0.00    +0.000 A 
ENDBRANCH   3  13
BRANCH   1  20
ATOM     19  C   UNL     1      -2.481  10.835  15.992  0.00  0.00    +0.000 C 
ATOM     20  N   UNL     1      -2.609  10.826  17.454  0.00  0.00    +0.000 N 
BRANCH  20  21
ATOM     21  C   UNL     1      -3.763  10.052  17.974  0.00  0.00    +0.000 C 
BRANCH  21  22
ATOM     22  C   UNL     1      -5.094  10.785  17.771  0.00  0.00    +0.000 C 
BRANCH  22  23
ATOM     23  C   UNL     1      -6.078  10.678  18.909  0.00  0.00    +0.000 A 
ATOM     24  C   UNL     1      -6.623   9.421  19.181  0.00  0.00    +0.000 A 
ATOM     25  C   UNL     1      -7.552   9.291  20.205  0.00  0.00    +0.000 A 
ATOM     26  C   UNL     1      -7.914  10.416  20.932  0.00  0.00    +0.000 A 
ATOM     27  C   UNL     1      -7.328  11.628  20.600  0.00  0.00    +0.000 A 
ATOM     28  N   UNL     1      -6.420  11.783  19.609  0.00  0.00    +0.000 NA
ENDBRANCH  22  23
ENDBRANCH  21  22
ENDBRANCH  20  21
ENDBRANCH   1  20
BRANCH   9  29
ATOM     29  O   UNL     1      -3.201  14.793  22.474  0.00  0.00    +0.000 OA
BRANCH  29  30
ATOM     30  C   UNL     1      -3.643  14.193  23.718  0.00  0.00    +0.000 C 
ATOM     31  C   UNL     1      -3.439  12.669  23.710  0.00  0.00    +0.000 C 
ATOM     32  C   UNL     1      -2.744  14.792  24.808  0.00  0.00    +0.000 C 
ATOM     33  C   UNL     1      -5.096  14.580  24.040  0.00  0.00    +0.000 C 
ENDBRANCH  29  30
ENDBRANCH   9  29
TORSDOF 7
ENDMDL
MODEL 5
REMARK VINA RESULT:      -6.9      0.508      1.133
REMARK  Name = 
REMARK  11 active torsions:
REMARK  status: ('A' for Active; 'I' for Inactive)
REMARK    1  A    between atoms: C_1  and  N_2
REMARK    2  A    between atoms: N_2  and  C_3
REMARK    3  A    between atoms: N_2  and  C_11
REMARK    4  A    between atoms: C_3  and  C_4
REMARK    5  A    between atoms: C_4  and  C_5
REMARK    6  A    between atoms: C_13  and  C_14
REMARK    7  A    between atoms: C_25  and  O_27
REMARK    8  A    between atoms: O_27  and  C_28
REMARK    9  A    between atoms: C_28  and  C_29
REMARK   10  A    between atoms: C_28  and  C_30
REMARK   11  A    between atoms: C_28  and  C_31
REMARK                            x       y       z     vdW  Elec       q    Type
REMARK                         _______ _______ _______ _____ _____    ______ ____
ROOT
ATOM      1  C   UNL     1       1.197  10.442  19.624  0.00  0.00    +0.000 A 
ATOM      2  N   UNL     1       1.829   9.312  19.250  0.00  0.00    +0.000 NA
ATOM      3  C   UNL     1       1.676   8.192  19.982  0.00  0.00    +0.000 A 
ATOM      4  N   UNL     1       0.980   8.126  21.127  0.00  0.00    +0.000 NA
ATOM      5  C   UNL     1       0.380   9.256  21.531  0.00  0.00    +0.000 A 
ATOM      6  C   UNL     1       0.439  10.438  20.796  0.00  0.00    +0.000 A 
ATOM      7  C   UNL     1      -0.341  11.632  21.239  0.00  0.00    +0.000 C 
ATOM      8  N   UNL     1      -1.300  11.370  22.293  0.00  0.00    +0.000 N 
ATOM      9  C   UNL     1      -2.449  12.108  22.262  0.00  0.00    +0.000 C 
ATOM     10  O   UNL     1      -2.676  12.918  21.363  0.00  0.00    +0.000 OA
ATOM     11  C   UNL     1      -0.841  10.495  23.359  0.00  0.00    +0.000 C 
ATOM     12  C   UNL     1      -0.474   9.138  22.772  0.00  0.00    +0.000 C 
ENDROOT
BRANCH   3  13
ATOM     13  C   UNL     1       2.244   6.933  19.462  0.00  0.00    +0.000 A 
ATOM     14  C   UNL     1       2.132   5.721  20.159  0.00  0.00    +0.000 A 
ATOM     15  C   UNL     1       2.685   4.570  19.617  0.00  0.00    +0.000 A 
ATOM     16  N   UNL     1       3.345   4.534  18.440  0.00  0.00    +0.000 NA
ATOM     17  C   UNL     1       3.459   5.702  17.780  0.00  0.00    +0.000 A 
ATOM     18  C   UNL     1       2.940   6.901  18.243  0.00  0.00    +0.000 A 
ENDBRANCH   3  13
BRANCH   1  20
ATOM     19  C   UNL     1       2.455  11.838  17.999  0.00  0.00    +0.000 C 
ATOM     20  N   UNL     1       1.230  11.531  18.745  0.00  0.00    +0.000 N 
BRANCH  20  21
ATOM     21  C   UNL     1      -0.030  11.914  18.060  0.00  0.00    +0.000 C 
BRANCH  21  22
ATOM     22  C   UNL     1      -0.863  10.694  17.649  0.00  0.00    +0.000 C 
BRANCH  22  23
ATOM     23  C   UNL     1      -2.315  10.969  17.347  0.00  0.00    +0.000 A 
ATOM     24  C   UNL     1      -3.132  11.378  18.403  0.00  0.00    +0.000 A 
ATOM     25  C   UNL     1      -4.481  11.614  18.165  0.00  0.00    +0.000 A 
ATOM     26  C   UNL     1      -4.980  11.436  16.883  0.00  0.00    +0.000 A 
ATOM     27  C   UNL     1      -4.103  11.027  15.889  0.00  0.00    +0.000 A 
ATOM     28  N   UNL     1      -2.785  10.791  16.092  0.00  0.00    +0.000 NA
ENDBRANCH  22  23
ENDBRANCH  21  22
ENDBRANCH  20  21
ENDBRANCH   1  20
BRANCH   9  29
ATOM     29  O   UNL     1      -3.297  11.871  23.294  0.00  0.00    +0.000 OA
BRANCH  29  30
ATOM     30  C   UNL     1      -3.859  13.022  23.971  0.00  0.00    +0.000 C 
ATOM     31  C   UNL     1      -2.797  14.108  24.210  0.00  0.00    +0.000 C 
ATOM     32  C   UNL     1      -4.919  13.588  23.015  0.00  0.00    +0.000 C 
ATOM     33  C   UNL     1      -4.570  12.613  25.272  0.00  0.00    +0.000 C 
ENDBRANCH  29  30
ENDBRANCH   9  29
TORSDOF 7
ENDMDL
MODEL 6
REMARK VINA RESULT:      -6.9      3.515      7.024
REMARK  Name = 
REMARK  11 active torsions:
REMARK  status: ('A' for Active; 'I' for Inactive)
REMARK    1  A    between atoms: C_1  and  N_2
REMARK    2  A    between atoms: N_2  and  C_3
REMARK    3  A    between atoms: N_2  and  C_11
REMARK    4  A    between atoms: C_3  and  C_4
REMARK    5  A    between atoms: C_4  and  C_5
REMARK    6  A    between atoms: C_13  and  C_14
REMARK    7  A    between atoms: C_25  and  O_27
REMARK    8  A    between atoms: O_27  and  C_28
REMARK    9  A    between atoms: C_28  and  C_29
REMARK   10  A    between atoms: C_28  and  C_30
REMARK   11  A    between atoms: C_28  and  C_31
REMARK                            x       y       z     vdW  Elec       q    Type
REMARK                         _______ _______ _______ _____ _____    ______ ____
ROOT
ATOM      1  C   UNL     1      -0.348  11.847  20.853  0.00  0.00    +0.000 A 
ATOM      2  N   UNL     1      -1.267  11.379  19.985  0.00  0.00    +0.000 NA
ATOM      3  C   UNL     1      -1.416  11.979  18.788  0.00  0.00    +0.000 A 
ATOM      4  N   UNL     1      -0.751  13.080  18.406  0.00  0.00    +0.000 NA
ATOM      5  C   UNL     1       0.137  13.579  19.280  0.00  0.00    +0.000 A 
ATOM      6  C   UNL     1       0.392  12.979  20.511  0.00  0.00    +0.000 A 
ATOM      7  C   UNL     1       1.471  13.517  21.393  0.00  0.00    +0.000 C 
ATOM      8  N   UNL     1       2.334  14.495  20.764  0.00  0.00    +0.000 N 
ATOM      9  C   UNL     1       3.641  14.497  21.166  0.00  0.00    +0.000 C 
ATOM     10  O   UNL     1       4.069  13.682  21.982  0.00  0.00    +0.000 OA
ATOM     11  C   UNL     1       1.667  15.478  19.927  0.00  0.00    +0.000 C 
ATOM     12  C   UNL     1       0.940  14.764  18.795  0.00  0.00    +0.000 C 
ENDROOT
BRANCH   3  13
ATOM     13  C   UNL     1      -2.309  11.349  17.796  0.00  0.00    +0.000 A 
ATOM     14  C   UNL     1      -1.865  10.342  16.928  0.00  0.00    +0.000 A 
ATOM     15  C   UNL     1      -2.753   9.786  16.018  0.00  0.00    +0.000 A 
ATOM     16  N   UNL     1      -4.044  10.160  15.902  0.00  0.00    +0.000 NA
ATOM     17  C   UNL     1      -4.463  11.136  16.732  0.00  0.00    +0.000 A 
ATOM     18  C   UNL     1      -3.649  11.749  17.671  0.00  0.00    +0.000 A 
ENDBRANCH   3  13
BRANCH   1  20
ATOM     19  C   UNL     1      -1.179  10.804  22.949  0.00  0.00    +0.000 C 
ATOM     20  N   UNL     1      -0.094  11.093  22.005  0.00  0.00    +0.000 N 
BRANCH  20  21
ATOM     21  C   UNL     1       0.971  10.062  21.944  0.00  0.00    +0.000 C 
BRANCH  21  22
ATOM     22  C   UNL     1       0.517   8.798  21.203  0.00  0.00    +0.000 C 
BRANCH  22  23
ATOM     23  C   UNL     1       1.366   8.391  20.026  0.00  0.00    +0.000 A 
ATOM     24  C   UNL     1       1.383   9.236  18.914  0.00  0.00    +0.000 A 
ATOM     25  C   UNL     1       2.135   8.878  17.801  0.00  0.00    +0.000 A 
ATOM     26  C   UNL     1       2.850   7.689  17.825  0.00  0.00    +0.000 A 
ATOM     27  C   UNL     1       2.780   6.906  18.968  0.00  0.00    +0.000 A 
ATOM     28  N   UNL     1       2.058   7.230  20.066  0.00  0.00    +0.000 NA
ENDBRANCH  22  23
ENDBRANCH  21  22
ENDBRANCH  20  21
ENDBRANCH   1  20
BRANCH   9  29
ATOM     29  O   UNL     1       4.403  15.461  20.592  0.00  0.00    +0.000 OA
BRANCH  29  30
ATOM     30  C   UNL     1       4.867  16.537  21.445  0.00  0.00    +0.000 C 
ATOM     31  C   UNL     1       3.918  16.761  22.634  0.00  0.00    +0.000 C 
ATOM     32  C   UNL     1       6.224  16.074  21.994  0.00  0.00    +0.000 C 
ATOM     33  C   UNL     1       5.100  17.827  20.640  0.00  0.00    +0.000 C 
ENDBRANCH  29  30
ENDBRANCH   9  29
TORSDOF 7
ENDMDL
MODEL 7
REMARK VINA RESULT:      -6.9      2.605      7.294
REMARK  Name = 
REMARK  11 active torsions:
REMARK  status: ('A' for Active; 'I' for Inactive)
REMARK    1  A    between atoms: C_1  and  N_2
REMARK    2  A    between atoms: N_2  and  C_3
REMARK    3  A    between atoms: N_2  and  C_11
REMARK    4  A    between atoms: C_3  and  C_4
REMARK    5  A    between atoms: C_4  and  C_5
REMARK    6  A    between atoms: C_13  and  C_14
REMARK    7  A    between atoms: C_25  and  O_27
REMARK    8  A    between atoms: O_27  and  C_28
REMARK    9  A    between atoms: C_28  and  C_29
REMARK   10  A    between atoms: C_28  and  C_30
REMARK   11  A    between atoms: C_28  and  C_31
REMARK                            x       y       z     vdW  Elec       q    Type
REMARK                         _______ _______ _______ _____ _____    ______ ____
ROOT
ATOM      1  C   UNL     1      -1.435  11.692  20.255  0.00  0.00    +0.000 A 
ATOM      2  N   UNL     1      -1.819  12.609  21.164  0.00  0.00    +0.000 NA
ATOM      3  C   UNL     1      -1.409  12.489  22.442  0.00  0.00    +0.000 A 
ATOM      4  N   UNL     1      -0.685  11.461  22.911  0.00  0.00    +0.000 NA
ATOM      5  C   UNL     1      -0.331  10.521  22.021  0.00  0.00    +0.000 A 
ATOM      6  C   UNL     1      -0.664  10.606  20.671  0.00  0.00    +0.000 A 
ATOM      7  C   UNL     1      -0.147   9.586  19.710  0.00  0.00    +0.000 C 
ATOM      8  N   UNL     1       0.874   8.711  20.249  0.00  0.00    +0.000 N 
ATOM      9  C   UNL     1       1.836   8.293  19.373  0.00  0.00    +0.000 C 
ATOM     10  O   UNL     1       1.860   8.676  18.204  0.00  0.00    +0.000 OA
ATOM     11  C   UNL     1       0.643   8.231  21.601  0.00  0.00    +0.000 C 
ATOM     12  C   UNL     1       0.560   9.421  22.549  0.00  0.00    +0.000 C 
ENDROOT
BRANCH   3  13
ATOM     13  C   UNL     1      -1.707  13.590  23.379  0.00  0.00    +0.000 A 
ATOM     14  C   UNL     1      -0.793  14.625  23.625  0.00  0.00    +0.000 A 
ATOM     15  C   UNL     1      -1.131  15.634  24.515  0.00  0.00    +0.000 A 
ATOM     16  N   UNL     1      -2.304  15.689  25.182  0.00  0.00    +0.000 NA
ATOM     17  C   UNL     1      -3.173  14.687  24.949  0.00  0.00    +0.000 A 
ATOM     18  C   UNL     1      -2.923  13.637  24.079  0.00  0.00    +0.000 A 
ENDBRANCH   3  13
BRANCH   1  20
ATOM     19  C   UNL     1      -0.743  12.632  18.062  0.00  0.00    +0.000 C 
ATOM     20  N   UNL     1      -1.725  11.945  18.909  0.00  0.00    +0.000 N 
BRANCH  20  21
ATOM     21  C   UNL     1      -2.608  10.992  18.194  0.00  0.00    +0.000 C 
BRANCH  21  22
ATOM     22  C   UNL     1      -3.919  11.644  17.736  0.00  0.00    +0.000 C 
BRANCH  22  23
ATOM     23  C   UNL     1      -5.070  11.543  18.703  0.00  0.00    +0.000 A 
ATOM     24  C   UNL     1      -5.137  12.481  19.735  0.00  0.00    +0.000 A 
ATOM     25  C   UNL     1      -6.170  12.402  20.660  0.00  0.00    +0.000 A 
ATOM     26  C   UNL     1      -7.110  11.389  20.534  0.00  0.00    +0.000 A 
ATOM     27  C   UNL     1      -6.974  10.496  19.482  0.00  0.00    +0.000 A 
ATOM     28  N   UNL     1      -5.979  10.551  18.566  0.00  0.00    +0.000 NA
ENDBRANCH  22  23
ENDBRANCH  21  22
ENDBRANCH  20  21
ENDBRANCH   1  20
BRANCH   9  29
ATOM     29  O   UNL     1       2.743   7.434  19.903  0.00  0.00    +0.000 OA
BRANCH  29  30
ATOM     30  C   UNL     1       2.665   6.047  19.489  0.00  0.00    +0.000 C 
ATOM     31  C   UNL     1       2.090   5.916  18.068  0.00  0.00    +0.000 C 
ATOM     32  C   UNL     1       4.114   5.539  19.470  0.00  0.00    +0.000 C 
ATOM     33  C   UNL     1       1.883   5.202  20.509  0.00  0.00    +0.000 C 
ENDBRANCH  29  30
ENDBRANCH   9  29
TORSDOF 7
ENDMDL
MODEL 8
REMARK VINA RESULT:      -6.8      3.143      7.273
REMARK  Name = 
REMARK  11 active torsions:
REMARK  status: ('A' for Active; 'I' for Inactive)
REMARK    1  A    between atoms: C_1  and  N_2
REMARK    2  A    between atoms: N_2  and  C_3
REMARK    3  A    between atoms: N_2  and  C_11
REMARK    4  A    between atoms: C_3  and  C_4
REMARK    5  A    between atoms: C_4  and  C_5
REMARK    6  A    between atoms: C_13  and  C_14
REMARK    7  A    between atoms: C_25  and  O_27
REMARK    8  A    between atoms: O_27  and  C_28
REMARK    9  A    between atoms: C_28  and  C_29
REMARK   10  A    between atoms: C_28  and  C_30
REMARK   11  A    between atoms: C_28  and  C_31
REMARK                            x       y       z     vdW  Elec       q    Type
REMARK                         _______ _______ _______ _____ _____    ______ ____
ROOT
ATOM      1  C   UNL     1      -0.178  11.500  20.652  0.00  0.00    +0.000 A 
ATOM      2  N   UNL     1      -1.107  11.069  19.777  0.00  0.00    +0.000 NA
ATOM      3  C   UNL     1      -1.430  11.839  18.718  0.00  0.00    +0.000 A 
ATOM      4  N   UNL     1      -0.936  13.066  18.497  0.00  0.00    +0.000 NA
ATOM      5  C   UNL     1      -0.040  13.522  19.386  0.00  0.00    +0.000 A 
ATOM      6  C   UNL     1       0.391  12.762  20.471  0.00  0.00    +0.000 A 
ATOM      7  C   UNL     1       1.472  13.279  21.361  0.00  0.00    +0.000 C 
ATOM      8  N   UNL     1       2.155  14.455  20.863  0.00  0.00    +0.000 N 
ATOM      9  C   UNL     1       3.482  14.560  21.172  0.00  0.00    +0.000 C 
ATOM     10  O   UNL     1       4.074  13.682  21.800  0.00  0.00    +0.000 OA
ATOM     11  C   UNL     1       1.306  15.469  20.261  0.00  0.00    +0.000 C 
ATOM     12  C   UNL     1       0.571  14.868  19.070  0.00  0.00    +0.000 C 
ENDROOT
BRANCH   3  13
ATOM     13  C   UNL     1      -2.326  11.274  17.691  0.00  0.00    +0.000 A 
ATOM     14  C   UNL     1      -3.656  11.698  17.548  0.00  0.00    +0.000 A 
ATOM     15  C   UNL     1      -4.449  11.131  16.560  0.00  0.00    +0.000 A 
ATOM     16  N   UNL     1      -4.023  10.173  15.711  0.00  0.00    +0.000 NA
ATOM     17  C   UNL     1      -2.749   9.762  15.859  0.00  0.00    +0.000 A 
ATOM     18  C   UNL     1      -1.884  10.269  16.816  0.00  0.00    +0.000 A 
ENDBRANCH   3  13
BRANCH   1  20
ATOM     19  C   UNL     1      -0.682  10.066  22.617  0.00  0.00    +0.000 C 
ATOM     20  N   UNL     1       0.263  10.602  21.631  0.00  0.00    +0.000 N 
BRANCH  20  21
ATOM     21  C   UNL     1       1.392   9.700  21.293  0.00  0.00    +0.000 C 
BRANCH  21  22
ATOM     22  C   UNL     1       1.031   8.222  21.476  0.00  0.00    +0.000 C 
BRANCH  22  23
ATOM     23  C   UNL     1       1.607   7.278  20.451  0.00  0.00    +0.000 A 
ATOM     24  C   UNL     1       2.115   7.829  19.273  0.00  0.00    +0.000 A 
ATOM     25  C   UNL     1       2.629   6.987  18.296  0.00  0.00    +0.000 A 
ATOM     26  C   UNL     1       2.624   5.617  18.517  0.00  0.00    +0.000 A 
ATOM     27  C   UNL     1       2.102   5.148  19.713  0.00  0.00    +0.000 A 
ATOM     28  N   UNL     1       1.595   5.946  20.682  0.00  0.00    +0.000 NA
ENDBRANCH  22  23
ENDBRANCH  21  22
ENDBRANCH  20  21
ENDBRANCH   1  20
BRANCH   9  29
ATOM     29  O   UNL     1       4.072  15.700  20.731  0.00  0.00    +0.000 OA
BRANCH  29  30
ATOM     30  C   UNL     1       5.010  15.580  19.632  0.00  0.00    +0.000 C 
ATOM     31  C   UNL     1       4.477  14.640  18.538  0.00  0.00    +0.000 C 
ATOM     32  C   UNL     1       5.132  16.990  19.037  0.00  0.00    +0.000 C 
ATOM     33  C   UNL     1       6.403  15.157  20.130  0.00  0.00    +0.000 C 
ENDBRANCH  29  30
ENDBRANCH   9  29
TORSDOF 7
ENDMDL
MODEL 9
REMARK VINA RESULT:      -6.8      2.592      7.279
REMARK  Name = 
REMARK  11 active torsions:
REMARK  status: ('A' for Active; 'I' for Inactive)
REMARK    1  A    between atoms: C_1  and  N_2
REMARK    2  A    between atoms: N_2  and  C_3
REMARK    3  A    between atoms: N_2  and  C_11
REMARK    4  A    between atoms: C_3  and  C_4
REMARK    5  A    between atoms: C_4  and  C_5
REMARK    6  A    between atoms: C_13  and  C_14
REMARK    7  A    between atoms: C_25  and  O_27
REMARK    8  A    between atoms: O_27  and  C_28
REMARK    9  A    between atoms: C_28  and  C_29
REMARK   10  A    between atoms: C_28  and  C_30
REMARK   11  A    between atoms: C_28  and  C_31
REMARK                            x       y       z     vdW  Elec       q    Type
REMARK                         _______ _______ _______ _____ _____    ______ ____
ROOT
ATOM      1  C   UNL     1      -1.427  11.803  20.295  0.00  0.00    +0.000 A 
ATOM      2  N   UNL     1      -1.808  12.729  21.197  0.00  0.00    +0.000 NA
ATOM      3  C   UNL     1      -1.421  12.603  22.482  0.00  0.00    +0.000 A 
ATOM      4  N   UNL     1      -0.725  11.562  22.963  0.00  0.00    +0.000 NA
ATOM      5  C   UNL     1      -0.376  10.613  22.081  0.00  0.00    +0.000 A 
ATOM      6  C   UNL     1      -0.685  10.703  20.725  0.00  0.00    +0.000 A 
ATOM      7  C   UNL     1      -0.173   9.671  19.775  0.00  0.00    +0.000 C 
ATOM      8  N   UNL     1       0.821   8.777  20.331  0.00  0.00    +0.000 N 
ATOM      9  C   UNL     1       1.789   8.338  19.472  0.00  0.00    +0.000 C 
ATOM     10  O   UNL     1       1.840   8.719  18.303  0.00  0.00    +0.000 OA
ATOM     11  C   UNL     1       0.559   8.304  21.680  0.00  0.00    +0.000 C 
ATOM     12  C   UNL     1       0.485   9.497  22.625  0.00  0.00    +0.000 C 
ENDROOT
BRANCH   3  13
ATOM     13  C   UNL     1      -1.712  13.711  23.411  0.00  0.00    +0.000 A 
ATOM     14  C   UNL     1      -0.779  14.724  23.678  0.00  0.00    +0.000 A 
ATOM     15  C   UNL     1      -1.112  15.742  24.561  0.00  0.00    +0.000 A 
ATOM     16  N   UNL     1      -2.296  15.825  25.201  0.00  0.00    +0.000 NA
ATOM     17  C   UNL     1      -3.185  14.844  24.950  0.00  0.00    +0.000 A 
ATOM     18  C   UNL     1      -2.942  13.789  24.085  0.00  0.00    +0.000 A 
ENDBRANCH   3  13
BRANCH   1  20
ATOM     19  C   UNL     1      -0.687  12.738  18.116  0.00  0.00    +0.000 C 
ATOM     20  N   UNL     1      -1.690  12.060  18.945  0.00  0.00    +0.000 N 
BRANCH  20  21
ATOM     21  C   UNL     1      -2.569  11.115  18.212  0.00  0.00    +0.000 C 
BRANCH  21  22
ATOM     22  C   UNL     1      -3.899  11.758  17.800  0.00  0.00    +0.000 C 
BRANCH  22  23
ATOM     23  C   UNL     1      -5.020  11.634  18.799  0.00  0.00    +0.000 A 
ATOM     24  C   UNL     1      -5.970  10.631  18.590  0.00  0.00    +0.000 A 
ATOM     25  C   UNL     1      -7.032  10.506  19.477  0.00  0.00    +0.000 A 
ATOM     26  C   UNL     1      -7.120  11.382  20.550  0.00  0.00    +0.000 A 
ATOM     27  C   UNL     1      -6.137  12.350  20.688  0.00  0.00    +0.000 A 
ATOM     28  N   UNL     1      -5.092  12.495  19.840  0.00  0.00    +0.000 NA
ENDBRANCH  22  23
ENDBRANCH  21  22
ENDBRANCH  20  21
ENDBRANCH   1  20
BRANCH   9  29
ATOM     29  O   UNL     1       2.670   7.462  20.018  0.00  0.00    +0.000 OA
BRANCH  29  30
ATOM     30  C   UNL     1       2.655   6.104  19.513  0.00  0.00    +0.000 C 
ATOM     31  C   UNL     1       4.066   5.492  19.503  0.00  0.00    +0.000 C 
ATOM     32  C   UNL     1       1.791   5.304  20.498  0.00  0.00    +0.000 C 
ATOM     33  C   UNL     1       1.984   6.029  18.130  0.00  0.00    +0.000 C 
ENDBRANCH  29  30
ENDBRANCH   9  29
TORSDOF 7
ENDMDL
