MODEL 1
REMARK VINA RESULT:      -9.4      0.000      0.000
REMARK  Name = 
REMARK  5 active torsions:
REMARK  status: ('A' for Active; 'I' for Inactive)
REMARK    1  A    between atoms: C_1  and  C_2
REMARK    2  A    between atoms: N_5  and  C_6
REMARK    3  A    between atoms: C_13  and  O_14
REMARK    4  A    between atoms: C_18  and  C_19
REMARK    5  A    between atoms: C_22  and  C_23
REMARK                            x       y       z     vdW  Elec       q    Type
REMARK                         _______ _______ _______ _____ _____    ______ ____
ROOT
ATOM      1  C   UNL     1       1.480   9.968  18.115  0.00  0.00    +0.000 C 
ATOM      2  C   UNL     1       1.425   9.022  19.249  0.00  0.00    +0.000 A 
ATOM      3  N   UNL     1       1.840   7.722  19.083  0.00  0.00    +0.000 NA
ATOM      4  C   UNL     1       1.733   7.184  20.277  0.00  0.00    +0.000 A 
ATOM      5  N   UNL     1       2.034   5.944  20.701  0.00  0.00    +0.000 N 
ATOM      6  O   UNL     1       1.265   8.045  21.232  0.00  0.00    +0.000 OA
ATOM      7  C   UNL     1       1.023   9.217  20.556  0.00  0.00    +0.000 A 
ATOM      8  H   UNL     1       1.956   5.767  21.693  0.00  0.00    +0.000 HD
ENDROOT
BRANCH   5   9
ATOM      9  C   UNL     1       2.063   4.782  19.899  0.00  0.00    +0.000 A 
ATOM     10  C   UNL     1       1.004   3.860  19.923  0.00  0.00    +0.000 A 
ATOM     11  C   UNL     1       1.012   2.720  19.121  0.00  0.00    +0.000 A 
ATOM     12  C   UNL     1       2.070   2.496  18.250  0.00  0.00    +0.000 A 
ATOM     13  C   UNL     1       3.131   3.409  18.171  0.00  0.00    +0.000 A 
ATOM     14  C   UNL     1       3.148   4.544  19.019  0.00  0.00    +0.000 A 
ATOM     15  C   UNL     1       4.277   5.554  18.912  0.00  0.00    +0.000 C 
ATOM     16  C   UNL     1       5.529   5.015  18.214  0.00  0.00    +0.000 C 
ATOM     17  C   UNL     1       5.164   4.291  16.926  0.00  0.00    +0.000 C 
ATOM     18  C   UNL     1       4.248   3.104  17.201  0.00  0.00    +0.000 C 
BRANCH  16  19
ATOM     19  O   UNL     1       6.260   4.148  19.086  0.00  0.00    +0.000 OA
ATOM     20  H   UNL     1       5.765   3.313  19.167  0.00  0.00    +0.000 HD
ENDBRANCH  16  19
ENDBRANCH   5   9
BRANCH   7  21
ATOM     21  C   UNL     1       0.403  10.293  21.318  0.00  0.00    +0.000 A 
ATOM     22  C   UNL     1      -0.459  10.020  22.389  0.00  0.00    +0.000 A 
ATOM     23  C   UNL     1      -1.119  11.053  23.062  0.00  0.00    +0.000 A 
ATOM     24  C   UNL     1      -0.939  12.388  22.675  0.00  0.00    +0.000 A 
ATOM     25  C   UNL     1      -0.045  12.670  21.633  0.00  0.00    +0.000 A 
ATOM     26  C   UNL     1       0.615  11.633  20.964  0.00  0.00    +0.000 A 
BRANCH  24  27
ATOM     27  C   UNL     1      -1.713  13.509  23.326  0.00  0.00    +0.000 C 
ATOM     28  F   UNL     1      -2.148  14.454  22.447  0.00  0.00    +0.000 F 
ATOM     29  F   UNL     1      -2.821  13.071  23.985  0.00  0.00    +0.000 F 
ATOM     30  F   UNL     1      -0.970  14.179  24.251  0.00  0.00    +0.000 F 
ENDBRANCH  24  27
ENDBRANCH   7  21
TORSDOF 4
ENDMDL
MODEL 2
REMARK VINA RESULT:      -9.2      0.848      1.135
REMARK  Name = 
REMARK  5 active torsions:
REMARK  status: ('A' for Active; 'I' for Inactive)
REMARK    1  A    between atoms: C_1  and  C_2
REMARK    2  A    between atoms: N_5  and  C_6
REMARK    3  A    between atoms: C_13  and  O_14
REMARK    4  A    between atoms: C_18  and  C_19
REMARK    5  A    between atoms: C_22  and  C_23
REMARK                            x       y       z     vdW  Elec       q    Type
REMARK                         _______ _______ _______ _____ _____    ______ ____
ROOT
ATOM      1  C   UNL     1       1.572  10.017  17.850  0.00  0.00    +0.000 C 
ATOM      2  C   UNL     1       1.587   8.979  18.901  0.00  0.00    +0.000 A 
ATOM      3  N   UNL     1       2.162   7.755  18.653  0.00  0.00    +0.000 NA
ATOM      4  C   UNL     1       2.074   7.110  19.794  0.00  0.00    +0.000 A 
ATOM      5  N   UNL     1       2.505   5.883  20.134  0.00  0.00    +0.000 N 
ATOM      6  O   UNL     1       1.466   7.826  20.790  0.00  0.00    +0.000 OA
ATOM      7  C   UNL     1       1.111   9.014  20.198  0.00  0.00    +0.000 A 
ATOM      8  H   UNL     1       2.410   5.614  21.103  0.00  0.00    +0.000 HD
ENDROOT
BRANCH   5   9
ATOM      9  C   UNL     1       2.707   4.804  19.244  0.00  0.00    +0.000 A 
ATOM     10  C   UNL     1       1.721   3.819  19.066  0.00  0.00    +0.000 A 
ATOM     11  C   UNL     1       1.901   2.761  18.177  0.00  0.00    +0.000 A 
ATOM     12  C   UNL     1       3.062   2.686  17.419  0.00  0.00    +0.000 A 
ATOM     13  C   UNL     1       4.057   3.665  17.544  0.00  0.00    +0.000 A 
ATOM     14  C   UNL     1       3.898   4.716  18.481  0.00  0.00    +0.000 A 
ATOM     15  C   UNL     1       4.956   5.799  18.593  0.00  0.00    +0.000 C 
ATOM     16  C   UNL     1       6.314   5.405  18.004  0.00  0.00    +0.000 C 
ATOM     17  C   UNL     1       6.147   4.782  16.625  0.00  0.00    +0.000 C 
ATOM     18  C   UNL     1       5.294   3.521  16.689  0.00  0.00    +0.000 C 
BRANCH  16  19
ATOM     19  O   UNL     1       7.003   4.509  18.879  0.00  0.00    +0.000 OA
ATOM     20  H   UNL     1       6.830   3.599  18.577  0.00  0.00    +0.000 HD
ENDBRANCH  16  19
ENDBRANCH   5   9
BRANCH   7  21
ATOM     21  C   UNL     1       0.336   9.942  21.011  0.00  0.00    +0.000 A 
ATOM     22  C   UNL     1      -0.074   9.601  22.307  0.00  0.00    +0.000 A 
ATOM     23  C   UNL     1      -0.891  10.458  23.051  0.00  0.00    +0.000 A 
ATOM     24  C   UNL     1      -1.326  11.677  22.513  0.00  0.00    +0.000 A 
ATOM     25  C   UNL     1      -0.884  12.042  21.234  0.00  0.00    +0.000 A 
ATOM     26  C   UNL     1      -0.065  11.182  20.494  0.00  0.00    +0.000 A 
BRANCH  24  27
ATOM     27  C   UNL     1      -2.283  12.574  23.262  0.00  0.00    +0.000 C 
ATOM     28  F   UNL     1      -1.664  13.465  24.085  0.00  0.00    +0.000 F 
ATOM     29  F   UNL     1      -3.070  13.313  22.432  0.00  0.00    +0.000 F 
ATOM     30  F   UNL     1      -3.137  11.868  24.056  0.00  0.00    +0.000 F 
ENDBRANCH  24  27
ENDBRANCH   7  21
TORSDOF 4
ENDMDL
MODEL 3
REMARK VINA RESULT:      -8.8      0.297      1.182
REMARK  Name = 
REMARK  5 active torsions:
REMARK  status: ('A' for Active; 'I' for Inactive)
REMARK    1  A    between atoms: C_1  and  C_2
REMARK    2  A    between atoms: N_5  and  C_6
REMARK    3  A    between atoms: C_13  and  O_14
REMARK    4  A    between atoms: C_18  and  C_19
REMARK    5  A    between atoms: C_22  and  C_23
REMARK                            x       y       z     vdW  Elec       q    Type
REMARK                         _______ _______ _______ _____ _____    ______ ____
ROOT
ATOM      1  C   UNL     1       1.483   9.967  18.076  0.00  0.00    +0.000 C 
ATOM      2  C   UNL     1       1.356   9.059  19.234  0.00  0.00    +0.000 A 
ATOM      3  N   UNL     1       1.821   7.767  19.152  0.00  0.00    +0.000 NA
ATOM      4  C   UNL     1       1.627   7.267  20.351  0.00  0.00    +0.000 A 
ATOM      5  N   UNL     1       1.924   6.052  20.844  0.00  0.00    +0.000 N 
ATOM      6  O   UNL     1       1.053   8.144  21.231  0.00  0.00    +0.000 OA
ATOM      7  C   UNL     1       0.837   9.285  20.495  0.00  0.00    +0.000 A 
ATOM      8  H   UNL     1       1.766   5.906  21.831  0.00  0.00    +0.000 HD
ENDROOT
BRANCH   5   9
ATOM      9  C   UNL     1       2.056   4.865  20.090  0.00  0.00    +0.000 A 
ATOM     10  C   UNL     1       1.052   3.882  20.108  0.00  0.00    +0.000 A 
ATOM     11  C   UNL     1       1.162   2.716  19.352  0.00  0.00    +0.000 A 
ATOM     12  C   UNL     1       2.267   2.525  18.533  0.00  0.00    +0.000 A 
ATOM     13  C   UNL     1       3.276   3.496  18.462  0.00  0.00    +0.000 A 
ATOM     14  C   UNL     1       3.189   4.661  19.265  0.00  0.00    +0.000 A 
ATOM     15  C   UNL     1       4.261   5.732  19.164  0.00  0.00    +0.000 C 
ATOM     16  C   UNL     1       5.571   5.244  18.539  0.00  0.00    +0.000 C 
ATOM     17  C   UNL     1       5.305   4.452  17.267  0.00  0.00    +0.000 C 
ATOM     18  C   UNL     1       4.449   3.224  17.550  0.00  0.00    +0.000 C 
BRANCH  16  19
ATOM     19  O   UNL     1       6.313   4.456  19.474  0.00  0.00    +0.000 OA
ATOM     20  H   UNL     1       5.694   3.845  19.912  0.00  0.00    +0.000 HD
ENDBRANCH  16  19
ENDBRANCH   5   9
BRANCH   7  21
ATOM     21  C   UNL     1       0.124  10.366  21.162  0.00  0.00    +0.000 A 
ATOM     22  C   UNL     1       0.131  11.668  20.644  0.00  0.00    +0.000 A 
ATOM     23  C   UNL     1      -0.482  12.719  21.333  0.00  0.00    +0.000 A 
ATOM     24  C   UNL     1      -1.112  12.496  22.565  0.00  0.00    +0.000 A 
ATOM     25  C   UNL     1      -1.160  11.188  23.066  0.00  0.00    +0.000 A 
ATOM     26  C   UNL     1      -0.547  10.139  22.373  0.00  0.00    +0.000 A 
BRANCH  24  27
ATOM     27  C   UNL     1      -1.698  13.632  23.369  0.00  0.00    +0.000 C 
ATOM     28  F   UNL     1      -2.793  13.276  24.097  0.00  0.00    +0.000 F 
ATOM     29  F   UNL     1      -0.812  14.160  24.256  0.00  0.00    +0.000 F 
ATOM     30  F   UNL     1      -2.100  14.668  22.580  0.00  0.00    +0.000 F 
ENDBRANCH  24  27
ENDBRANCH   7  21
TORSDOF 4
ENDMDL
MODEL 4
REMARK VINA RESULT:      -8.8      0.996      1.446
REMARK  Name = 
REMARK  5 active torsions:
REMARK  status: ('A' for Active; 'I' for Inactive)
REMARK    1  A    between atoms: C_1  and  C_2
REMARK    2  A    between atoms: N_5  and  C_6
REMARK    3  A    between atoms: C_13  and  O_14
REMARK    4  A    between atoms: C_18  and  C_19
REMARK    5  A    between atoms: C_22  and  C_23
REMARK                            x       y       z     vdW  Elec       q    Type
REMARK                         _______ _______ _______ _____ _____    ______ ____
ROOT
ATOM      1  C   UNL     1       1.718   9.998  17.821  0.00  0.00    +0.000 C 
ATOM      2  C   UNL     1       1.696   8.939  18.850  0.00  0.00    +0.000 A 
ATOM      3  N   UNL     1       2.366   7.757  18.637  0.00  0.00    +0.000 NA
ATOM      4  C   UNL     1       2.210   7.082  19.753  0.00  0.00    +0.000 A 
ATOM      5  N   UNL     1       2.681   5.874  20.111  0.00  0.00    +0.000 N 
ATOM      6  O   UNL     1       1.469   7.738  20.699  0.00  0.00    +0.000 OA
ATOM      7  C   UNL     1       1.100   8.917  20.097  0.00  0.00    +0.000 A 
ATOM      8  H   UNL     1       2.511   5.579  21.062  0.00  0.00    +0.000 HD
ENDROOT
BRANCH   5   9
ATOM      9  C   UNL     1       3.031   4.830  19.226  0.00  0.00    +0.000 A 
ATOM     10  C   UNL     1       2.137   3.780  18.958  0.00  0.00    +0.000 A 
ATOM     11  C   UNL     1       2.463   2.755  18.072  0.00  0.00    +0.000 A 
ATOM     12  C   UNL     1       3.682   2.778  17.408  0.00  0.00    +0.000 A 
ATOM     13  C   UNL     1       4.589   3.825  17.623  0.00  0.00    +0.000 A 
ATOM     14  C   UNL     1       4.280   4.843  18.559  0.00  0.00    +0.000 A 
ATOM     15  C   UNL     1       5.243   5.999  18.768  0.00  0.00    +0.000 C 
ATOM     16  C   UNL     1       6.668   5.716  18.282  0.00  0.00    +0.000 C 
ATOM     17  C   UNL     1       6.656   5.109  16.886  0.00  0.00    +0.000 C 
ATOM     18  C   UNL     1       5.896   3.788  16.866  0.00  0.00    +0.000 C 
BRANCH  16  19
ATOM     19  O   UNL     1       7.352   4.856  19.197  0.00  0.00    +0.000 OA
ATOM     20  H   UNL     1       6.985   5.009  20.087  0.00  0.00    +0.000 HD
ENDBRANCH  16  19
ENDBRANCH   5   9
BRANCH   7  21
ATOM     21  C   UNL     1       0.197   9.778  20.848  0.00  0.00    +0.000 A 
ATOM     22  C   UNL     1      -0.446  10.863  20.237  0.00  0.00    +0.000 A 
ATOM     23  C   UNL     1      -1.243  11.738  20.982  0.00  0.00    +0.000 A 
ATOM     24  C   UNL     1      -1.412  11.554  22.361  0.00  0.00    +0.000 A 
ATOM     25  C   UNL     1      -0.806  10.446  22.969  0.00  0.00    +0.000 A 
ATOM     26  C   UNL     1      -0.011   9.571  22.220  0.00  0.00    +0.000 A 
BRANCH  24  27
ATOM     27  C   UNL     1      -2.191  12.539  23.199  0.00  0.00    +0.000 C 
ATOM     28  F   UNL     1      -2.904  13.436  22.463  0.00  0.00    +0.000 F 
ATOM     29  F   UNL     1      -3.088  11.933  24.025  0.00  0.00    +0.000 F 
ATOM     30  F   UNL     1      -1.383  13.282  24.007  0.00  0.00    +0.000 F 
ENDBRANCH  24  27
ENDBRANCH   7  21
TORSDOF 4
ENDMDL
MODEL 5
REMARK VINA RESULT:      -8.8      1.648      2.684
REMARK  Name = 
REMARK  5 active torsions:
REMARK  status: ('A' for Active; 'I' for Inactive)
REMARK    1  A    between atoms: C_1  and  C_2
REMARK    2  A    between atoms: N_5  and  C_6
REMARK    3  A    between atoms: C_13  and  O_14
REMARK    4  A    between atoms: C_18  and  C_19
REMARK    5  A    between atoms: C_22  and  C_23
REMARK                            x       y       z     vdW  Elec       q    Type
REMARK                         _______ _______ _______ _____ _____    ______ ____
ROOT
ATOM      1  C   UNL     1       1.256  11.070  18.116  0.00  0.00    +0.000 C 
ATOM      2  C   UNL     1       1.285   9.916  19.037  0.00  0.00    +0.000 A 
ATOM      3  N   UNL     1       2.052   8.815  18.739  0.00  0.00    +0.000 NA
ATOM      4  C   UNL     1       1.914   8.023  19.779  0.00  0.00    +0.000 A 
ATOM      5  N   UNL     1       2.467   6.825  20.038  0.00  0.00    +0.000 N 
ATOM      6  O   UNL     1       1.094   8.524  20.753  0.00  0.00    +0.000 OA
ATOM      7  C   UNL     1       0.653   9.726  20.252  0.00  0.00    +0.000 A 
ATOM      8  H   UNL     1       2.291   6.425  20.948  0.00  0.00    +0.000 HD
ENDROOT
BRANCH   5   9
ATOM      9  C   UNL     1       2.927   5.902  19.071  0.00  0.00    +0.000 A 
ATOM     10  C   UNL     1       3.798   6.303  18.045  0.00  0.00    +0.000 A 
ATOM     11  C   UNL     1       4.274   5.398  17.099  0.00  0.00    +0.000 A 
ATOM     12  C   UNL     1       3.912   4.060  17.180  0.00  0.00    +0.000 A 
ATOM     13  C   UNL     1       3.070   3.612  18.208  0.00  0.00    +0.000 A 
ATOM     14  C   UNL     1       2.547   4.539  19.143  0.00  0.00    +0.000 A 
ATOM     15  C   UNL     1       1.664   4.053  20.279  0.00  0.00    +0.000 C 
ATOM     16  C   UNL     1       1.049   2.670  20.041  0.00  0.00    +0.000 C 
ATOM     17  C   UNL     1       2.101   1.685  19.553  0.00  0.00    +0.000 C 
ATOM     18  C   UNL     1       2.717   2.143  18.236  0.00  0.00    +0.000 C 
BRANCH  16  19
ATOM     19  O   UNL     1      -0.032   2.753  19.109  0.00  0.00    +0.000 OA
ATOM     20  H   UNL     1       0.182   3.446  18.459  0.00  0.00    +0.000 HD
ENDBRANCH  16  19
ENDBRANCH   5   9
BRANCH   7  21
ATOM     21  C   UNL     1      -0.339  10.438  21.046  0.00  0.00    +0.000 A 
ATOM     22  C   UNL     1      -1.168  11.410  20.469  0.00  0.00    +0.000 A 
ATOM     23  C   UNL     1      -2.058  12.153  21.252  0.00  0.00    +0.000 A 
ATOM     24  C   UNL     1      -2.136  11.947  22.636  0.00  0.00    +0.000 A 
ATOM     25  C   UNL     1      -1.340  10.947  23.211  0.00  0.00    +0.000 A 
ATOM     26  C   UNL     1      -0.453  10.205  22.424  0.00  0.00    +0.000 A 
BRANCH  24  27
ATOM     27  C   UNL     1      -3.021  12.800  23.512  0.00  0.00    +0.000 C 
ATOM     28  F   UNL     1      -3.966  13.496  22.819  0.00  0.00    +0.000 F 
ATOM     29  F   UNL     1      -3.697  12.074  24.444  0.00  0.00    +0.000 F 
ATOM     30  F   UNL     1      -2.312  13.733  24.208  0.00  0.00    +0.000 F 
ENDBRANCH  24  27
ENDBRANCH   7  21
TORSDOF 4
ENDMDL
MODEL 6
REMARK VINA RESULT:      -8.7      1.703      2.746
REMARK  Name = 
REMARK  5 active torsions:
REMARK  status: ('A' for Active; 'I' for Inactive)
REMARK    1  A    between atoms: C_1  and  C_2
REMARK    2  A    between atoms: N_5  and  C_6
REMARK    3  A    between atoms: C_13  and  O_14
REMARK    4  A    between atoms: C_18  and  C_19
REMARK    5  A    between atoms: C_22  and  C_23
REMARK                            x       y       z     vdW  Elec       q    Type
REMARK                         _______ _______ _______ _____ _____    ______ ____
ROOT
ATOM      1  C   UNL     1       0.768  10.891  17.908  0.00  0.00    +0.000 C 
ATOM      2  C   UNL     1       1.027   9.862  18.936  0.00  0.00    +0.000 A 
ATOM      3  N   UNL     1       1.818   8.777  18.642  0.00  0.00    +0.000 NA
ATOM      4  C   UNL     1       1.904   8.113  19.772  0.00  0.00    +0.000 A 
ATOM      5  N   UNL     1       2.578   6.988  20.069  0.00  0.00    +0.000 N 
ATOM      6  O   UNL     1       1.211   8.684  20.805  0.00  0.00    +0.000 OA
ATOM      7  C   UNL     1       0.608   9.788  20.251  0.00  0.00    +0.000 A 
ATOM      8  H   UNL     1       2.577   6.694  21.035  0.00  0.00    +0.000 HD
ENDROOT
BRANCH   5   9
ATOM      9  C   UNL     1       2.948   5.980  19.150  0.00  0.00    +0.000 A 
ATOM     10  C   UNL     1       3.762   6.275  18.043  0.00  0.00    +0.000 A 
ATOM     11  C   UNL     1       4.150   5.285  17.141  0.00  0.00    +0.000 A 
ATOM     12  C   UNL     1       3.758   3.969  17.349  0.00  0.00    +0.000 A 
ATOM     13  C   UNL     1       2.972   3.628  18.459  0.00  0.00    +0.000 A 
ATOM     14  C   UNL     1       2.537   4.640  19.351  0.00  0.00    +0.000 A 
ATOM     15  C   UNL     1       1.717   4.270  20.575  0.00  0.00    +0.000 C 
ATOM     16  C   UNL     1       1.051   2.893  20.484  0.00  0.00    +0.000 C 
ATOM     17  C   UNL     1       2.042   1.841  20.008  0.00  0.00    +0.000 C 
ATOM     18  C   UNL     1       2.583   2.178  18.624  0.00  0.00    +0.000 C 
BRANCH  16  19
ATOM     19  O   UNL     1      -0.086   2.939  19.619  0.00  0.00    +0.000 OA
ATOM     20  H   UNL     1       0.222   3.186  18.728  0.00  0.00    +0.000 HD
ENDBRANCH  16  19
ENDBRANCH   5   9
BRANCH   7  21
ATOM     21  C   UNL     1      -0.297  10.536  21.113  0.00  0.00    +0.000 A 
ATOM     22  C   UNL     1      -0.444  10.211  22.468  0.00  0.00    +0.000 A 
ATOM     23  C   UNL     1      -1.377  10.875  23.270  0.00  0.00    +0.000 A 
ATOM     24  C   UNL     1      -2.196  11.878  22.733  0.00  0.00    +0.000 A 
ATOM     25  C   UNL     1      -2.024  12.236  21.390  0.00  0.00    +0.000 A 
ATOM     26  C   UNL     1      -1.087  11.571  20.591  0.00  0.00    +0.000 A 
BRANCH  24  27
ATOM     27  C   UNL     1      -3.274  12.541  23.557  0.00  0.00    +0.000 C 
ATOM     28  F   UNL     1      -3.762  11.751  24.554  0.00  0.00    +0.000 F 
ATOM     29  F   UNL     1      -2.846  13.685  24.159  0.00  0.00    +0.000 F 
ATOM     30  F   UNL     1      -4.353  12.896  22.805  0.00  0.00    +0.000 F 
ENDBRANCH  24  27
ENDBRANCH   7  21
TORSDOF 4
ENDMDL
MODEL 7
REMARK VINA RESULT:      -8.6      5.651      9.491
REMARK  Name = 
REMARK  5 active torsions:
REMARK  status: ('A' for Active; 'I' for Inactive)
REMARK    1  A    between atoms: C_1  and  C_2
REMARK    2  A    between atoms: N_5  and  C_6
REMARK    3  A    between atoms: C_13  and  O_14
REMARK    4  A    between atoms: C_18  and  C_19
REMARK    5  A    between atoms: C_22  and  C_23
REMARK                            x       y       z     vdW  Elec       q    Type
REMARK                         _______ _______ _______ _____ _____    ______ ____
ROOT
ATOM      1  C   UNL     1       1.782   5.946  20.862  0.00  0.00    +0.000 C 
ATOM      2  C   UNL     1       1.859   7.149  20.008  0.00  0.00    +0.000 A 
ATOM      3  N   UNL     1       1.192   8.295  20.371  0.00  0.00    +0.000 NA
ATOM      4  C   UNL     1       1.525   9.176  19.455  0.00  0.00    +0.000 A 
ATOM      5  N   UNL     1       1.187  10.472  19.333  0.00  0.00    +0.000 N 
ATOM      6  O   UNL     1       2.370   8.687  18.496  0.00  0.00    +0.000 OA
ATOM      7  C   UNL     1       2.547   7.365  18.829  0.00  0.00    +0.000 A 
ATOM      8  H   UNL     1       1.632  10.994  18.591  0.00  0.00    +0.000 HD
ENDROOT
BRANCH   5   9
ATOM      9  C   UNL     1       0.020  11.073  19.855  0.00  0.00    +0.000 A 
ATOM     10  C   UNL     1       0.026  11.684  21.120  0.00  0.00    +0.000 A 
ATOM     11  C   UNL     1      -1.114  12.298  21.637  0.00  0.00    +0.000 A 
ATOM     12  C   UNL     1      -2.277  12.343  20.881  0.00  0.00    +0.000 A 
ATOM     13  C   UNL     1      -2.316  11.773  19.600  0.00  0.00    +0.000 A 
ATOM     14  C   UNL     1      -1.173  11.107  19.092  0.00  0.00    +0.000 A 
ATOM     15  C   UNL     1      -1.198  10.521  17.691  0.00  0.00    +0.000 C 
ATOM     16  C   UNL     1      -2.608  10.304  17.133  0.00  0.00    +0.000 C 
ATOM     17  C   UNL     1      -3.473  11.537  17.350  0.00  0.00    +0.000 C 
ATOM     18  C   UNL     1      -3.614  11.859  18.833  0.00  0.00    +0.000 C 
BRANCH  16  19
ATOM     19  O   UNL     1      -3.215   9.155  17.728  0.00  0.00    +0.000 OA
ATOM     20  H   UNL     1      -4.001   9.450  18.222  0.00  0.00    +0.000 HD
ENDBRANCH  16  19
ENDBRANCH   5   9
BRANCH   7  21
ATOM     21  C   UNL     1       3.327   6.558  17.901  0.00  0.00    +0.000 A 
ATOM     22  C   UNL     1       3.194   5.163  17.865  0.00  0.00    +0.000 A 
ATOM     23  C   UNL     1       4.006   4.385  17.034  0.00  0.00    +0.000 A 
ATOM     24  C   UNL     1       4.980   4.983  16.222  0.00  0.00    +0.000 A 
ATOM     25  C   UNL     1       5.088   6.380  16.223  0.00  0.00    +0.000 A 
ATOM     26  C   UNL     1       4.272   7.155  17.054  0.00  0.00    +0.000 A 
BRANCH  24  27
ATOM     27  C   UNL     1       5.929   4.156  15.389  0.00  0.00    +0.000 C 
ATOM     28  F   UNL     1       5.723   4.275  14.047  0.00  0.00    +0.000 F 
ATOM     29  F   UNL     1       7.234   4.481  15.599  0.00  0.00    +0.000 F 
ATOM     30  F   UNL     1       5.828   2.824  15.661  0.00  0.00    +0.000 F 
ENDBRANCH  24  27
ENDBRANCH   7  21
TORSDOF 4
ENDMDL
MODEL 8
REMARK VINA RESULT:      -8.6      1.916      2.955
REMARK  Name = 
REMARK  5 active torsions:
REMARK  status: ('A' for Active; 'I' for Inactive)
REMARK    1  A    between atoms: C_1  and  C_2
REMARK    2  A    between atoms: N_5  and  C_6
REMARK    3  A    between atoms: C_13  and  O_14
REMARK    4  A    between atoms: C_18  and  C_19
REMARK    5  A    between atoms: C_22  and  C_23
REMARK                            x       y       z     vdW  Elec       q    Type
REMARK                         _______ _______ _______ _____ _____    ______ ____
ROOT
ATOM      1  C   UNL     1       0.951  11.951  18.575  0.00  0.00    +0.000 C 
ATOM      2  C   UNL     1       0.884  10.760  19.448  0.00  0.00    +0.000 A 
ATOM      3  N   UNL     1       1.662   9.660  19.174  0.00  0.00    +0.000 NA
ATOM      4  C   UNL     1       1.422   8.830  20.164  0.00  0.00    +0.000 A 
ATOM      5  N   UNL     1       1.936   7.614  20.421  0.00  0.00    +0.000 N 
ATOM      6  O   UNL     1       0.525   9.305  21.081  0.00  0.00    +0.000 OA
ATOM      7  C   UNL     1       0.144  10.533  20.593  0.00  0.00    +0.000 A 
ATOM      8  H   UNL     1       1.674   7.181  21.296  0.00  0.00    +0.000 HD
ENDROOT
BRANCH   5   9
ATOM      9  C   UNL     1       2.468   6.723  19.462  0.00  0.00    +0.000 A 
ATOM     10  C   UNL     1       3.126   7.202  18.317  0.00  0.00    +0.000 A 
ATOM     11  C   UNL     1       3.673   6.333  17.375  0.00  0.00    +0.000 A 
ATOM     12  C   UNL     1       3.601   4.961  17.577  0.00  0.00    +0.000 A 
ATOM     13  C   UNL     1       2.980   4.443  18.723  0.00  0.00    +0.000 A 
ATOM     14  C   UNL     1       2.382   5.323  19.659  0.00  0.00    +0.000 A 
ATOM     15  C   UNL     1       1.742   4.768  20.919  0.00  0.00    +0.000 C 
ATOM     16  C   UNL     1       1.399   3.277  20.838  0.00  0.00    +0.000 C 
ATOM     17  C   UNL     1       2.572   2.480  20.285  0.00  0.00    +0.000 C 
ATOM     18  C   UNL     1       2.939   2.941  18.880  0.00  0.00    +0.000 C 
BRANCH  16  19
ATOM     19  O   UNL     1       0.231   3.071  20.039  0.00  0.00    +0.000 OA
ATOM     20  H   UNL     1       0.514   2.958  19.114  0.00  0.00    +0.000 HD
ENDBRANCH  16  19
ENDBRANCH   5   9
BRANCH   7  21
ATOM     21  C   UNL     1      -0.905  11.228  21.325  0.00  0.00    +0.000 A 
ATOM     22  C   UNL     1      -1.037  11.088  22.713  0.00  0.00    +0.000 A 
ATOM     23  C   UNL     1      -2.097  11.688  23.399  0.00  0.00    +0.000 A 
ATOM     24  C   UNL     1      -3.061  12.438  22.711  0.00  0.00    +0.000 A 
ATOM     25  C   UNL     1      -2.910  12.617  21.329  0.00  0.00    +0.000 A 
ATOM     26  C   UNL     1      -1.846  12.017  20.647  0.00  0.00    +0.000 A 
BRANCH  24  27
ATOM     27  C   UNL     1      -4.264  13.016  23.418  0.00  0.00    +0.000 C 
ATOM     28  F   UNL     1      -4.062  14.275  23.898  0.00  0.00    +0.000 F 
ATOM     29  F   UNL     1      -5.360  13.092  22.614  0.00  0.00    +0.000 F 
ATOM     30  F   UNL     1      -4.639  12.267  24.492  0.00  0.00    +0.000 F 
ENDBRANCH  24  27
ENDBRANCH   7  21
TORSDOF 4
ENDMDL
MODEL 9
REMARK VINA RESULT:      -8.5      5.405      9.451
REMARK  Name = 
REMARK  5 active torsions:
REMARK  status: ('A' for Active; 'I' for Inactive)
REMARK    1  A    between atoms: C_1  and  C_2
REMARK    2  A    between atoms: N_5  and  C_6
REMARK    3  A    between atoms: C_13  and  O_14
REMARK    4  A    between atoms: C_18  and  C_19
REMARK    5  A    between atoms: C_22  and  C_23
REMARK                            x       y       z     vdW  Elec       q    Type
REMARK                         _______ _______ _______ _____ _____    ______ ____
ROOT
ATOM      1  C   UNL     1       1.491   4.617  20.572  0.00  0.00    +0.000 C 
ATOM      2  C   UNL     1       1.810   6.010  20.199  0.00  0.00    +0.000 A 
ATOM      3  N   UNL     1       1.283   7.055  20.921  0.00  0.00    +0.000 NA
ATOM      4  C   UNL     1       1.814   8.130  20.385  0.00  0.00    +0.000 A 
ATOM      5  N   UNL     1       1.675   9.425  20.716  0.00  0.00    +0.000 N 
ATOM      6  O   UNL     1       2.661   7.869  19.342  0.00  0.00    +0.000 OA
ATOM      7  C   UNL     1       2.621   6.503  19.194  0.00  0.00    +0.000 A 
ATOM      8  H   UNL     1       2.251  10.091  20.220  0.00  0.00    +0.000 HD
ENDROOT
BRANCH   5   9
ATOM      9  C   UNL     1       0.563   9.992  21.380  0.00  0.00    +0.000 A 
ATOM     10  C   UNL     1       0.192   9.563  22.664  0.00  0.00    +0.000 A 
ATOM     11  C   UNL     1      -0.890  10.129  23.337  0.00  0.00    +0.000 A 
ATOM     12  C   UNL     1      -1.604  11.163  22.748  0.00  0.00    +0.000 A 
ATOM     13  C   UNL     1      -1.247  11.643  21.480  0.00  0.00    +0.000 A 
ATOM     14  C   UNL     1      -0.177  11.038  20.774  0.00  0.00    +0.000 A 
ATOM     15  C   UNL     1       0.238  11.578  19.417  0.00  0.00    +0.000 C 
ATOM     16  C   UNL     1      -0.834  12.435  18.735  0.00  0.00    +0.000 C 
ATOM     17  C   UNL     1      -1.412  13.455  19.705  0.00  0.00    +0.000 C 
ATOM     18  C   UNL     1      -2.067  12.771  20.900  0.00  0.00    +0.000 C 
BRANCH  16  19
ATOM     19  O   UNL     1      -1.871  11.610  18.197  0.00  0.00    +0.000 OA
ATOM     20  H   UNL     1      -1.501  11.111  17.447  0.00  0.00    +0.000 HD
ENDBRANCH  16  19
ENDBRANCH   5   9
BRANCH   7  21
ATOM     21  C   UNL     1       3.356   5.947  18.066  0.00  0.00    +0.000 A 
ATOM     22  C   UNL     1       3.279   4.584  17.751  0.00  0.00    +0.000 A 
ATOM     23  C   UNL     1       4.053   4.039  16.722  0.00  0.00    +0.000 A 
ATOM     24  C   UNL     1       4.933   4.844  15.985  0.00  0.00    +0.000 A 
ATOM     25  C   UNL     1       4.982   6.216  16.268  0.00  0.00    +0.000 A 
ATOM     26  C   UNL     1       4.204   6.758  17.298  0.00  0.00    +0.000 A 
BRANCH  24  27
ATOM     27  C   UNL     1       5.845   4.260  14.934  0.00  0.00    +0.000 C 
ATOM     28  F   UNL     1       5.257   4.132  13.712  0.00  0.00    +0.000 F 
ATOM     29  F   UNL     1       6.966   5.007  14.736  0.00  0.00    +0.000 F 
ATOM     30  F   UNL     1       6.281   3.012  15.266  0.00  0.00    +0.000 F 
ENDBRANCH  24  27
ENDBRANCH   7  21
TORSDOF 4
ENDMDL
