MODEL 1
REMARK VINA RESULT:      -6.3      0.000      0.000
REMARK  Name = 
REMARK  17 active torsions:
REMARK  status: ('A' for Active; 'I' for Inactive)
REMARK    1  A    between atoms: C_1  and  O_2
REMARK    2  A    between atoms: O_2  and  C_3
REMARK    3  A    between atoms: C_3  and  C_4
REMARK    4  A    between atoms: C_4  and  C_5
REMARK    5  A    between atoms: C_4  and  N_6
REMARK    6  A    between atoms: C_8  and  C_9
REMARK    7  A    between atoms: C_10  and  C_11
REMARK    8  A    between atoms: N_13  and  C_14
REMARK    9  A    between atoms: C_14  and  C_15
REMARK   10  A    between atoms: C_14  and  C_16
REMARK   11  A    between atoms: C_16  and  C_17
REMARK   12  A    between atoms: C_16  and  C_18
REMARK   13  A    between atoms: C_16  and  C_19
REMARK   14  A    between atoms: C_20  and  N_21
REMARK   15  A    between atoms: N_21  and  S_22
REMARK   16  A    between atoms: S_22  and  C_25
REMARK   17  A    between atoms: C_28  and  C_29
REMARK                            x       y       z     vdW  Elec       q    Type
REMARK                         _______ _______ _______ _____ _____    ______ ____
ROOT
ATOM      1  N   UNL     1      -3.877  10.747  17.567  0.00  0.00    +0.000 N 
ATOM      2  N   UNL     1      -5.080  10.198  17.768  0.00  0.00    +0.000 NA
ATOM      3  C   UNL     1      -5.627  10.953  18.734  0.00  0.00    +0.000 A 
ATOM      4  C   UNL     1      -6.994  10.634  19.240  0.00  0.00    +0.000 C 
ATOM      5  C   UNL     1      -4.745  11.991  19.179  0.00  0.00    +0.000 A 
ATOM      6  C   UNL     1      -3.625  11.834  18.380  0.00  0.00    +0.000 A 
ENDROOT
BRANCH   5   7
ATOM      7  C   UNL     1      -5.058  12.877  20.293  0.00  0.00    +0.000 C 
ATOM      8  O   UNL     1      -5.558  13.976  20.074  0.00  0.00    +0.000 OA
ATOM      9  N   UNL     1      -4.787  12.444  21.571  0.00  0.00    +0.000 N 
ATOM     10  H   UNL     1      -4.111  11.708  21.725  0.00  0.00    +0.000 HD
BRANCH   9  11
ATOM     11  C   UNL     1      -5.138  13.194  22.787  0.00  0.00    +0.000 C 
ATOM     12  C   UNL     1      -6.594  12.950  23.209  0.00  0.00    +0.000 C 
BRANCH  11  13
ATOM     13  C   UNL     1      -4.075  13.053  23.933  0.00  0.00    +0.000 C 
ATOM     14  C   UNL     1      -4.730  12.418  25.183  0.00  0.00    +0.000 C 
ATOM     15  C   UNL     1      -2.922  12.130  23.480  0.00  0.00    +0.000 C 
ATOM     16  C   UNL     1      -3.458  14.397  24.356  0.00  0.00    +0.000 C 
ENDBRANCH  11  13
ENDBRANCH   9  11
ENDBRANCH   5   7
BRANCH   1  17
ATOM     17  C   UNL     1      -2.969  10.157  16.586  0.00  0.00    +0.000 C 
ATOM     18  C   UNL     1      -1.605   9.778  17.171  0.00  0.00    +0.000 C 
BRANCH  17  19
ATOM     19  C   UNL     1      -2.821  11.035  15.335  0.00  0.00    +0.000 C 
BRANCH  19  21
ATOM     20  C   UNL     1      -4.036   9.876  13.654  0.00  0.00    +0.000 C 
ATOM     21  O   UNL     1      -2.757  10.160  14.205  0.00  0.00    +0.000 OA
ENDBRANCH  19  21
ENDBRANCH  17  19
ENDBRANCH   1  17
BRANCH   6  22
ATOM     22  N   UNL     1      -2.405  12.482  18.463  0.00  0.00    +0.000 N 
ATOM     23  H   UNL     1      -1.937  12.742  17.606  0.00  0.00    +0.000 HD
BRANCH  22  24
ATOM     24  S   UNL     1      -1.482  12.584  19.802  0.00  0.00    +0.000 S 
ATOM     25  O   UNL     1      -2.020  13.640  20.640  0.00  0.00    +0.000 OA
ATOM     26  O   UNL     1      -1.310  11.257  20.349  0.00  0.00    +0.000 OA
BRANCH  24  27
ATOM     27  C   UNL     1       0.110  13.135  19.238  0.00  0.00    +0.000 A 
ATOM     28  C   UNL     1       1.041  12.203  18.773  0.00  0.00    +0.000 A 
ATOM     29  C   UNL     1       2.298  12.643  18.355  0.00  0.00    +0.000 A 
ATOM     30  C   UNL     1       2.616  14.008  18.393  0.00  0.00    +0.000 A 
ATOM     31  C   UNL     1       3.971  14.493  17.964  0.00  0.00    +0.000 C 
ATOM     32  C   UNL     1       1.659  14.933  18.825  0.00  0.00    +0.000 A 
ATOM     33  C   UNL     1       0.398  14.502  19.238  0.00  0.00    +0.000 A 
ENDBRANCH  24  27
ENDBRANCH  22  24
ENDBRANCH   6  22
TORSDOF 9
ENDMDL
MODEL 2
REMARK VINA RESULT:      -6.3      2.601      6.039
REMARK  Name = 
REMARK  17 active torsions:
REMARK  status: ('A' for Active; 'I' for Inactive)
REMARK    1  A    between atoms: C_1  and  O_2
REMARK    2  A    between atoms: O_2  and  C_3
REMARK    3  A    between atoms: C_3  and  C_4
REMARK    4  A    between atoms: C_4  and  C_5
REMARK    5  A    between atoms: C_4  and  N_6
REMARK    6  A    between atoms: C_8  and  C_9
REMARK    7  A    between atoms: C_10  and  C_11
REMARK    8  A    between atoms: N_13  and  C_14
REMARK    9  A    between atoms: C_14  and  C_15
REMARK   10  A    between atoms: C_14  and  C_16
REMARK   11  A    between atoms: C_16  and  C_17
REMARK   12  A    between atoms: C_16  and  C_18
REMARK   13  A    between atoms: C_16  and  C_19
REMARK   14  A    between atoms: C_20  and  N_21
REMARK   15  A    between atoms: N_21  and  S_22
REMARK   16  A    between atoms: S_22  and  C_25
REMARK   17  A    between atoms: C_28  and  C_29
REMARK                            x       y       z     vdW  Elec       q    Type
REMARK                         _______ _______ _______ _____ _____    ______ ____
ROOT
ATOM      1  N   UNL     1      -3.856  14.868  22.919  0.00  0.00    +0.000 N 
ATOM      2  N   UNL     1      -5.173  15.069  23.032  0.00  0.00    +0.000 NA
ATOM      3  C   UNL     1      -5.715  14.165  22.201  0.00  0.00    +0.000 A 
ATOM      4  C   UNL     1      -7.198  14.091  22.050  0.00  0.00    +0.000 C 
ATOM      5  C   UNL     1      -4.722  13.386  21.522  0.00  0.00    +0.000 A 
ATOM      6  C   UNL     1      -3.527  13.863  22.033  0.00  0.00    +0.000 A 
ENDROOT
BRANCH   5   7
ATOM      7  C   UNL     1      -5.046  12.414  20.485  0.00  0.00    +0.000 C 
ATOM      8  O   UNL     1      -5.854  11.521  20.721  0.00  0.00    +0.000 OA
ATOM      9  N   UNL     1      -4.434  12.534  19.259  0.00  0.00    +0.000 N 
ATOM     10  H   UNL     1      -3.569  13.052  19.171  0.00  0.00    +0.000 HD
BRANCH   9  11
ATOM     11  C   UNL     1      -4.739  11.683  18.098  0.00  0.00    +0.000 C 
ATOM     12  C   UNL     1      -5.722  12.361  17.133  0.00  0.00    +0.000 C 
BRANCH  11  13
ATOM     13  C   UNL     1      -3.460  11.064  17.429  0.00  0.00    +0.000 C 
ATOM     14  C   UNL     1      -3.582  11.145  15.889  0.00  0.00    +0.000 C 
ATOM     15  C   UNL     1      -2.202  11.855  17.849  0.00  0.00    +0.000 C 
ATOM     16  C   UNL     1      -3.232   9.590  17.808  0.00  0.00    +0.000 C 
ENDBRANCH  11  13
ENDBRANCH   9  11
ENDBRANCH   5   7
BRANCH   1  17
ATOM     17  C   UNL     1      -2.930  15.710  23.673  0.00  0.00    +0.000 C 
ATOM     18  C   UNL     1      -3.489  16.169  25.024  0.00  0.00    +0.000 C 
BRANCH  17  19
ATOM     19  C   UNL     1      -2.421  16.897  22.843  0.00  0.00    +0.000 C 
BRANCH  19  21
ATOM     20  C   UNL     1      -0.157  17.357  22.284  0.00  0.00    +0.000 C 
ATOM     21  O   UNL     1      -1.250  16.458  22.146  0.00  0.00    +0.000 OA
ENDBRANCH  19  21
ENDBRANCH  17  19
ENDBRANCH   1  17
BRANCH   6  22
ATOM     22  N   UNL     1      -2.235  13.562  21.637  0.00  0.00    +0.000 N 
ATOM     23  H   UNL     1      -1.937  13.834  20.711  0.00  0.00    +0.000 HD
BRANCH  22  24
ATOM     24  S   UNL     1      -1.237  12.520  22.395  0.00  0.00    +0.000 S 
ATOM     25  O   UNL     1      -0.253  13.293  23.129  0.00  0.00    +0.000 OA
ATOM     26  O   UNL     1      -2.035  11.535  23.090  0.00  0.00    +0.000 OA
BRANCH  24  27
ATOM     27  C   UNL     1      -0.363  11.675  21.099  0.00  0.00    +0.000 A 
ATOM     28  C   UNL     1      -0.590  10.313  20.884  0.00  0.00    +0.000 A 
ATOM     29  C   UNL     1       0.119   9.652  19.879  0.00  0.00    +0.000 A 
ATOM     30  C   UNL     1       1.040  10.352  19.089  0.00  0.00    +0.000 A 
ATOM     31  C   UNL     1       1.823   9.650  18.017  0.00  0.00    +0.000 C 
ATOM     32  C   UNL     1       1.228  11.725  19.292  0.00  0.00    +0.000 A 
ATOM     33  C   UNL     1       0.518  12.394  20.289  0.00  0.00    +0.000 A 
ENDBRANCH  24  27
ENDBRANCH  22  24
ENDBRANCH   6  22
TORSDOF 9
ENDMDL
MODEL 3
REMARK VINA RESULT:      -6.2      4.434      7.980
REMARK  Name = 
REMARK  17 active torsions:
REMARK  status: ('A' for Active; 'I' for Inactive)
REMARK    1  A    between atoms: C_1  and  O_2
REMARK    2  A    between atoms: O_2  and  C_3
REMARK    3  A    between atoms: C_3  and  C_4
REMARK    4  A    between atoms: C_4  and  C_5
REMARK    5  A    between atoms: C_4  and  N_6
REMARK    6  A    between atoms: C_8  and  C_9
REMARK    7  A    between atoms: C_10  and  C_11
REMARK    8  A    between atoms: N_13  and  C_14
REMARK    9  A    between atoms: C_14  and  C_15
REMARK   10  A    between atoms: C_14  and  C_16
REMARK   11  A    between atoms: C_16  and  C_17
REMARK   12  A    between atoms: C_16  and  C_18
REMARK   13  A    between atoms: C_16  and  C_19
REMARK   14  A    between atoms: C_20  and  N_21
REMARK   15  A    between atoms: N_21  and  S_22
REMARK   16  A    between atoms: S_22  and  C_25
REMARK   17  A    between atoms: C_28  and  C_29
REMARK                            x       y       z     vdW  Elec       q    Type
REMARK                         _______ _______ _______ _____ _____    ______ ____
ROOT
ATOM      1  N   UNL     1       0.176  10.657  18.780  0.00  0.00    +0.000 N 
ATOM      2  N   UNL     1       1.044  10.331  17.816  0.00  0.00    +0.000 NA
ATOM      3  C   UNL     1       1.607   9.195  18.254  0.00  0.00    +0.000 A 
ATOM      4  C   UNL     1       2.656   8.521  17.432  0.00  0.00    +0.000 C 
ATOM      5  C   UNL     1       1.108   8.798  19.538  0.00  0.00    +0.000 A 
ATOM      6  C   UNL     1       0.164   9.767  19.834  0.00  0.00    +0.000 A 
ENDROOT
BRANCH   5   7
ATOM      7  C   UNL     1       1.637   7.661  20.281  0.00  0.00    +0.000 C 
ATOM      8  O   UNL     1       1.712   7.716  21.504  0.00  0.00    +0.000 OA
ATOM      9  N   UNL     1       2.034   6.547  19.578  0.00  0.00    +0.000 N 
ATOM     10  H   UNL     1       2.262   6.620  18.595  0.00  0.00    +0.000 HD
BRANCH   9  11
ATOM     11  C   UNL     1       2.495   5.298  20.205  0.00  0.00    +0.000 C 
ATOM     12  C   UNL     1       1.323   4.440  20.702  0.00  0.00    +0.000 C 
BRANCH  11  13
ATOM     13  C   UNL     1       3.571   4.536  19.353  0.00  0.00    +0.000 C 
ATOM     14  C   UNL     1       3.778   3.111  19.921  0.00  0.00    +0.000 C 
ATOM     15  C   UNL     1       3.095   4.400  17.890  0.00  0.00    +0.000 C 
ATOM     16  C   UNL     1       4.939   5.239  19.334  0.00  0.00    +0.000 C 
ENDBRANCH  11  13
ENDBRANCH   9  11
ENDBRANCH   5   7
BRANCH   1  17
ATOM     17  C   UNL     1      -0.614  11.880  18.656  0.00  0.00    +0.000 C 
ATOM     18  C   UNL     1      -1.716  11.788  17.596  0.00  0.00    +0.000 C 
BRANCH  17  19
ATOM     19  C   UNL     1       0.269  13.118  18.443  0.00  0.00    +0.000 C 
BRANCH  19  21
ATOM     20  C   UNL     1       0.132  15.439  18.938  0.00  0.00    +0.000 C 
ATOM     21  O   UNL     1      -0.576  14.268  18.553  0.00  0.00    +0.000 OA
ENDBRANCH  19  21
ENDBRANCH  17  19
ENDBRANCH   1  17
BRANCH   6  22
ATOM     22  N   UNL     1      -0.540   9.958  21.011  0.00  0.00    +0.000 N 
ATOM     23  H   UNL     1      -1.498   9.640  21.058  0.00  0.00    +0.000 HD
BRANCH  22  24
ATOM     24  S   UNL     1      -0.086  10.940  22.230  0.00  0.00    +0.000 S 
ATOM     25  O   UNL     1       0.060  10.132  23.427  0.00  0.00    +0.000 OA
ATOM     26  O   UNL     1       1.019  11.757  21.782  0.00  0.00    +0.000 OA
BRANCH  24  27
ATOM     27  C   UNL     1      -1.468  12.021  22.506  0.00  0.00    +0.000 A 
ATOM     28  C   UNL     1      -2.477  11.644  23.395  0.00  0.00    +0.000 A 
ATOM     29  C   UNL     1      -3.571  12.489  23.587  0.00  0.00    +0.000 A 
ATOM     30  C   UNL     1      -3.649  13.708  22.901  0.00  0.00    +0.000 A 
ATOM     31  C   UNL     1      -4.829  14.619  23.083  0.00  0.00    +0.000 C 
ATOM     32  C   UNL     1      -2.611  14.090  22.042  0.00  0.00    +0.000 A 
ATOM     33  C   UNL     1      -1.512  13.254  21.850  0.00  0.00    +0.000 A 
ENDBRANCH  24  27
ENDBRANCH  22  24
ENDBRANCH   6  22
TORSDOF 9
ENDMDL
MODEL 4
REMARK VINA RESULT:      -6.2      4.391      8.105
REMARK  Name = 
REMARK  17 active torsions:
REMARK  status: ('A' for Active; 'I' for Inactive)
REMARK    1  A    between atoms: C_1  and  O_2
REMARK    2  A    between atoms: O_2  and  C_3
REMARK    3  A    between atoms: C_3  and  C_4
REMARK    4  A    between atoms: C_4  and  C_5
REMARK    5  A    between atoms: C_4  and  N_6
REMARK    6  A    between atoms: C_8  and  C_9
REMARK    7  A    between atoms: C_10  and  C_11
REMARK    8  A    between atoms: N_13  and  C_14
REMARK    9  A    between atoms: C_14  and  C_15
REMARK   10  A    between atoms: C_14  and  C_16
REMARK   11  A    between atoms: C_16  and  C_17
REMARK   12  A    between atoms: C_16  and  C_18
REMARK   13  A    between atoms: C_16  and  C_19
REMARK   14  A    between atoms: C_20  and  N_21
REMARK   15  A    between atoms: N_21  and  S_22
REMARK   16  A    between atoms: S_22  and  C_25
REMARK   17  A    between atoms: C_28  and  C_29
REMARK                            x       y       z     vdW  Elec       q    Type
REMARK                         _______ _______ _______ _____ _____    ______ ____
ROOT
ATOM      1  N   UNL     1       0.288  10.730  18.818  0.00  0.00    +0.000 N 
ATOM      2  N   UNL     1       1.222  10.452  17.903  0.00  0.00    +0.000 NA
ATOM      3  C   UNL     1       1.764   9.300  18.329  0.00  0.00    +0.000 A 
ATOM      4  C   UNL     1       2.871   8.669  17.552  0.00  0.00    +0.000 C 
ATOM      5  C   UNL     1       1.182   8.845  19.557  0.00  0.00    +0.000 A 
ATOM      6  C   UNL     1       0.212   9.795  19.830  0.00  0.00    +0.000 A 
ENDROOT
BRANCH   5   7
ATOM      7  C   UNL     1       1.668   7.679  20.284  0.00  0.00    +0.000 C 
ATOM      8  O   UNL     1       1.684   7.692  21.510  0.00  0.00    +0.000 OA
ATOM      9  N   UNL     1       2.092   6.587  19.562  0.00  0.00    +0.000 N 
ATOM     10  H   UNL     1       2.367   6.693  18.595  0.00  0.00    +0.000 HD
BRANCH   9  11
ATOM     11  C   UNL     1       2.515   5.314  20.167  0.00  0.00    +0.000 C 
ATOM     12  C   UNL     1       1.319   4.484  20.652  0.00  0.00    +0.000 C 
BRANCH  11  13
ATOM     13  C   UNL     1       3.566   4.534  19.299  0.00  0.00    +0.000 C 
ATOM     14  C   UNL     1       4.921   5.281  19.318  0.00  0.00    +0.000 C 
ATOM     15  C   UNL     1       3.794   3.121  19.881  0.00  0.00    +0.000 C 
ATOM     16  C   UNL     1       3.138   4.370  17.831  0.00  0.00    +0.000 C 
ENDBRANCH  11  13
ENDBRANCH   9  11
ENDBRANCH   5   7
BRANCH   1  17
ATOM     17  C   UNL     1      -0.501  11.954  18.694  0.00  0.00    +0.000 C 
ATOM     18  C   UNL     1      -1.666  11.829  17.707  0.00  0.00    +0.000 C 
BRANCH  17  19
ATOM     19  C   UNL     1       0.373  13.176  18.380  0.00  0.00    +0.000 C 
BRANCH  19  21
ATOM     20  C   UNL     1       0.244  14.977  19.926  0.00  0.00    +0.000 C 
ATOM     21  O   UNL     1      -0.349  14.337  18.803  0.00  0.00    +0.000 OA
ENDBRANCH  19  21
ENDBRANCH  17  19
ENDBRANCH   1  17
BRANCH   6  22
ATOM     22  N   UNL     1      -0.572   9.931  20.963  0.00  0.00    +0.000 N 
ATOM     23  H   UNL     1      -1.492   9.513  20.967  0.00  0.00    +0.000 HD
BRANCH  22  24
ATOM     24  S   UNL     1      -0.292  10.977  22.181  0.00  0.00    +0.000 S 
ATOM     25  O   UNL     1      -0.102  10.210  23.398  0.00  0.00    +0.000 OA
ATOM     26  O   UNL     1       0.725  11.915  21.763  0.00  0.00    +0.000 OA
BRANCH  24  27
ATOM     27  C   UNL     1      -1.805  11.888  22.378  0.00  0.00    +0.000 A 
ATOM     28  C   UNL     1      -2.305  12.639  21.312  0.00  0.00    +0.000 A 
ATOM     29  C   UNL     1      -3.482  13.371  21.484  0.00  0.00    +0.000 A 
ATOM     30  C   UNL     1      -4.157  13.342  22.711  0.00  0.00    +0.000 A 
ATOM     31  C   UNL     1      -5.413  14.139  22.916  0.00  0.00    +0.000 C 
ATOM     32  C   UNL     1      -3.663  12.553  23.758  0.00  0.00    +0.000 A 
ATOM     33  C   UNL     1      -2.493  11.814  23.591  0.00  0.00    +0.000 A 
ENDBRANCH  24  27
ENDBRANCH  22  24
ENDBRANCH   6  22
TORSDOF 9
ENDMDL
MODEL 5
REMARK VINA RESULT:      -6.2      3.229      6.083
REMARK  Name = 
REMARK  17 active torsions:
REMARK  status: ('A' for Active; 'I' for Inactive)
REMARK    1  A    between atoms: C_1  and  O_2
REMARK    2  A    between atoms: O_2  and  C_3
REMARK    3  A    between atoms: C_3  and  C_4
REMARK    4  A    between atoms: C_4  and  C_5
REMARK    5  A    between atoms: C_4  and  N_6
REMARK    6  A    between atoms: C_8  and  C_9
REMARK    7  A    between atoms: C_10  and  C_11
REMARK    8  A    between atoms: N_13  and  C_14
REMARK    9  A    between atoms: C_14  and  C_15
REMARK   10  A    between atoms: C_14  and  C_16
REMARK   11  A    between atoms: C_16  and  C_17
REMARK   12  A    between atoms: C_16  and  C_18
REMARK   13  A    between atoms: C_16  and  C_19
REMARK   14  A    between atoms: C_20  and  N_21
REMARK   15  A    between atoms: N_21  and  S_22
REMARK   16  A    between atoms: S_22  and  C_25
REMARK   17  A    between atoms: C_28  and  C_29
REMARK                            x       y       z     vdW  Elec       q    Type
REMARK                         _______ _______ _______ _____ _____    ______ ____
ROOT
ATOM      1  N   UNL     1       0.921  13.574  20.245  0.00  0.00    +0.000 N 
ATOM      2  N   UNL     1       0.473  14.799  20.537  0.00  0.00    +0.000 NA
ATOM      3  C   UNL     1      -0.837  14.622  20.772  0.00  0.00    +0.000 A 
ATOM      4  C   UNL     1      -1.692  15.792  21.128  0.00  0.00    +0.000 C 
ATOM      5  C   UNL     1      -1.241  13.257  20.602  0.00  0.00    +0.000 A 
ATOM      6  C   UNL     1      -0.063  12.606  20.279  0.00  0.00    +0.000 A 
ENDROOT
BRANCH   5   7
ATOM      7  C   UNL     1      -2.629  12.822  20.691  0.00  0.00    +0.000 C 
ATOM      8  O   UNL     1      -3.068  12.407  21.759  0.00  0.00    +0.000 OA
ATOM      9  N   UNL     1      -3.414  12.898  19.563  0.00  0.00    +0.000 N 
ATOM     10  H   UNL     1      -2.985  12.934  18.648  0.00  0.00    +0.000 HD
BRANCH   9  11
ATOM     11  C   UNL     1      -4.850  12.583  19.536  0.00  0.00    +0.000 C 
ATOM     12  C   UNL     1      -5.710  13.796  19.919  0.00  0.00    +0.000 C 
BRANCH  11  13
ATOM     13  C   UNL     1      -5.296  11.827  18.234  0.00  0.00    +0.000 C 
ATOM     14  C   UNL     1      -4.054  11.274  17.496  0.00  0.00    +0.000 C 
ATOM     15  C   UNL     1      -6.206  10.633  18.596  0.00  0.00    +0.000 C 
ATOM     16  C   UNL     1      -6.070  12.722  17.250  0.00  0.00    +0.000 C 
ENDBRANCH  11  13
ENDBRANCH   9  11
ENDBRANCH   5   7
BRANCH   1  17
ATOM     17  C   UNL     1       2.327  13.383  19.898  0.00  0.00    +0.000 C 
ATOM     18  C   UNL     1       3.293  13.983  20.925  0.00  0.00    +0.000 C 
BRANCH  17  19
ATOM     19  C   UNL     1       2.643  13.871  18.477  0.00  0.00    +0.000 C 
BRANCH  19  21
ATOM     20  C   UNL     1       3.446  15.831  17.399  0.00  0.00    +0.000 C 
ATOM     21  O   UNL     1       3.413  15.071  18.600  0.00  0.00    +0.000 OA
ENDBRANCH  19  21
ENDBRANCH  17  19
ENDBRANCH   1  17
BRANCH   6  22
ATOM     22  N   UNL     1       0.119  11.293  19.878  0.00  0.00    +0.000 N 
ATOM     23  H   UNL     1      -0.139  11.035  18.936  0.00  0.00    +0.000 HD
BRANCH  22  24
ATOM     24  S   UNL     1       0.405  10.036  20.875  0.00  0.00    +0.000 S 
ATOM     25  O   UNL     1       1.282  10.494  21.937  0.00  0.00    +0.000 OA
ATOM     26  O   UNL     1      -0.856   9.413  21.210  0.00  0.00    +0.000 OA
BRANCH  24  27
ATOM     27  C   UNL     1       1.333   8.869  19.910  0.00  0.00    +0.000 A 
ATOM     28  C   UNL     1       1.647   9.163  18.581  0.00  0.00    +0.000 A 
ATOM     29  C   UNL     1       2.357   8.230  17.823  0.00  0.00    +0.000 A 
ATOM     30  C   UNL     1       2.757   7.015  18.395  0.00  0.00    +0.000 A 
ATOM     31  C   UNL     1       3.504   5.994  17.587  0.00  0.00    +0.000 C 
ATOM     32  C   UNL     1       2.468   6.751  19.740  0.00  0.00    +0.000 A 
ATOM     33  C   UNL     1       1.766   7.682  20.505  0.00  0.00    +0.000 A 
ENDBRANCH  24  27
ENDBRANCH  22  24
ENDBRANCH   6  22
TORSDOF 9
ENDMDL
MODEL 6
REMARK VINA RESULT:      -6.2      0.129      1.176
REMARK  Name = 
REMARK  17 active torsions:
REMARK  status: ('A' for Active; 'I' for Inactive)
REMARK    1  A    between atoms: C_1  and  O_2
REMARK    2  A    between atoms: O_2  and  C_3
REMARK    3  A    between atoms: C_3  and  C_4
REMARK    4  A    between atoms: C_4  and  C_5
REMARK    5  A    between atoms: C_4  and  N_6
REMARK    6  A    between atoms: C_8  and  C_9
REMARK    7  A    between atoms: C_10  and  C_11
REMARK    8  A    between atoms: N_13  and  C_14
REMARK    9  A    between atoms: C_14  and  C_15
REMARK   10  A    between atoms: C_14  and  C_16
REMARK   11  A    between atoms: C_16  and  C_17
REMARK   12  A    between atoms: C_16  and  C_18
REMARK   13  A    between atoms: C_16  and  C_19
REMARK   14  A    between atoms: C_20  and  N_21
REMARK   15  A    between atoms: N_21  and  S_22
REMARK   16  A    between atoms: S_22  and  C_25
REMARK   17  A    between atoms: C_28  and  C_29
REMARK                            x       y       z     vdW  Elec       q    Type
REMARK                         _______ _______ _______ _____ _____    ______ ____
ROOT
ATOM      1  N   UNL     1      -3.950  10.784  17.608  0.00  0.00    +0.000 N 
ATOM      2  N   UNL     1      -5.164  10.263  17.814  0.00  0.00    +0.000 NA
ATOM      3  C   UNL     1      -5.690  11.031  18.782  0.00  0.00    +0.000 A 
ATOM      4  C   UNL     1      -7.061  10.743  19.294  0.00  0.00    +0.000 C 
ATOM      5  C   UNL     1      -4.782  12.049  19.222  0.00  0.00    +0.000 A 
ATOM      6  C   UNL     1      -3.670  11.865  18.418  0.00  0.00    +0.000 A 
ENDROOT
BRANCH   5   7
ATOM      7  C   UNL     1      -5.070  12.942  20.337  0.00  0.00    +0.000 C 
ATOM      8  O   UNL     1      -5.499  14.070  20.117  0.00  0.00    +0.000 OA
ATOM      9  N   UNL     1      -4.856  12.483  21.617  0.00  0.00    +0.000 N 
ATOM     10  H   UNL     1      -4.229  11.707  21.780  0.00  0.00    +0.000 HD
BRANCH   9  11
ATOM     11  C   UNL     1      -5.193  13.242  22.832  0.00  0.00    +0.000 C 
ATOM     12  C   UNL     1      -6.646  13.009  23.268  0.00  0.00    +0.000 C 
BRANCH  11  13
ATOM     13  C   UNL     1      -4.120  13.101  23.969  0.00  0.00    +0.000 C 
ATOM     14  C   UNL     1      -2.942  12.228  23.476  0.00  0.00    +0.000 C 
ATOM     15  C   UNL     1      -3.557  14.489  24.346  0.00  0.00    +0.000 C 
ATOM     16  C   UNL     1      -4.677  12.460  25.252  0.00  0.00    +0.000 C 
ENDBRANCH  11  13
ENDBRANCH   9  11
ENDBRANCH   5   7
BRANCH   1  17
ATOM     17  C   UNL     1      -3.061  10.173  16.622  0.00  0.00    +0.000 C 
ATOM     18  C   UNL     1      -1.680   9.823  17.185  0.00  0.00    +0.000 C 
BRANCH  17  19
ATOM     19  C   UNL     1      -2.950  11.015  15.343  0.00  0.00    +0.000 C 
BRANCH  19  21
ATOM     20  C   UNL     1      -3.784   9.915  13.408  0.00  0.00    +0.000 C 
ATOM     21  O   UNL     1      -2.668  10.116  14.265  0.00  0.00    +0.000 OA
ENDBRANCH  19  21
ENDBRANCH  17  19
ENDBRANCH   1  17
BRANCH   6  22
ATOM     22  N   UNL     1      -2.435  12.485  18.495  0.00  0.00    +0.000 N 
ATOM     23  H   UNL     1      -1.942  12.690  17.637  0.00  0.00    +0.000 HD
BRANCH  22  24
ATOM     24  S   UNL     1      -1.537  12.631  19.848  0.00  0.00    +0.000 S 
ATOM     25  O   UNL     1      -2.111  13.691  20.657  0.00  0.00    +0.000 OA
ATOM     26  O   UNL     1      -1.347  11.319  20.423  0.00  0.00    +0.000 OA
BRANCH  24  27
ATOM     27  C   UNL     1       0.052  13.206  19.301  0.00  0.00    +0.000 A 
ATOM     28  C   UNL     1       0.308  14.578  19.237  0.00  0.00    +0.000 A 
ATOM     29  C   UNL     1       1.552  15.020  18.783  0.00  0.00    +0.000 A 
ATOM     30  C   UNL     1       2.535  14.096  18.406  0.00  0.00    +0.000 A 
ATOM     31  C   UNL     1       3.871  14.558  17.898  0.00  0.00    +0.000 C 
ATOM     32  C   UNL     1       2.277  12.724  18.513  0.00  0.00    +0.000 A 
ATOM     33  C   UNL     1       1.039  12.274  18.972  0.00  0.00    +0.000 A 
ENDBRANCH  24  27
ENDBRANCH  22  24
ENDBRANCH   6  22
TORSDOF 9
ENDMDL
MODEL 7
REMARK VINA RESULT:      -6.2      2.536      3.840
REMARK  Name = 
REMARK  17 active torsions:
REMARK  status: ('A' for Active; 'I' for Inactive)
REMARK    1  A    between atoms: C_1  and  O_2
REMARK    2  A    between atoms: O_2  and  C_3
REMARK    3  A    between atoms: C_3  and  C_4
REMARK    4  A    between atoms: C_4  and  C_5
REMARK    5  A    between atoms: C_4  and  N_6
REMARK    6  A    between atoms: C_8  and  C_9
REMARK    7  A    between atoms: C_10  and  C_11
REMARK    8  A    between atoms: N_13  and  C_14
REMARK    9  A    between atoms: C_14  and  C_15
REMARK   10  A    between atoms: C_14  and  C_16
REMARK   11  A    between atoms: C_16  and  C_17
REMARK   12  A    between atoms: C_16  and  C_18
REMARK   13  A    between atoms: C_16  and  C_19
REMARK   14  A    between atoms: C_20  and  N_21
REMARK   15  A    between atoms: N_21  and  S_22
REMARK   16  A    between atoms: S_22  and  C_25
REMARK   17  A    between atoms: C_28  and  C_29
REMARK                            x       y       z     vdW  Elec       q    Type
REMARK                         _______ _______ _______ _____ _____    ______ ____
ROOT
ATOM      1  N   UNL     1      -0.889  11.745  19.928  0.00  0.00    +0.000 N 
ATOM      2  N   UNL     1      -1.646  11.198  18.971  0.00  0.00    +0.000 NA
ATOM      3  C   UNL     1      -2.857  11.743  19.161  0.00  0.00    +0.000 A 
ATOM      4  C   UNL     1      -3.992  11.359  18.271  0.00  0.00    +0.000 C 
ATOM      5  C   UNL     1      -2.883  12.638  20.280  0.00  0.00    +0.000 A 
ATOM      6  C   UNL     1      -1.576  12.626  20.738  0.00  0.00    +0.000 A 
ENDROOT
BRANCH   5   7
ATOM      7  C   UNL     1      -4.103  13.272  20.763  0.00  0.00    +0.000 C 
ATOM      8  O   UNL     1      -4.368  14.420  20.421  0.00  0.00    +0.000 OA
ATOM      9  N   UNL     1      -4.933  12.552  21.592  0.00  0.00    +0.000 N 
ATOM     10  H   UNL     1      -4.572  11.760  22.108  0.00  0.00    +0.000 HD
BRANCH   9  11
ATOM     11  C   UNL     1      -6.236  13.033  22.074  0.00  0.00    +0.000 C 
ATOM     12  C   UNL     1      -7.375  12.075  21.698  0.00  0.00    +0.000 C 
BRANCH  11  13
ATOM     13  C   UNL     1      -6.213  13.492  23.575  0.00  0.00    +0.000 C 
ATOM     14  C   UNL     1      -5.213  12.623  24.375  0.00  0.00    +0.000 C 
ATOM     15  C   UNL     1      -5.752  14.963  23.676  0.00  0.00    +0.000 C 
ATOM     16  C   UNL     1      -7.585  13.385  24.263  0.00  0.00    +0.000 C 
ENDBRANCH  11  13
ENDBRANCH   9  11
ENDBRANCH   5   7
BRANCH   1  17
ATOM     17  C   UNL     1       0.515  11.356  20.049  0.00  0.00    +0.000 C 
ATOM     18  C   UNL     1       1.222  11.205  18.699  0.00  0.00    +0.000 C 
BRANCH  17  19
ATOM     19  C   UNL     1       0.693  10.104  20.920  0.00  0.00    +0.000 C 
BRANCH  19  21
ATOM     20  C   UNL     1      -0.264   9.744  23.066  0.00  0.00    +0.000 C 
ATOM     21  O   UNL     1       0.633  10.525  22.287  0.00  0.00    +0.000 OA
ENDBRANCH  19  21
ENDBRANCH  17  19
ENDBRANCH   1  17
BRANCH   6  22
ATOM     22  N   UNL     1      -1.054  13.209  21.880  0.00  0.00    +0.000 N 
ATOM     23  H   UNL     1      -1.242  12.775  22.773  0.00  0.00    +0.000 HD
BRANCH  22  24
ATOM     24  S   UNL     1      -0.433  14.713  21.968  0.00  0.00    +0.000 S 
ATOM     25  O   UNL     1      -1.410  15.636  21.421  0.00  0.00    +0.000 OA
ATOM     26  O   UNL     1       0.080  14.925  23.303  0.00  0.00    +0.000 OA
BRANCH  24  27
ATOM     27  C   UNL     1       0.956  14.717  20.860  0.00  0.00    +0.000 A 
ATOM     28  C   UNL     1       2.214  14.325  21.324  0.00  0.00    +0.000 A 
ATOM     29  C   UNL     1       3.304  14.354  20.452  0.00  0.00    +0.000 A 
ATOM     30  C   UNL     1       3.132  14.764  19.123  0.00  0.00    +0.000 A 
ATOM     31  C   UNL     1       4.299  14.819  18.179  0.00  0.00    +0.000 C 
ATOM     32  C   UNL     1       1.858  15.117  18.663  0.00  0.00    +0.000 A 
ATOM     33  C   UNL     1       0.763  15.083  19.526  0.00  0.00    +0.000 A 
ENDBRANCH  24  27
ENDBRANCH  22  24
ENDBRANCH   6  22
TORSDOF 9
ENDMDL
MODEL 8
REMARK VINA RESULT:      -6.1      2.875      5.197
REMARK  Name = 
REMARK  17 active torsions:
REMARK  status: ('A' for Active; 'I' for Inactive)
REMARK    1  A    between atoms: C_1  and  O_2
REMARK    2  A    between atoms: O_2  and  C_3
REMARK    3  A    between atoms: C_3  and  C_4
REMARK    4  A    between atoms: C_4  and  C_5
REMARK    5  A    between atoms: C_4  and  N_6
REMARK    6  A    between atoms: C_8  and  C_9
REMARK    7  A    between atoms: C_10  and  C_11
REMARK    8  A    between atoms: N_13  and  C_14
REMARK    9  A    between atoms: C_14  and  C_15
REMARK   10  A    between atoms: C_14  and  C_16
REMARK   11  A    between atoms: C_16  and  C_17
REMARK   12  A    between atoms: C_16  and  C_18
REMARK   13  A    between atoms: C_16  and  C_19
REMARK   14  A    between atoms: C_20  and  N_21
REMARK   15  A    between atoms: N_21  and  S_22
REMARK   16  A    between atoms: S_22  and  C_25
REMARK   17  A    between atoms: C_28  and  C_29
REMARK                            x       y       z     vdW  Elec       q    Type
REMARK                         _______ _______ _______ _____ _____    ______ ____
ROOT
ATOM      1  N   UNL     1      -0.712  11.315  19.778  0.00  0.00    +0.000 N 
ATOM      2  N   UNL     1      -1.534  10.797  18.860  0.00  0.00    +0.000 NA
ATOM      3  C   UNL     1      -2.695  11.441  19.059  0.00  0.00    +0.000 A 
ATOM      4  C   UNL     1      -3.878  11.117  18.210  0.00  0.00    +0.000 C 
ATOM      5  C   UNL     1      -2.621  12.373  20.145  0.00  0.00    +0.000 A 
ATOM      6  C   UNL     1      -1.308  12.274  20.572  0.00  0.00    +0.000 A 
ENDROOT
BRANCH   5   7
ATOM      7  C   UNL     1      -3.775  13.117  20.634  0.00  0.00    +0.000 C 
ATOM      8  O   UNL     1      -3.877  14.314  20.383  0.00  0.00    +0.000 OA
ATOM      9  N   UNL     1      -4.728  12.444  21.364  0.00  0.00    +0.000 N 
ATOM     10  H   UNL     1      -4.495  11.573  21.822  0.00  0.00    +0.000 HD
BRANCH   9  11
ATOM     11  C   UNL     1      -5.984  13.048  21.835  0.00  0.00    +0.000 C 
ATOM     12  C   UNL     1      -7.213  12.271  21.343  0.00  0.00    +0.000 C 
BRANCH  11  13
ATOM     13  C   UNL     1      -5.973  13.388  23.368  0.00  0.00    +0.000 C 
ATOM     14  C   UNL     1      -4.707  12.794  24.029  0.00  0.00    +0.000 C 
ATOM     15  C   UNL     1      -5.945  14.918  23.574  0.00  0.00    +0.000 C 
ATOM     16  C   UNL     1      -7.199  12.839  24.118  0.00  0.00    +0.000 C 
ENDBRANCH  11  13
ENDBRANCH   9  11
ENDBRANCH   5   7
BRANCH   1  17
ATOM     17  C   UNL     1       0.659  10.820  19.880  0.00  0.00    +0.000 C 
ATOM     18  C   UNL     1       1.283  10.475  18.524  0.00  0.00    +0.000 C 
BRANCH  17  19
ATOM     19  C   UNL     1       0.780   9.652  20.869  0.00  0.00    +0.000 C 
BRANCH  19  21
ATOM     20  C   UNL     1       0.203   9.484  23.168  0.00  0.00    +0.000 C 
ATOM     21  O   UNL     1       0.914  10.214  22.178  0.00  0.00    +0.000 OA
ENDBRANCH  19  21
ENDBRANCH  17  19
ENDBRANCH   1  17
BRANCH   6  22
ATOM     22  N   UNL     1      -0.712  12.852  21.680  0.00  0.00    +0.000 N 
ATOM     23  H   UNL     1      -0.827  12.406  22.579  0.00  0.00    +0.000 HD
BRANCH  22  24
ATOM     24  S   UNL     1      -0.107  14.364  21.741  0.00  0.00    +0.000 S 
ATOM     25  O   UNL     1       1.167  14.312  22.434  0.00  0.00    +0.000 OA
ATOM     26  O   UNL     1      -0.177  14.946  20.419  0.00  0.00    +0.000 OA
BRANCH  24  27
ATOM     27  C   UNL     1      -1.221  15.277  22.782  0.00  0.00    +0.000 A 
ATOM     28  C   UNL     1      -1.818  16.445  22.301  0.00  0.00    +0.000 A 
ATOM     29  C   UNL     1      -2.673  17.168  23.134  0.00  0.00    +0.000 A 
ATOM     30  C   UNL     1      -2.936  16.720  24.435  0.00  0.00    +0.000 A 
ATOM     31  C   UNL     1      -3.839  17.498  25.349  0.00  0.00    +0.000 C 
ATOM     32  C   UNL     1      -2.360  15.527  24.889  0.00  0.00    +0.000 A 
ATOM     33  C   UNL     1      -1.511  14.795  24.060  0.00  0.00    +0.000 A 
ENDBRANCH  24  27
ENDBRANCH  22  24
ENDBRANCH   6  22
TORSDOF 9
ENDMDL
MODEL 9
REMARK VINA RESULT:      -6.1      3.041      6.063
REMARK  Name = 
REMARK  17 active torsions:
REMARK  status: ('A' for Active; 'I' for Inactive)
REMARK    1  A    between atoms: C_1  and  O_2
REMARK    2  A    between atoms: O_2  and  C_3
REMARK    3  A    between atoms: C_3  and  C_4
REMARK    4  A    between atoms: C_4  and  C_5
REMARK    5  A    between atoms: C_4  and  N_6
REMARK    6  A    between atoms: C_8  and  C_9
REMARK    7  A    between atoms: C_10  and  C_11
REMARK    8  A    between atoms: N_13  and  C_14
REMARK    9  A    between atoms: C_14  and  C_15
REMARK   10  A    between atoms: C_14  and  C_16
REMARK   11  A    between atoms: C_16  and  C_17
REMARK   12  A    between atoms: C_16  and  C_18
REMARK   13  A    between atoms: C_16  and  C_19
REMARK   14  A    between atoms: C_20  and  N_21
REMARK   15  A    between atoms: N_21  and  S_22
REMARK   16  A    between atoms: S_22  and  C_25
REMARK   17  A    between atoms: C_28  and  C_29
REMARK                            x       y       z     vdW  Elec       q    Type
REMARK                         _______ _______ _______ _____ _____    ______ ____
ROOT
ATOM      1  N   UNL     1       0.564  14.252  19.662  0.00  0.00    +0.000 N 
ATOM      2  N   UNL     1      -0.051  15.415  19.898  0.00  0.00    +0.000 NA
ATOM      3  C   UNL     1      -1.291  15.061  20.266  0.00  0.00    +0.000 A 
ATOM      4  C   UNL     1      -2.293  16.113  20.608  0.00  0.00    +0.000 C 
ATOM      5  C   UNL     1      -1.483  13.641  20.239  0.00  0.00    +0.000 A 
ATOM      6  C   UNL     1      -0.245  13.151  19.860  0.00  0.00    +0.000 A 
ENDROOT
BRANCH   5   7
ATOM      7  C   UNL     1      -2.772  13.007  20.490  0.00  0.00    +0.000 C 
ATOM      8  O   UNL     1      -3.048  12.619  21.619  0.00  0.00    +0.000 OA
ATOM      9  N   UNL     1      -3.650  12.870  19.439  0.00  0.00    +0.000 N 
ATOM     10  H   UNL     1      -3.310  12.897  18.486  0.00  0.00    +0.000 HD
BRANCH   9  11
ATOM     11  C   UNL     1      -5.015  12.338  19.570  0.00  0.00    +0.000 C 
ATOM     12  C   UNL     1      -6.009  13.417  20.021  0.00  0.00    +0.000 C 
BRANCH  11  13
ATOM     13  C   UNL     1      -5.469  11.482  18.335  0.00  0.00    +0.000 C 
ATOM     14  C   UNL     1      -6.607  10.520  18.753  0.00  0.00    +0.000 C 
ATOM     15  C   UNL     1      -6.010  12.402  17.218  0.00  0.00    +0.000 C 
ATOM     16  C   UNL     1      -4.334  10.636  17.733  0.00  0.00    +0.000 C 
ENDBRANCH  11  13
ENDBRANCH   9  11
ENDBRANCH   5   7
BRANCH   1  17
ATOM     17  C   UNL     1       1.952  14.249  19.202  0.00  0.00    +0.000 C 
ATOM     18  C   UNL     1       2.945  13.784  20.272  0.00  0.00    +0.000 C 
BRANCH  17  19
ATOM     19  C   UNL     1       2.364  15.600  18.601  0.00  0.00    +0.000 C 
BRANCH  19  21
ATOM     20  C   UNL     1       2.918  17.445  19.993  0.00  0.00    +0.000 C 
ATOM     21  O   UNL     1       3.328  16.183  19.484  0.00  0.00    +0.000 OA
ENDBRANCH  19  21
ENDBRANCH  17  19
ENDBRANCH   1  17
BRANCH   6  22
ATOM     22  N   UNL     1       0.113  11.851  19.547  0.00  0.00    +0.000 N 
ATOM     23  H   UNL     1       0.050  11.551  18.584  0.00  0.00    +0.000 HD
BRANCH  22  24
ATOM     24  S   UNL     1       0.321  10.647  20.625  0.00  0.00    +0.000 S 
ATOM     25  O   UNL     1       1.187  11.134  21.683  0.00  0.00    +0.000 OA
ATOM     26  O   UNL     1      -0.973  10.094  20.959  0.00  0.00    +0.000 OA
BRANCH  24  27
ATOM     27  C   UNL     1       1.227   9.388  19.758  0.00  0.00    +0.000 A 
ATOM     28  C   UNL     1       1.620   9.604  18.435  0.00  0.00    +0.000 A 
ATOM     29  C   UNL     1       2.310   8.600  17.754  0.00  0.00    +0.000 A 
ATOM     30  C   UNL     1       2.615   7.393  18.397  0.00  0.00    +0.000 A 
ATOM     31  C   UNL     1       3.340   6.296  17.672  0.00  0.00    +0.000 C 
ATOM     32  C   UNL     1       2.248   7.207  19.736  0.00  0.00    +0.000 A 
ATOM     33  C   UNL     1       1.564   8.208  20.425  0.00  0.00    +0.000 A 
ENDBRANCH  24  27
ENDBRANCH  22  24
ENDBRANCH   6  22
TORSDOF 9
ENDMDL
