MODEL 1
REMARK VINA RESULT:      -7.8      0.000      0.000
REMARK  Name = 
REMARK  5 active torsions:
REMARK  status: ('A' for Active; 'I' for Inactive)
REMARK    1  A    between atoms: C_1  and  C_2
REMARK    2  A    between atoms: C_8  and  N_9
REMARK    3  A    between atoms: N_9  and  C_10
REMARK    4  A    between atoms: C_10  and  C_11
REMARK    5  A    between atoms: C_14  and  C_15
REMARK                            x       y       z     vdW  Elec       q    Type
REMARK                         _______ _______ _______ _____ _____    ______ ____
ROOT
ATOM      1  N   UNL     1       4.581   3.180  17.541  0.00  0.00    +0.000 NA
ATOM      2  H   UNL     1       3.572   3.200  17.392  0.00  0.00    +0.000 HD
ENDROOT
BRANCH   1  10
ATOM      3  C   UNL     1       5.918   2.988  12.124  0.00  0.00    +0.000 C 
ATOM      4  C   UNL     1       6.589   3.965  13.003  0.00  0.00    +0.000 A 
ATOM      5  N   UNL     1       7.527   4.816  12.639  0.00  0.00    +0.000 NA
ATOM      6  N   UNL     1       7.924   5.525  13.746  0.00  0.00    +0.000 NA
ATOM      7  C   UNL     1       7.225   5.096  14.768  0.00  0.00    +0.000 A 
ATOM      8  N   UNL     1       6.352   4.129  14.343  0.00  0.00    +0.000 N 
ATOM      9  C   UNL     1       5.443   3.409  15.214  0.00  0.00    +0.000 C 
ATOM     10  C   UNL     1       5.265   4.091  16.602  0.00  0.00    +0.000 C 
ATOM     11  C   UNL     1       6.646   4.548  17.122  0.00  0.00    +0.000 C 
ATOM     12  C   UNL     1       7.286   5.557  16.170  0.00  0.00    +0.000 C 
ENDBRANCH   1  10
BRANCH   1  13
ATOM     13  C   UNL     1       4.843   3.493  18.954  0.00  0.00    +0.000 C 
BRANCH  13  14
ATOM     14  C   UNL     1       3.755   4.363  19.519  0.00  0.00    +0.000 A 
ATOM     15  C   UNL     1       2.785   3.961  20.416  0.00  0.00    +0.000 A 
ATOM     16  S   UNL     1       1.688   5.232  20.721  0.00  0.00    +0.000 S 
ATOM     17  C   UNL     1       2.549   6.248  19.620  0.00  0.00    +0.000 A 
ATOM     18  N   UNL     1       3.607   5.674  19.067  0.00  0.00    +0.000 NA
BRANCH  17  19
ATOM     19  C   UNL     1       2.085   7.625  19.345  0.00  0.00    +0.000 A 
ATOM     20  C   UNL     1       2.229   8.187  18.078  0.00  0.00    +0.000 A 
ATOM     21  C   UNL     1       1.766   9.486  17.858  0.00  0.00    +0.000 A 
ATOM     22  C   UNL     1       1.175  10.186  18.902  0.00  0.00    +0.000 A 
ATOM     23  C   UNL     1       1.068   9.556  20.129  0.00  0.00    +0.000 A 
ATOM     24  N   UNL     1       1.507   8.303  20.373  0.00  0.00    +0.000 NA
ENDBRANCH  17  19
ENDBRANCH  13  14
ENDBRANCH   1  13
TORSDOF 4
ENDMDL
MODEL 2
REMARK VINA RESULT:      -7.7      1.948      7.985
REMARK  Name = 
REMARK  5 active torsions:
REMARK  status: ('A' for Active; 'I' for Inactive)
REMARK    1  A    between atoms: C_1  and  C_2
REMARK    2  A    between atoms: C_8  and  N_9
REMARK    3  A    between atoms: N_9  and  C_10
REMARK    4  A    between atoms: C_10  and  C_11
REMARK    5  A    between atoms: C_14  and  C_15
REMARK                            x       y       z     vdW  Elec       q    Type
REMARK                         _______ _______ _______ _____ _____    ______ ____
ROOT
ATOM      1  N   UNL     1       3.308   5.687  19.789  0.00  0.00    +0.000 NA
ATOM      2  H   UNL     1       4.250   5.651  20.177  0.00  0.00    +0.000 HD
ENDROOT
BRANCH   1  10
ATOM      3  C   UNL     1      -0.147   9.333  22.226  0.00  0.00    +0.000 C 
ATOM      4  C   UNL     1       0.302   9.573  20.841  0.00  0.00    +0.000 A 
ATOM      5  N   UNL     1      -0.058  10.583  20.075  0.00  0.00    +0.000 NA
ATOM      6  N   UNL     1       0.540  10.434  18.847  0.00  0.00    +0.000 NA
ATOM      7  C   UNL     1       1.254   9.335  18.882  0.00  0.00    +0.000 A 
ATOM      8  N   UNL     1       1.154   8.771  20.127  0.00  0.00    +0.000 N 
ATOM      9  C   UNL     1       1.790   7.526  20.513  0.00  0.00    +0.000 C 
ATOM     10  C   UNL     1       2.906   7.083  19.522  0.00  0.00    +0.000 C 
ATOM     11  C   UNL     1       2.407   7.287  18.074  0.00  0.00    +0.000 C 
ATOM     12  C   UNL     1       2.085   8.756  17.806  0.00  0.00    +0.000 C 
ENDBRANCH   1  10
BRANCH   1  13
ATOM     13  C   UNL     1       3.271   4.830  18.594  0.00  0.00    +0.000 C 
BRANCH  13  14
ATOM     14  C   UNL     1       4.623   4.767  17.939  0.00  0.00    +0.000 A 
ATOM     15  C   UNL     1       5.836   4.942  18.576  0.00  0.00    +0.000 A 
ATOM     16  S   UNL     1       7.116   4.890  17.448  0.00  0.00    +0.000 S 
ATOM     17  C   UNL     1       5.984   4.663  16.163  0.00  0.00    +0.000 A 
ATOM     18  N   UNL     1       4.720   4.612  16.557  0.00  0.00    +0.000 NA
BRANCH  17  19
ATOM     19  C   UNL     1       6.445   4.559  14.761  0.00  0.00    +0.000 A 
ATOM     20  C   UNL     1       5.821   3.691  13.868  0.00  0.00    +0.000 A 
ATOM     21  C   UNL     1       6.280   3.633  12.550  0.00  0.00    +0.000 A 
ATOM     22  C   UNL     1       7.343   4.437  12.161  0.00  0.00    +0.000 A 
ATOM     23  C   UNL     1       7.906   5.273  13.109  0.00  0.00    +0.000 A 
ATOM     24  N   UNL     1       7.486   5.350  14.390  0.00  0.00    +0.000 NA
ENDBRANCH  17  19
ENDBRANCH  13  14
ENDBRANCH   1  13
TORSDOF 4
ENDMDL
MODEL 3
REMARK VINA RESULT:      -7.6      0.559      1.010
REMARK  Name = 
REMARK  5 active torsions:
REMARK  status: ('A' for Active; 'I' for Inactive)
REMARK    1  A    between atoms: C_1  and  C_2
REMARK    2  A    between atoms: C_8  and  N_9
REMARK    3  A    between atoms: N_9  and  C_10
REMARK    4  A    between atoms: C_10  and  C_11
REMARK    5  A    between atoms: C_14  and  C_15
REMARK                            x       y       z     vdW  Elec       q    Type
REMARK                         _______ _______ _______ _____ _____    ______ ____
ROOT
ATOM      1  N   UNL     1       4.649   3.299  17.635  0.00  0.00    +0.000 NA
ATOM      2  H   UNL     1       3.641   3.286  17.480  0.00  0.00    +0.000 HD
ENDROOT
BRANCH   1  10
ATOM      3  C   UNL     1       5.828   2.999  12.187  0.00  0.00    +0.000 C 
ATOM      4  C   UNL     1       6.534   3.984  13.029  0.00  0.00    +0.000 A 
ATOM      5  N   UNL     1       7.470   4.818  12.623  0.00  0.00    +0.000 NA
ATOM      6  N   UNL     1       7.906   5.543  13.707  0.00  0.00    +0.000 NA
ATOM      7  C   UNL     1       7.231   5.139  14.756  0.00  0.00    +0.000 A 
ATOM      8  N   UNL     1       6.337   4.174  14.372  0.00  0.00    +0.000 N 
ATOM      9  C   UNL     1       5.446   3.479  15.281  0.00  0.00    +0.000 C 
ATOM     10  C   UNL     1       5.315   4.187  16.661  0.00  0.00    +0.000 C 
ATOM     11  C   UNL     1       6.715   4.637  17.134  0.00  0.00    +0.000 C 
ATOM     12  C   UNL     1       7.337   5.623  16.147  0.00  0.00    +0.000 C 
ENDBRANCH   1  10
BRANCH   1  13
ATOM     13  C   UNL     1       4.894   3.680  19.035  0.00  0.00    +0.000 C 
BRANCH  13  14
ATOM     14  C   UNL     1       3.737   4.469  19.584  0.00  0.00    +0.000 A 
ATOM     15  C   UNL     1       2.725   3.968  20.379  0.00  0.00    +0.000 A 
ATOM     16  S   UNL     1       1.562   5.177  20.697  0.00  0.00    +0.000 S 
ATOM     17  C   UNL     1       2.456   6.300  19.736  0.00  0.00    +0.000 A 
ATOM     18  N   UNL     1       3.570   5.804  19.219  0.00  0.00    +0.000 NA
BRANCH  17  19
ATOM     19  C   UNL     1       1.960   7.678  19.530  0.00  0.00    +0.000 A 
ATOM     20  C   UNL     1       1.315   8.365  20.556  0.00  0.00    +0.000 A 
ATOM     21  C   UNL     1       0.873   9.669  20.323  0.00  0.00    +0.000 A 
ATOM     22  C   UNL     1       1.086  10.250  19.080  0.00  0.00    +0.000 A 
ATOM     23  C   UNL     1       1.736   9.501  18.115  0.00  0.00    +0.000 A 
ATOM     24  N   UNL     1       2.173   8.239  18.310  0.00  0.00    +0.000 NA
ENDBRANCH  17  19
ENDBRANCH  13  14
ENDBRANCH   1  13
TORSDOF 4
ENDMDL
MODEL 4
REMARK VINA RESULT:      -7.4      5.893      8.554
REMARK  Name = 
REMARK  5 active torsions:
REMARK  status: ('A' for Active; 'I' for Inactive)
REMARK    1  A    between atoms: C_1  and  C_2
REMARK    2  A    between atoms: C_8  and  N_9
REMARK    3  A    between atoms: N_9  and  C_10
REMARK    4  A    between atoms: C_10  and  C_11
REMARK    5  A    between atoms: C_14  and  C_15
REMARK                            x       y       z     vdW  Elec       q    Type
REMARK                         _______ _______ _______ _____ _____    ______ ____
ROOT
ATOM      1  N   UNL     1       7.968   9.434  17.952  0.00  0.00    +0.000 NA
ATOM      2  H   UNL     1       6.955   9.438  18.066  0.00  0.00    +0.000 HD
ENDROOT
BRANCH   1  10
ATOM      3  C   UNL     1      11.760  13.278  16.531  0.00  0.00    +0.000 C 
ATOM      4  C   UNL     1      11.422  13.083  17.955  0.00  0.00    +0.000 A 
ATOM      5  N   UNL     1      11.959  13.727  18.972  0.00  0.00    +0.000 NA
ATOM      6  N   UNL     1      11.411  13.238  20.134  0.00  0.00    +0.000 NA
ATOM      7  C   UNL     1      10.551  12.303  19.808  0.00  0.00    +0.000 A 
ATOM      8  N   UNL     1      10.506  12.188  18.443  0.00  0.00    +0.000 N 
ATOM      9  C   UNL     1       9.685  11.228  17.732  0.00  0.00    +0.000 C 
ATOM     10  C   UNL     1       8.573  10.602  18.624  0.00  0.00    +0.000 C 
ATOM     11  C   UNL     1       9.171  10.246  20.003  0.00  0.00    +0.000 C 
ATOM     12  C   UNL     1       9.707  11.491  20.707  0.00  0.00    +0.000 C 
ENDBRANCH   1  10
BRANCH   1  13
ATOM     13  C   UNL     1       8.482   8.147  18.445  0.00  0.00    +0.000 C 
BRANCH  13  14
ATOM     14  C   UNL     1       7.677   7.004  17.892  0.00  0.00    +0.000 A 
ATOM     15  C   UNL     1       6.942   6.102  18.635  0.00  0.00    +0.000 A 
ATOM     16  S   UNL     1       6.264   4.905  17.624  0.00  0.00    +0.000 S 
ATOM     17  C   UNL     1       7.009   5.638  16.248  0.00  0.00    +0.000 A 
ATOM     18  N   UNL     1       7.711   6.725  16.526  0.00  0.00    +0.000 NA
BRANCH  17  19
ATOM     19  C   UNL     1       6.853   5.045  14.901  0.00  0.00    +0.000 A 
ATOM     20  C   UNL     1       5.802   4.174  14.623  0.00  0.00    +0.000 A 
ATOM     21  C   UNL     1       5.685   3.646  13.335  0.00  0.00    +0.000 A 
ATOM     22  C   UNL     1       6.613   4.000  12.365  0.00  0.00    +0.000 A 
ATOM     23  C   UNL     1       7.626   4.873  12.722  0.00  0.00    +0.000 A 
ATOM     24  N   UNL     1       7.767   5.398  13.958  0.00  0.00    +0.000 NA
ENDBRANCH  17  19
ENDBRANCH  13  14
ENDBRANCH   1  13
TORSDOF 4
ENDMDL
MODEL 5
REMARK VINA RESULT:      -7.4      2.472      3.844
REMARK  Name = 
REMARK  5 active torsions:
REMARK  status: ('A' for Active; 'I' for Inactive)
REMARK    1  A    between atoms: C_1  and  C_2
REMARK    2  A    between atoms: C_8  and  N_9
REMARK    3  A    between atoms: N_9  and  C_10
REMARK    4  A    between atoms: C_10  and  C_11
REMARK    5  A    between atoms: C_14  and  C_15
REMARK                            x       y       z     vdW  Elec       q    Type
REMARK                         _______ _______ _______ _____ _____    ______ ____
ROOT
ATOM      1  N   UNL     1       2.744   5.671  18.712  0.00  0.00    +0.000 NA
ATOM      2  H   UNL     1       2.144   6.080  17.996  0.00  0.00    +0.000 HD
ENDROOT
BRANCH   1  10
ATOM      3  C   UNL     1       5.650   4.177  14.185  0.00  0.00    +0.000 C 
ATOM      4  C   UNL     1       6.363   4.448  15.448  0.00  0.00    +0.000 A 
ATOM      5  N   UNL     1       7.663   4.347  15.639  0.00  0.00    +0.000 NA
ATOM      6  N   UNL     1       7.934   4.643  16.953  0.00  0.00    +0.000 NA
ATOM      7  C   UNL     1       6.796   4.919  17.544  0.00  0.00    +0.000 A 
ATOM      8  N   UNL     1       5.780   4.832  16.628  0.00  0.00    +0.000 N 
ATOM      9  C   UNL     1       4.380   5.042  16.940  0.00  0.00    +0.000 C 
ATOM     10  C   UNL     1       4.163   5.750  18.309  0.00  0.00    +0.000 C 
ATOM     11  C   UNL     1       5.110   5.125  19.357  0.00  0.00    +0.000 C 
ATOM     12  C   UNL     1       6.572   5.303  18.952  0.00  0.00    +0.000 C 
ENDBRANCH   1  10
BRANCH   1  13
ATOM     13  C   UNL     1       2.462   6.344  19.989  0.00  0.00    +0.000 C 
BRANCH  13  14
ATOM     14  C   UNL     1       1.856   7.700  19.756  0.00  0.00    +0.000 A 
ATOM     15  C   UNL     1       1.957   8.440  18.594  0.00  0.00    +0.000 A 
ATOM     16  S   UNL     1       1.209   9.962  18.787  0.00  0.00    +0.000 S 
ATOM     17  C   UNL     1       0.811   9.566  20.421  0.00  0.00    +0.000 A 
ATOM     18  N   UNL     1       1.200   8.357  20.796  0.00  0.00    +0.000 NA
BRANCH  17  19
ATOM     19  C   UNL     1       0.109  10.542  21.283  0.00  0.00    +0.000 A 
ATOM     20  C   UNL     1      -0.639  10.117  22.379  0.00  0.00    +0.000 A 
ATOM     21  C   UNL     1      -1.276  11.073  23.174  0.00  0.00    +0.000 A 
ATOM     22  C   UNL     1      -1.148  12.419  22.858  0.00  0.00    +0.000 A 
ATOM     23  C   UNL     1      -0.385  12.758  21.754  0.00  0.00    +0.000 A 
ATOM     24  N   UNL     1       0.240  11.858  20.966  0.00  0.00    +0.000 NA
ENDBRANCH  17  19
ENDBRANCH  13  14
ENDBRANCH   1  13
TORSDOF 4
ENDMDL
MODEL 6
REMARK VINA RESULT:      -7.3      3.556      6.151
REMARK  Name = 
REMARK  5 active torsions:
REMARK  status: ('A' for Active; 'I' for Inactive)
REMARK    1  A    between atoms: C_1  and  C_2
REMARK    2  A    between atoms: C_8  and  N_9
REMARK    3  A    between atoms: N_9  and  C_10
REMARK    4  A    between atoms: C_10  and  C_11
REMARK    5  A    between atoms: C_14  and  C_15
REMARK                            x       y       z     vdW  Elec       q    Type
REMARK                         _______ _______ _______ _____ _____    ______ ____
ROOT
ATOM      1  N   UNL     1       2.694   7.670  18.859  0.00  0.00    +0.000 NA
ATOM      2  H   UNL     1       2.133   7.753  19.707  0.00  0.00    +0.000 HD
ENDROOT
BRANCH   1  10
ATOM      3  C   UNL     1       1.451   2.679  21.030  0.00  0.00    +0.000 C 
ATOM      4  C   UNL     1       2.207   2.752  19.765  0.00  0.00    +0.000 A 
ATOM      5  N   UNL     1       2.663   1.725  19.076  0.00  0.00    +0.000 NA
ATOM      6  N   UNL     1       3.346   2.203  17.983  0.00  0.00    +0.000 NA
ATOM      7  C   UNL     1       3.298   3.513  18.023  0.00  0.00    +0.000 A 
ATOM      8  N   UNL     1       2.570   3.904  19.116  0.00  0.00    +0.000 N 
ATOM      9  C   UNL     1       2.339   5.286  19.491  0.00  0.00    +0.000 C 
ATOM     10  C   UNL     1       2.657   6.287  18.342  0.00  0.00    +0.000 C 
ATOM     11  C   UNL     1       3.982   5.875  17.664  0.00  0.00    +0.000 C 
ATOM     12  C   UNL     1       3.879   4.474  17.064  0.00  0.00    +0.000 C 
ENDBRANCH   1  10
BRANCH   1  13
ATOM     13  C   UNL     1       2.214   8.668  17.891  0.00  0.00    +0.000 C 
BRANCH  13  14
ATOM     14  C   UNL     1       1.049   9.437  18.450  0.00  0.00    +0.000 A 
ATOM     15  C   UNL     1       0.893   9.821  19.767  0.00  0.00    +0.000 A 
ATOM     16  S   UNL     1      -0.616  10.586  19.993  0.00  0.00    +0.000 S 
ATOM     17  C   UNL     1      -0.995  10.344  18.325  0.00  0.00    +0.000 A 
ATOM     18  N   UNL     1      -0.041   9.739  17.634  0.00  0.00    +0.000 NA
BRANCH  17  19
ATOM     19  C   UNL     1      -2.298  10.781  17.777  0.00  0.00    +0.000 A 
ATOM     20  C   UNL     1      -2.636  10.524  16.450  0.00  0.00    +0.000 A 
ATOM     21  C   UNL     1      -3.882  10.943  15.977  0.00  0.00    +0.000 A 
ATOM     22  C   UNL     1      -4.752  11.602  16.836  0.00  0.00    +0.000 A 
ATOM     23  C   UNL     1      -4.341  11.816  18.139  0.00  0.00    +0.000 A 
ATOM     24  N   UNL     1      -3.144  11.425  18.626  0.00  0.00    +0.000 NA
ENDBRANCH  17  19
ENDBRANCH  13  14
ENDBRANCH   1  13
TORSDOF 4
ENDMDL
MODEL 7
REMARK VINA RESULT:      -7.2      4.540      6.711
REMARK  Name = 
REMARK  5 active torsions:
REMARK  status: ('A' for Active; 'I' for Inactive)
REMARK    1  A    between atoms: C_1  and  C_2
REMARK    2  A    between atoms: C_8  and  N_9
REMARK    3  A    between atoms: N_9  and  C_10
REMARK    4  A    between atoms: C_10  and  C_11
REMARK    5  A    between atoms: C_14  and  C_15
REMARK                            x       y       z     vdW  Elec       q    Type
REMARK                         _______ _______ _______ _____ _____    ______ ____
ROOT
ATOM      1  N   UNL     1       2.149   7.889  20.803  0.00  0.00    +0.000 NA
ATOM      2  H   UNL     1       2.824   7.631  21.523  0.00  0.00    +0.000 HD
ENDROOT
BRANCH   1  10
ATOM      3  C   UNL     1       1.518   2.425  21.758  0.00  0.00    +0.000 C 
ATOM      4  C   UNL     1       1.695   2.904  20.374  0.00  0.00    +0.000 A 
ATOM      5  N   UNL     1       1.748   2.149  19.295  0.00  0.00    +0.000 NA
ATOM      6  N   UNL     1       1.959   2.960  18.206  0.00  0.00    +0.000 NA
ATOM      7  C   UNL     1       2.034   4.196  18.637  0.00  0.00    +0.000 A 
ATOM      8  N   UNL     1       1.849   4.212  19.994  0.00  0.00    +0.000 N 
ATOM      9  C   UNL     1       1.899   5.410  20.811  0.00  0.00    +0.000 C 
ATOM     10  C   UNL     1       1.797   6.719  19.974  0.00  0.00    +0.000 C 
ATOM     11  C   UNL     1       2.693   6.590  18.722  0.00  0.00    +0.000 C 
ATOM     12  C   UNL     1       2.245   5.424  17.844  0.00  0.00    +0.000 C 
ENDBRANCH   1  10
BRANCH   1  13
ATOM     13  C   UNL     1       0.989   8.509  21.461  0.00  0.00    +0.000 C 
BRANCH  13  14
ATOM     14  C   UNL     1       0.455   9.649  20.640  0.00  0.00    +0.000 A 
ATOM     15  C   UNL     1       0.807  10.978  20.779  0.00  0.00    +0.000 A 
ATOM     16  S   UNL     1      -0.107  11.953  19.717  0.00  0.00    +0.000 S 
ATOM     17  C   UNL     1      -0.945  10.555  19.144  0.00  0.00    +0.000 A 
ATOM     18  N   UNL     1      -0.552   9.420  19.703  0.00  0.00    +0.000 NA
BRANCH  17  19
ATOM     19  C   UNL     1      -2.013  10.680  18.128  0.00  0.00    +0.000 A 
ATOM     20  C   UNL     1      -1.955   9.955  16.940  0.00  0.00    +0.000 A 
ATOM     21  C   UNL     1      -2.990  10.093  16.012  0.00  0.00    +0.000 A 
ATOM     22  C   UNL     1      -4.050  10.945  16.294  0.00  0.00    +0.000 A 
ATOM     23  C   UNL     1      -4.033  11.627  17.498  0.00  0.00    +0.000 A 
ATOM     24  N   UNL     1      -3.046  11.516  18.413  0.00  0.00    +0.000 NA
ENDBRANCH  17  19
ENDBRANCH  13  14
ENDBRANCH   1  13
TORSDOF 4
ENDMDL
MODEL 8
REMARK VINA RESULT:      -7.1      2.213      3.816
REMARK  Name = 
REMARK  5 active torsions:
REMARK  status: ('A' for Active; 'I' for Inactive)
REMARK    1  A    between atoms: C_1  and  C_2
REMARK    2  A    between atoms: C_8  and  N_9
REMARK    3  A    between atoms: N_9  and  C_10
REMARK    4  A    between atoms: C_10  and  C_11
REMARK    5  A    between atoms: C_14  and  C_15
REMARK                            x       y       z     vdW  Elec       q    Type
REMARK                         _______ _______ _______ _____ _____    ______ ____
ROOT
ATOM      1  N   UNL     1       3.851   4.900  20.380  0.00  0.00    +0.000 NA
ATOM      2  H   UNL     1       3.923   4.190  21.109  0.00  0.00    +0.000 HD
ENDROOT
BRANCH   1  10
ATOM      3  C   UNL     1       7.808   7.636  17.547  0.00  0.00    +0.000 C 
ATOM      4  C   UNL     1       7.201   6.426  16.960  0.00  0.00    +0.000 A 
ATOM      5  N   UNL     1       7.484   5.914  15.779  0.00  0.00    +0.000 NA
ATOM      6  N   UNL     1       6.683   4.815  15.579  0.00  0.00    +0.000 NA
ATOM      7  C   UNL     1       5.923   4.675  16.638  0.00  0.00    +0.000 A 
ATOM      8  N   UNL     1       6.232   5.654  17.546  0.00  0.00    +0.000 N 
ATOM      9  C   UNL     1       5.564   5.823  18.823  0.00  0.00    +0.000 C 
ATOM     10  C   UNL     1       4.736   4.573  19.244  0.00  0.00    +0.000 C 
ATOM     11  C   UNL     1       3.955   4.047  18.019  0.00  0.00    +0.000 C 
ATOM     12  C   UNL     1       4.906   3.636  16.897  0.00  0.00    +0.000 C 
ENDBRANCH   1  10
BRANCH   1  13
ATOM     13  C   UNL     1       2.436   5.027  20.000  0.00  0.00    +0.000 C 
BRANCH  13  14
ATOM     14  C   UNL     1       2.070   6.468  19.775  0.00  0.00    +0.000 A 
ATOM     15  C   UNL     1       2.462   7.242  18.701  0.00  0.00    +0.000 A 
ATOM     16  S   UNL     1       1.910   8.846  18.886  0.00  0.00    +0.000 S 
ATOM     17  C   UNL     1       1.197   8.432  20.405  0.00  0.00    +0.000 A 
ATOM     18  N   UNL     1       1.349   7.162  20.746  0.00  0.00    +0.000 NA
BRANCH  17  19
ATOM     19  C   UNL     1       0.505   9.457  21.217  0.00  0.00    +0.000 A 
ATOM     20  C   UNL     1      -0.164   9.107  22.388  0.00  0.00    +0.000 A 
ATOM     21  C   UNL     1      -0.794  10.108  23.131  0.00  0.00    +0.000 A 
ATOM     22  C   UNL     1      -0.739  11.423  22.689  0.00  0.00    +0.000 A 
ATOM     23  C   UNL     1      -0.053  11.687  21.517  0.00  0.00    +0.000 A 
ATOM     24  N   UNL     1       0.564  10.742  20.776  0.00  0.00    +0.000 NA
ENDBRANCH  17  19
ENDBRANCH  13  14
ENDBRANCH   1  13
TORSDOF 4
ENDMDL
MODEL 9
REMARK VINA RESULT:      -7.1      2.372      8.544
REMARK  Name = 
REMARK  5 active torsions:
REMARK  status: ('A' for Active; 'I' for Inactive)
REMARK    1  A    between atoms: C_1  and  C_2
REMARK    2  A    between atoms: C_8  and  N_9
REMARK    3  A    between atoms: N_9  and  C_10
REMARK    4  A    between atoms: C_10  and  C_11
REMARK    5  A    between atoms: C_14  and  C_15
REMARK                            x       y       z     vdW  Elec       q    Type
REMARK                         _______ _______ _______ _____ _____    ______ ____
ROOT
ATOM      1  N   UNL     1       2.018   7.504  20.576  0.00  0.00    +0.000 NA
ATOM      2  H   UNL     1       2.206   7.693  19.592  0.00  0.00    +0.000 HD
ENDROOT
BRANCH   1  10
ATOM      3  C   UNL     1      -1.018  11.671  18.434  0.00  0.00    +0.000 C 
ATOM      4  C   UNL     1      -1.021  11.446  19.893  0.00  0.00    +0.000 A 
ATOM      5  N   UNL     1      -1.668  12.169  20.785  0.00  0.00    +0.000 NA
ATOM      6  N   UNL     1      -1.389  11.669  22.034  0.00  0.00    +0.000 NA
ATOM      7  C   UNL     1      -0.574  10.652  21.886  0.00  0.00    +0.000 A 
ATOM      8  N   UNL     1      -0.334  10.459  20.550  0.00  0.00    +0.000 N 
ATOM      9  C   UNL     1       0.550   9.439  20.019  0.00  0.00    +0.000 C 
ATOM     10  C   UNL     1       0.900   8.338  21.062  0.00  0.00    +0.000 C 
ATOM     11  C   UNL     1       1.209   9.007  22.420  0.00  0.00    +0.000 C 
ATOM     12  C   UNL     1       0.001   9.787  22.935  0.00  0.00    +0.000 C 
ENDBRANCH   1  10
BRANCH   1  13
ATOM     13  C   UNL     1       1.781   6.061  20.730  0.00  0.00    +0.000 C 
BRANCH  13  14
ATOM     14  C   UNL     1       2.218   5.313  19.502  0.00  0.00    +0.000 A 
ATOM     15  C   UNL     1       1.568   4.231  18.942  0.00  0.00    +0.000 A 
ATOM     16  S   UNL     1       2.454   3.621  17.617  0.00  0.00    +0.000 S 
ATOM     17  C   UNL     1       3.675   4.816  17.875  0.00  0.00    +0.000 A 
ATOM     18  N   UNL     1       3.426   5.636  18.884  0.00  0.00    +0.000 NA
BRANCH  17  19
ATOM     19  C   UNL     1       4.881   4.858  17.019  0.00  0.00    +0.000 A 
ATOM     20  C   UNL     1       4.963   4.084  15.864  0.00  0.00    +0.000 A 
ATOM     21  C   UNL     1       6.115   4.164  15.077  0.00  0.00    +0.000 A 
ATOM     22  C   UNL     1       7.147   5.009  15.462  0.00  0.00    +0.000 A 
ATOM     23  C   UNL     1       6.986   5.746  16.622  0.00  0.00    +0.000 A 
ATOM     24  N   UNL     1       5.886   5.689  17.403  0.00  0.00    +0.000 NA
ENDBRANCH  17  19
ENDBRANCH  13  14
ENDBRANCH   1  13
TORSDOF 4
ENDMDL
