MODEL 1
REMARK VINA RESULT:      -7.7      0.000      0.000
REMARK  Name = 
REMARK  10 active torsions:
REMARK  status: ('A' for Active; 'I' for Inactive)
REMARK    1  A    between atoms: C_2  and  O_3
REMARK    2  A    between atoms: C_2  and  C_4
REMARK    3  A    between atoms: C_4  and  C_5
REMARK    4  A    between atoms: C_5  and  C_6
REMARK    5  A    between atoms: C_5  and  C_25
REMARK    6  A    between atoms: C_6  and  N_7
REMARK    7  A    between atoms: C_8  and  C_10
REMARK    8  A    between atoms: C_15  and  O_17
REMARK    9  A    between atoms: O_17  and  C_18
REMARK   10  A    between atoms: C_18  and  C_19
REMARK                            x       y       z     vdW  Elec       q    Type
REMARK                         _______ _______ _______ _____ _____    ______ ____
ROOT
ATOM      1  N   UNL     1       2.138   6.779  19.152  0.00  0.00    +0.000 N 
ATOM      2  C   UNL     1       1.902   5.602  19.851  0.00  0.00    +0.000 C 
ATOM      3  O   UNL     1       1.562   5.571  21.029  0.00  0.00    +0.000 OA
ATOM      4  H   UNL     1       2.912   6.711  18.502  0.00  0.00    +0.000 HD
ENDROOT
BRANCH   2   5
ATOM      5  C   UNL     1       2.081   4.349  18.974  0.00  0.00    +0.000 C 
ATOM      6  C   UNL     1       0.796   3.519  19.068  0.00  0.00    +0.000 C 
ATOM      7  C   UNL     1       1.235   2.110  18.701  0.00  0.00    +0.000 C 
ATOM      8  C   UNL     1       2.686   2.032  19.157  0.00  0.00    +0.000 C 
ATOM      9  N   UNL     1       3.103   3.399  19.385  0.00  0.00    +0.000 N 
ATOM     10  C   UNL     1       4.427   3.685  19.607  0.00  0.00    +0.000 C 
ATOM     11  O   UNL     1       5.287   2.825  19.754  0.00  0.00    +0.000 OA
BRANCH  10  12
ATOM     12  O   UNL     1       4.658   5.022  19.661  0.00  0.00    +0.000 OA
BRANCH  12  13
ATOM     13  C   UNL     1       5.945   5.435  19.175  0.00  0.00    +0.000 C 
BRANCH  13  14
ATOM     14  C   UNL     1       6.001   5.378  17.668  0.00  0.00    +0.000 A 
ATOM     15  C   UNL     1       6.927   4.554  17.015  0.00  0.00    +0.000 A 
ATOM     16  C   UNL     1       7.004   4.536  15.623  0.00  0.00    +0.000 A 
ATOM     17  C   UNL     1       6.140   5.326  14.870  0.00  0.00    +0.000 A 
ATOM     18  C   UNL     1       5.192   6.124  15.507  0.00  0.00    +0.000 A 
ATOM     19  C   UNL     1       5.118   6.148  16.901  0.00  0.00    +0.000 A 
ENDBRANCH  13  14
ENDBRANCH  12  13
ENDBRANCH  10  12
ENDBRANCH   2   5
BRANCH   1  20
ATOM     20  C   UNL     1       1.985   8.059  19.824  0.00  0.00    +0.000 C 
BRANCH  20  21
ATOM     21  C   UNL     1       0.614   8.723  19.560  0.00  0.00    +0.000 C 
BRANCH  21  22
ATOM     22  C   UNL     1       0.128   9.458  20.814  0.00  0.00    +0.000 A 
ATOM     23  C   UNL     1      -0.161  10.830  20.739  0.00  0.00    +0.000 A 
ATOM     24  C   UNL     1      -0.624  11.526  21.859  0.00  0.00    +0.000 A 
ATOM     25  C   UNL     1      -0.805  10.864  23.071  0.00  0.00    +0.000 A 
ATOM     26  C   UNL     1      -0.527   9.507  23.163  0.00  0.00    +0.000 A 
ATOM     27  C   UNL     1      -0.071   8.808  22.043  0.00  0.00    +0.000 A 
ENDBRANCH  21  22
BRANCH  21  28
ATOM     28  C   UNL     1       0.614   9.644  18.323  0.00  0.00    +0.000 C 
BRANCH  28  30
ATOM     29  O   UNL     1       2.643   9.026  17.156  0.00  0.00    +0.000 OA
ATOM     30  C   UNL     1       1.975   9.872  17.724  0.00  0.00    +0.000 C 
BRANCH  30  31
ATOM     31  O   UNL     1       2.377  11.162  17.838  0.00  0.00    +0.000 OA
ATOM     32  H   UNL     1       2.995  11.455  17.146  0.00  0.00    +0.000 HD
ENDBRANCH  30  31
ENDBRANCH  28  30
ENDBRANCH  21  28
ENDBRANCH  20  21
ENDBRANCH   1  20
TORSDOF 10
ENDMDL
MODEL 2
REMARK VINA RESULT:      -7.6      2.373      5.144
REMARK  Name = 
REMARK  10 active torsions:
REMARK  status: ('A' for Active; 'I' for Inactive)
REMARK    1  A    between atoms: C_2  and  O_3
REMARK    2  A    between atoms: C_2  and  C_4
REMARK    3  A    between atoms: C_4  and  C_5
REMARK    4  A    between atoms: C_5  and  C_6
REMARK    5  A    between atoms: C_5  and  C_25
REMARK    6  A    between atoms: C_6  and  N_7
REMARK    7  A    between atoms: C_8  and  C_10
REMARK    8  A    between atoms: C_15  and  O_17
REMARK    9  A    between atoms: O_17  and  C_18
REMARK   10  A    between atoms: C_18  and  C_19
REMARK                            x       y       z     vdW  Elec       q    Type
REMARK                         _______ _______ _______ _____ _____    ______ ____
ROOT
ATOM      1  N   UNL     1       4.588   5.369  19.396  0.00  0.00    +0.000 N 
ATOM      2  C   UNL     1       5.595   4.519  18.959  0.00  0.00    +0.000 C 
ATOM      3  O   UNL     1       5.566   3.302  19.111  0.00  0.00    +0.000 OA
ATOM      4  H   UNL     1       4.935   6.250  19.758  0.00  0.00    +0.000 HD
ENDROOT
BRANCH   2   5
ATOM      5  C   UNL     1       6.730   5.269  18.237  0.00  0.00    +0.000 C 
ATOM      6  C   UNL     1       7.508   6.070  19.286  0.00  0.00    +0.000 C 
ATOM      7  C   UNL     1       8.177   7.178  18.487  0.00  0.00    +0.000 C 
ATOM      8  C   UNL     1       7.231   7.431  17.321  0.00  0.00    +0.000 C 
ATOM      9  N   UNL     1       6.338   6.293  17.282  0.00  0.00    +0.000 N 
ATOM     10  C   UNL     1       5.495   6.118  16.213  0.00  0.00    +0.000 C 
ATOM     11  O   UNL     1       5.353   6.948  15.324  0.00  0.00    +0.000 OA
BRANCH  10  12
ATOM     12  O   UNL     1       4.835   4.933  16.272  0.00  0.00    +0.000 OA
BRANCH  12  13
ATOM     13  C   UNL     1       5.592   3.793  15.836  0.00  0.00    +0.000 C 
BRANCH  13  14
ATOM     14  C   UNL     1       6.130   4.001  14.441  0.00  0.00    +0.000 A 
ATOM     15  C   UNL     1       7.310   4.726  14.227  0.00  0.00    +0.000 A 
ATOM     16  C   UNL     1       7.781   4.953  12.935  0.00  0.00    +0.000 A 
ATOM     17  C   UNL     1       7.087   4.437  11.844  0.00  0.00    +0.000 A 
ATOM     18  C   UNL     1       5.931   3.685  12.044  0.00  0.00    +0.000 A 
ATOM     19  C   UNL     1       5.455   3.464  13.338  0.00  0.00    +0.000 A 
ENDBRANCH  13  14
ENDBRANCH  12  13
ENDBRANCH  10  12
ENDBRANCH   2   5
BRANCH   1  20
ATOM     20  C   UNL     1       3.424   4.821  20.074  0.00  0.00    +0.000 C 
BRANCH  20  21
ATOM     21  C   UNL     1       2.094   5.150  19.358  0.00  0.00    +0.000 C 
BRANCH  21  22
ATOM     22  C   UNL     1       1.946   6.664  19.180  0.00  0.00    +0.000 A 
ATOM     23  C   UNL     1       1.556   7.452  20.275  0.00  0.00    +0.000 A 
ATOM     24  C   UNL     1       1.430   8.839  20.152  0.00  0.00    +0.000 A 
ATOM     25  C   UNL     1       1.691   9.460  18.933  0.00  0.00    +0.000 A 
ATOM     26  C   UNL     1       2.079   8.699  17.840  0.00  0.00    +0.000 A 
ATOM     27  C   UNL     1       2.213   7.313  17.963  0.00  0.00    +0.000 A 
ENDBRANCH  21  22
BRANCH  21  28
ATOM     28  C   UNL     1       1.922   4.399  18.021  0.00  0.00    +0.000 C 
BRANCH  28  30
ATOM     29  O   UNL     1       1.150   2.188  18.634  0.00  0.00    +0.000 OA
ATOM     30  C   UNL     1       2.006   2.902  18.141  0.00  0.00    +0.000 C 
BRANCH  30  31
ATOM     31  O   UNL     1       3.138   2.405  17.585  0.00  0.00    +0.000 OA
ATOM     32  H   UNL     1       2.991   1.701  16.928  0.00  0.00    +0.000 HD
ENDBRANCH  30  31
ENDBRANCH  28  30
ENDBRANCH  21  28
ENDBRANCH  20  21
ENDBRANCH   1  20
TORSDOF 10
ENDMDL
MODEL 3
REMARK VINA RESULT:      -7.6      2.327      5.066
REMARK  Name = 
REMARK  10 active torsions:
REMARK  status: ('A' for Active; 'I' for Inactive)
REMARK    1  A    between atoms: C_2  and  O_3
REMARK    2  A    between atoms: C_2  and  C_4
REMARK    3  A    between atoms: C_4  and  C_5
REMARK    4  A    between atoms: C_5  and  C_6
REMARK    5  A    between atoms: C_5  and  C_25
REMARK    6  A    between atoms: C_6  and  N_7
REMARK    7  A    between atoms: C_8  and  C_10
REMARK    8  A    between atoms: C_15  and  O_17
REMARK    9  A    between atoms: O_17  and  C_18
REMARK   10  A    between atoms: C_18  and  C_19
REMARK                            x       y       z     vdW  Elec       q    Type
REMARK                         _______ _______ _______ _____ _____    ______ ____
ROOT
ATOM      1  N   UNL     1       4.563   5.373  19.416  0.00  0.00    +0.000 N 
ATOM      2  C   UNL     1       5.569   4.513  18.995  0.00  0.00    +0.000 C 
ATOM      3  O   UNL     1       5.528   3.297  19.150  0.00  0.00    +0.000 OA
ATOM      4  H   UNL     1       4.912   6.252  19.779  0.00  0.00    +0.000 HD
ENDROOT
BRANCH   2   5
ATOM      5  C   UNL     1       6.718   5.252  18.284  0.00  0.00    +0.000 C 
ATOM      6  C   UNL     1       7.509   6.025  19.344  0.00  0.00    +0.000 C 
ATOM      7  C   UNL     1       8.199   7.131  18.560  0.00  0.00    +0.000 C 
ATOM      8  C   UNL     1       7.259   7.416  17.396  0.00  0.00    +0.000 C 
ATOM      9  N   UNL     1       6.347   6.295  17.341  0.00  0.00    +0.000 N 
ATOM     10  C   UNL     1       5.502   6.148  16.269  0.00  0.00    +0.000 C 
ATOM     11  O   UNL     1       5.377   6.993  15.390  0.00  0.00    +0.000 OA
BRANCH  10  12
ATOM     12  O   UNL     1       4.821   4.975  16.312  0.00  0.00    +0.000 OA
BRANCH  12  13
ATOM     13  C   UNL     1       5.565   3.824  15.883  0.00  0.00    +0.000 C 
BRANCH  13  14
ATOM     14  C   UNL     1       6.109   4.019  14.488  0.00  0.00    +0.000 A 
ATOM     15  C   UNL     1       7.300   4.725  14.274  0.00  0.00    +0.000 A 
ATOM     16  C   UNL     1       7.776   4.940  12.982  0.00  0.00    +0.000 A 
ATOM     17  C   UNL     1       7.077   4.431  11.891  0.00  0.00    +0.000 A 
ATOM     18  C   UNL     1       5.909   3.697  12.093  0.00  0.00    +0.000 A 
ATOM     19  C   UNL     1       5.428   3.487  13.386  0.00  0.00    +0.000 A 
ENDBRANCH  13  14
ENDBRANCH  12  13
ENDBRANCH  10  12
ENDBRANCH   2   5
BRANCH   1  20
ATOM     20  C   UNL     1       3.387   4.836  20.082  0.00  0.00    +0.000 C 
BRANCH  20  21
ATOM     21  C   UNL     1       2.068   5.178  19.352  0.00  0.00    +0.000 C 
BRANCH  21  22
ATOM     22  C   UNL     1       1.909   6.696  19.223  0.00  0.00    +0.000 A 
ATOM     23  C   UNL     1       2.127   7.308  17.978  0.00  0.00    +0.000 A 
ATOM     24  C   UNL     1       1.973   8.688  17.820  0.00  0.00    +0.000 A 
ATOM     25  C   UNL     1       1.598   9.479  18.904  0.00  0.00    +0.000 A 
ATOM     26  C   UNL     1       1.376   8.892  20.142  0.00  0.00    +0.000 A 
ATOM     27  C   UNL     1       1.523   7.512  20.299  0.00  0.00    +0.000 A 
ENDBRANCH  21  22
BRANCH  21  28
ATOM     28  C   UNL     1       1.928   4.472  17.988  0.00  0.00    +0.000 C 
BRANCH  28  30
ATOM     29  O   UNL     1       2.618   2.198  17.528  0.00  0.00    +0.000 OA
ATOM     30  C   UNL     1       1.854   2.972  18.075  0.00  0.00    +0.000 C 
BRANCH  30  31
ATOM     31  O   UNL     1       0.852   2.554  18.889  0.00  0.00    +0.000 OA
ATOM     32  H   UNL     1       1.040   2.645  19.840  0.00  0.00    +0.000 HD
ENDBRANCH  30  31
ENDBRANCH  28  30
ENDBRANCH  21  28
ENDBRANCH  20  21
ENDBRANCH   1  20
TORSDOF 10
ENDMDL
MODEL 4
REMARK VINA RESULT:      -7.5      1.058      1.131
REMARK  Name = 
REMARK  10 active torsions:
REMARK  status: ('A' for Active; 'I' for Inactive)
REMARK    1  A    between atoms: C_2  and  O_3
REMARK    2  A    between atoms: C_2  and  C_4
REMARK    3  A    between atoms: C_4  and  C_5
REMARK    4  A    between atoms: C_5  and  C_6
REMARK    5  A    between atoms: C_5  and  C_25
REMARK    6  A    between atoms: C_6  and  N_7
REMARK    7  A    between atoms: C_8  and  C_10
REMARK    8  A    between atoms: C_15  and  O_17
REMARK    9  A    between atoms: O_17  and  C_18
REMARK   10  A    between atoms: C_18  and  C_19
REMARK                            x       y       z     vdW  Elec       q    Type
REMARK                         _______ _______ _______ _____ _____    ______ ____
ROOT
ATOM      1  N   UNL     1       2.230   6.949  18.907  0.00  0.00    +0.000 N 
ATOM      2  C   UNL     1       2.051   5.820  19.694  0.00  0.00    +0.000 C 
ATOM      3  O   UNL     1       1.803   5.864  20.895  0.00  0.00    +0.000 OA
ATOM      4  H   UNL     1       2.952   6.838  18.204  0.00  0.00    +0.000 HD
ENDROOT
BRANCH   2   5
ATOM      5  C   UNL     1       2.163   4.513  18.887  0.00  0.00    +0.000 C 
ATOM      6  C   UNL     1       0.838   3.756  19.028  0.00  0.00    +0.000 C 
ATOM      7  C   UNL     1       1.204   2.308  18.738  0.00  0.00    +0.000 C 
ATOM      8  C   UNL     1       2.651   2.181  19.197  0.00  0.00    +0.000 C 
ATOM      9  N   UNL     1       3.137   3.536  19.349  0.00  0.00    +0.000 N 
ATOM     10  C   UNL     1       4.475   3.767  19.554  0.00  0.00    +0.000 C 
ATOM     11  O   UNL     1       5.290   2.873  19.747  0.00  0.00    +0.000 OA
BRANCH  10  12
ATOM     12  O   UNL     1       4.773   5.091  19.534  0.00  0.00    +0.000 OA
BRANCH  12  13
ATOM     13  C   UNL     1       6.074   5.412  19.017  0.00  0.00    +0.000 C 
BRANCH  13  14
ATOM     14  C   UNL     1       6.098   5.319  17.511  0.00  0.00    +0.000 A 
ATOM     15  C   UNL     1       7.050   4.527  16.855  0.00  0.00    +0.000 A 
ATOM     16  C   UNL     1       7.096   4.477  15.463  0.00  0.00    +0.000 A 
ATOM     17  C   UNL     1       6.175   5.202  14.712  0.00  0.00    +0.000 A 
ATOM     18  C   UNL     1       5.202   5.967  15.352  0.00  0.00    +0.000 A 
ATOM     19  C   UNL     1       5.159   6.023  16.746  0.00  0.00    +0.000 A 
ENDBRANCH  13  14
ENDBRANCH  12  13
ENDBRANCH  10  12
ENDBRANCH   2   5
BRANCH   1  20
ATOM     20  C   UNL     1       2.128   8.270  19.506  0.00  0.00    +0.000 C 
BRANCH  20  21
ATOM     21  C   UNL     1       0.732   8.910  19.330  0.00  0.00    +0.000 C 
BRANCH  21  22
ATOM     22  C   UNL     1       0.231   9.469  20.665  0.00  0.00    +0.000 A 
ATOM     23  C   UNL     1       0.120  10.859  20.831  0.00  0.00    +0.000 A 
ATOM     24  C   UNL     1      -0.352  11.403  22.029  0.00  0.00    +0.000 A 
ATOM     25  C   UNL     1      -0.720  10.566  23.081  0.00  0.00    +0.000 A 
ATOM     26  C   UNL     1      -0.620   9.190  22.934  0.00  0.00    +0.000 A 
ATOM     27  C   UNL     1      -0.155   8.645  21.734  0.00  0.00    +0.000 A 
ENDBRANCH  21  22
BRANCH  21  28
ATOM     28  C   UNL     1       0.688   9.973  18.213  0.00  0.00    +0.000 C 
BRANCH  28  30
ATOM     29  O   UNL     1      -1.586   9.489  17.540  0.00  0.00    +0.000 OA
ATOM     30  C   UNL     1      -0.697  10.301  17.729  0.00  0.00    +0.000 C 
BRANCH  30  31
ATOM     31  O   UNL     1      -0.883  11.634  17.565  0.00  0.00    +0.000 OA
ATOM     32  H   UNL     1      -0.080  12.127  17.318  0.00  0.00    +0.000 HD
ENDBRANCH  30  31
ENDBRANCH  28  30
ENDBRANCH  21  28
ENDBRANCH  20  21
ENDBRANCH   1  20
TORSDOF 10
ENDMDL
MODEL 5
REMARK VINA RESULT:      -7.5      1.403      1.980
REMARK  Name = 
REMARK  10 active torsions:
REMARK  status: ('A' for Active; 'I' for Inactive)
REMARK    1  A    between atoms: C_2  and  O_3
REMARK    2  A    between atoms: C_2  and  C_4
REMARK    3  A    between atoms: C_4  and  C_5
REMARK    4  A    between atoms: C_5  and  C_6
REMARK    5  A    between atoms: C_5  and  C_25
REMARK    6  A    between atoms: C_6  and  N_7
REMARK    7  A    between atoms: C_8  and  C_10
REMARK    8  A    between atoms: C_15  and  O_17
REMARK    9  A    between atoms: O_17  and  C_18
REMARK   10  A    between atoms: C_18  and  C_19
REMARK                            x       y       z     vdW  Elec       q    Type
REMARK                         _______ _______ _______ _____ _____    ______ ____
ROOT
ATOM      1  N   UNL     1       1.918   6.592  20.156  0.00  0.00    +0.000 N 
ATOM      2  C   UNL     1       1.971   5.752  19.052  0.00  0.00    +0.000 C 
ATOM      3  O   UNL     1       2.073   6.156  17.898  0.00  0.00    +0.000 OA
ATOM      4  H   UNL     1       1.283   6.269  20.877  0.00  0.00    +0.000 HD
ENDROOT
BRANCH   2   5
ATOM      5  C   UNL     1       1.921   4.262  19.440  0.00  0.00    +0.000 C 
ATOM      6  C   UNL     1       0.947   4.112  20.613  0.00  0.00    +0.000 C 
ATOM      7  C   UNL     1       1.376   2.820  21.290  0.00  0.00    +0.000 C 
ATOM      8  C   UNL     1       2.873   2.729  21.025  0.00  0.00    +0.000 C 
ATOM      9  N   UNL     1       3.145   3.678  19.967  0.00  0.00    +0.000 N 
ATOM     10  C   UNL     1       4.373   3.690  19.354  0.00  0.00    +0.000 C 
ATOM     11  O   UNL     1       5.322   3.017  19.735  0.00  0.00    +0.000 OA
BRANCH  10  12
ATOM     12  O   UNL     1       4.407   4.542  18.297  0.00  0.00    +0.000 OA
BRANCH  12  13
ATOM     13  C   UNL     1       5.610   4.488  17.514  0.00  0.00    +0.000 C 
BRANCH  13  14
ATOM     14  C   UNL     1       6.484   5.690  17.777  0.00  0.00    +0.000 A 
ATOM     15  C   UNL     1       6.319   6.872  17.043  0.00  0.00    +0.000 A 
ATOM     16  C   UNL     1       7.156   7.966  17.260  0.00  0.00    +0.000 A 
ATOM     17  C   UNL     1       8.153   7.895  18.228  0.00  0.00    +0.000 A 
ATOM     18  C   UNL     1       8.306   6.737  18.988  0.00  0.00    +0.000 A 
ATOM     19  C   UNL     1       7.472   5.639  18.768  0.00  0.00    +0.000 A 
ENDBRANCH  13  14
ENDBRANCH  12  13
ENDBRANCH  10  12
ENDBRANCH   2   5
BRANCH   1  20
ATOM     20  C   UNL     1       1.983   8.032  19.970  0.00  0.00    +0.000 C 
BRANCH  20  21
ATOM     21  C   UNL     1       0.610   8.665  19.648  0.00  0.00    +0.000 C 
BRANCH  21  22
ATOM     22  C   UNL     1       0.096   9.462  20.852  0.00  0.00    +0.000 A 
ATOM     23  C   UNL     1      -0.478  10.727  20.646  0.00  0.00    +0.000 A 
ATOM     24  C   UNL     1      -0.974  11.472  21.719  0.00  0.00    +0.000 A 
ATOM     25  C   UNL     1      -0.904  10.966  23.015  0.00  0.00    +0.000 A 
ATOM     26  C   UNL     1      -0.343   9.716  23.238  0.00  0.00    +0.000 A 
ATOM     27  C   UNL     1       0.147   8.967  22.165  0.00  0.00    +0.000 A 
ENDBRANCH  21  22
BRANCH  21  28
ATOM     28  C   UNL     1       0.621   9.517  18.362  0.00  0.00    +0.000 C 
BRANCH  28  30
ATOM     29  O   UNL     1       2.560  10.941  18.094  0.00  0.00    +0.000 OA
ATOM     30  C   UNL     1       1.997   9.883  17.877  0.00  0.00    +0.000 C 
BRANCH  30  31
ATOM     31  O   UNL     1       2.587   8.869  17.197  0.00  0.00    +0.000 OA
ATOM     32  H   UNL     1       2.976   9.128  16.343  0.00  0.00    +0.000 HD
ENDBRANCH  30  31
ENDBRANCH  28  30
ENDBRANCH  21  28
ENDBRANCH  20  21
ENDBRANCH   1  20
TORSDOF 10
ENDMDL
MODEL 6
REMARK VINA RESULT:      -7.5      2.069      3.213
REMARK  Name = 
REMARK  10 active torsions:
REMARK  status: ('A' for Active; 'I' for Inactive)
REMARK    1  A    between atoms: C_2  and  O_3
REMARK    2  A    between atoms: C_2  and  C_4
REMARK    3  A    between atoms: C_4  and  C_5
REMARK    4  A    between atoms: C_5  and  C_6
REMARK    5  A    between atoms: C_5  and  C_25
REMARK    6  A    between atoms: C_6  and  N_7
REMARK    7  A    between atoms: C_8  and  C_10
REMARK    8  A    between atoms: C_15  and  O_17
REMARK    9  A    between atoms: O_17  and  C_18
REMARK   10  A    between atoms: C_18  and  C_19
REMARK                            x       y       z     vdW  Elec       q    Type
REMARK                         _______ _______ _______ _____ _____    ______ ____
ROOT
ATOM      1  N   UNL     1       1.943   6.596  19.752  0.00  0.00    +0.000 N 
ATOM      2  C   UNL     1       2.061   5.609  18.782  0.00  0.00    +0.000 C 
ATOM      3  O   UNL     1       2.271   5.847  17.597  0.00  0.00    +0.000 OA
ATOM      4  H   UNL     1       1.240   6.388  20.452  0.00  0.00    +0.000 HD
ENDROOT
BRANCH   2   5
ATOM      5  C   UNL     1       1.932   4.190  19.365  0.00  0.00    +0.000 C 
ATOM      6  C   UNL     1       0.959   4.251  20.548  0.00  0.00    +0.000 C 
ATOM      7  C   UNL     1       1.321   3.038  21.390  0.00  0.00    +0.000 C 
ATOM      8  C   UNL     1       2.809   2.829  21.139  0.00  0.00    +0.000 C 
ATOM      9  N   UNL     1       3.125   3.613  19.964  0.00  0.00    +0.000 N 
ATOM     10  C   UNL     1       4.347   3.475  19.355  0.00  0.00    +0.000 C 
ATOM     11  O   UNL     1       5.261   2.806  19.822  0.00  0.00    +0.000 OA
BRANCH  10  12
ATOM     12  O   UNL     1       4.421   4.176  18.194  0.00  0.00    +0.000 OA
BRANCH  12  13
ATOM     13  C   UNL     1       5.695   4.123  17.533  0.00  0.00    +0.000 C 
BRANCH  13  14
ATOM     14  C   UNL     1       6.468   5.403  17.741  0.00  0.00    +0.000 A 
ATOM     15  C   UNL     1       6.175   6.548  16.989  0.00  0.00    +0.000 A 
ATOM     16  C   UNL     1       6.920   7.715  17.153  0.00  0.00    +0.000 A 
ATOM     17  C   UNL     1       7.950   7.755  18.088  0.00  0.00    +0.000 A 
ATOM     18  C   UNL     1       8.229   6.633  18.867  0.00  0.00    +0.000 A 
ATOM     19  C   UNL     1       7.489   5.462  18.698  0.00  0.00    +0.000 A 
ENDBRANCH  13  14
ENDBRANCH  12  13
ENDBRANCH  10  12
ENDBRANCH   2   5
BRANCH   1  20
ATOM     20  C   UNL     1       2.068   7.995  19.377  0.00  0.00    +0.000 C 
BRANCH  20  21
ATOM     21  C   UNL     1       1.475   8.960  20.428  0.00  0.00    +0.000 C 
BRANCH  21  22
ATOM     22  C   UNL     1       0.710  10.094  19.738  0.00  0.00    +0.000 A 
ATOM     23  C   UNL     1      -0.410   9.787  18.947  0.00  0.00    +0.000 A 
ATOM     24  C   UNL     1      -1.142  10.799  18.319  0.00  0.00    +0.000 A 
ATOM     25  C   UNL     1      -0.767  12.132  18.470  0.00  0.00    +0.000 A 
ATOM     26  C   UNL     1       0.335  12.455  19.249  0.00  0.00    +0.000 A 
ATOM     27  C   UNL     1       1.064  11.445  19.884  0.00  0.00    +0.000 A 
ENDBRANCH  21  22
BRANCH  21  28
ATOM     28  C   UNL     1       0.606   8.248  21.486  0.00  0.00    +0.000 C 
BRANCH  28  30
ATOM     29  O   UNL     1       1.163   9.701  23.339  0.00  0.00    +0.000 OA
ATOM     30  C   UNL     1       0.329   9.073  22.712  0.00  0.00    +0.000 C 
BRANCH  30  31
ATOM     31  O   UNL     1      -0.988   9.089  23.033  0.00  0.00    +0.000 OA
ATOM     32  H   UNL     1      -1.387   9.977  23.057  0.00  0.00    +0.000 HD
ENDBRANCH  30  31
ENDBRANCH  28  30
ENDBRANCH  21  28
ENDBRANCH  20  21
ENDBRANCH   1  20
TORSDOF 10
ENDMDL
MODEL 7
REMARK VINA RESULT:      -7.5      2.028      3.148
REMARK  Name = 
REMARK  10 active torsions:
REMARK  status: ('A' for Active; 'I' for Inactive)
REMARK    1  A    between atoms: C_2  and  O_3
REMARK    2  A    between atoms: C_2  and  C_4
REMARK    3  A    between atoms: C_4  and  C_5
REMARK    4  A    between atoms: C_5  and  C_6
REMARK    5  A    between atoms: C_5  and  C_25
REMARK    6  A    between atoms: C_6  and  N_7
REMARK    7  A    between atoms: C_8  and  C_10
REMARK    8  A    between atoms: C_15  and  O_17
REMARK    9  A    between atoms: O_17  and  C_18
REMARK   10  A    between atoms: C_18  and  C_19
REMARK                            x       y       z     vdW  Elec       q    Type
REMARK                         _______ _______ _______ _____ _____    ______ ____
ROOT
ATOM      1  N   UNL     1       1.700   6.926  18.685  0.00  0.00    +0.000 N 
ATOM      2  C   UNL     1       2.511   5.917  19.186  0.00  0.00    +0.000 C 
ATOM      3  O   UNL     1       3.654   6.105  19.591  0.00  0.00    +0.000 OA
ATOM      4  H   UNL     1       1.127   6.631  17.904  0.00  0.00    +0.000 HD
ENDROOT
BRANCH   2   5
ATOM      5  C   UNL     1       1.805   4.548  19.207  0.00  0.00    +0.000 C 
ATOM      6  C   UNL     1       1.297   4.301  20.631  0.00  0.00    +0.000 C 
ATOM      7  C   UNL     1       1.163   2.789  20.721  0.00  0.00    +0.000 C 
ATOM      8  C   UNL     1       2.231   2.254  19.776  0.00  0.00    +0.000 C 
ATOM      9  N   UNL     1       2.632   3.378  18.957  0.00  0.00    +0.000 N 
ATOM     10  C   UNL     1       3.436   3.177  17.863  0.00  0.00    +0.000 C 
ATOM     11  O   UNL     1       3.954   2.100  17.596  0.00  0.00    +0.000 OA
BRANCH  10  12
ATOM     12  O   UNL     1       3.597   4.311  17.134  0.00  0.00    +0.000 OA
BRANCH  12  13
ATOM     13  C   UNL     1       4.811   4.373  16.369  0.00  0.00    +0.000 C 
BRANCH  13  14
ATOM     14  C   UNL     1       5.838   5.245  17.050  0.00  0.00    +0.000 A 
ATOM     15  C   UNL     1       5.912   6.617  16.772  0.00  0.00    +0.000 A 
ATOM     16  C   UNL     1       6.889   7.411  17.370  0.00  0.00    +0.000 A 
ATOM     17  C   UNL     1       7.788   6.846  18.270  0.00  0.00    +0.000 A 
ATOM     18  C   UNL     1       7.703   5.490  18.581  0.00  0.00    +0.000 A 
ATOM     19  C   UNL     1       6.729   4.692  17.977  0.00  0.00    +0.000 A 
ENDBRANCH  13  14
ENDBRANCH  12  13
ENDBRANCH  10  12
ENDBRANCH   2   5
BRANCH   1  20
ATOM     20  C   UNL     1       2.202   8.289  18.622  0.00  0.00    +0.000 C 
BRANCH  20  21
ATOM     21  C   UNL     1       1.700   9.176  19.785  0.00  0.00    +0.000 C 
BRANCH  21  22
ATOM     22  C   UNL     1       0.814  10.305  19.249  0.00  0.00    +0.000 A 
ATOM     23  C   UNL     1      -0.493  10.014  18.826  0.00  0.00    +0.000 A 
ATOM     24  C   UNL     1      -1.334  11.024  18.350  0.00  0.00    +0.000 A 
ATOM     25  C   UNL     1      -0.883  12.341  18.289  0.00  0.00    +0.000 A 
ATOM     26  C   UNL     1       0.405  12.648  18.706  0.00  0.00    +0.000 A 
ATOM     27  C   UNL     1       1.244  11.641  19.188  0.00  0.00    +0.000 A 
ENDBRANCH  21  22
BRANCH  21  28
ATOM     28  C   UNL     1       0.992   8.374  20.897  0.00  0.00    +0.000 C 
BRANCH  28  30
ATOM     29  O   UNL     1      -0.127   9.395  22.785  0.00  0.00    +0.000 OA
ATOM     30  C   UNL     1       0.907   9.094  22.215  0.00  0.00    +0.000 C 
BRANCH  30  31
ATOM     31  O   UNL     1       2.130   9.337  22.747  0.00  0.00    +0.000 OA
ATOM     32  H   UNL     1       2.137  10.007  23.454  0.00  0.00    +0.000 HD
ENDBRANCH  30  31
ENDBRANCH  28  30
ENDBRANCH  21  28
ENDBRANCH  20  21
ENDBRANCH   1  20
TORSDOF 10
ENDMDL
MODEL 8
REMARK VINA RESULT:      -7.5      2.231      7.474
REMARK  Name = 
REMARK  10 active torsions:
REMARK  status: ('A' for Active; 'I' for Inactive)
REMARK    1  A    between atoms: C_2  and  O_3
REMARK    2  A    between atoms: C_2  and  C_4
REMARK    3  A    between atoms: C_4  and  C_5
REMARK    4  A    between atoms: C_5  and  C_6
REMARK    5  A    between atoms: C_5  and  C_25
REMARK    6  A    between atoms: C_6  and  N_7
REMARK    7  A    between atoms: C_8  and  C_10
REMARK    8  A    between atoms: C_15  and  O_17
REMARK    9  A    between atoms: O_17  and  C_18
REMARK   10  A    between atoms: C_18  and  C_19
REMARK                            x       y       z     vdW  Elec       q    Type
REMARK                         _______ _______ _______ _____ _____    ______ ____
ROOT
ATOM      1  N   UNL     1       4.253   4.265  17.293  0.00  0.00    +0.000 N 
ATOM      2  C   UNL     1       4.309   4.436  18.670  0.00  0.00    +0.000 C 
ATOM      3  O   UNL     1       4.865   5.386  19.212  0.00  0.00    +0.000 OA
ATOM      4  H   UNL     1       4.340   3.297  17.005  0.00  0.00    +0.000 HD
ENDROOT
BRANCH   2   5
ATOM      5  C   UNL     1       3.568   3.322  19.434  0.00  0.00    +0.000 C 
ATOM      6  C   UNL     1       3.662   2.038  18.604  0.00  0.00    +0.000 C 
ATOM      7  C   UNL     1       2.484   1.202  19.079  0.00  0.00    +0.000 C 
ATOM      8  C   UNL     1       1.434   2.223  19.497  0.00  0.00    +0.000 C 
ATOM      9  N   UNL     1       2.134   3.485  19.607  0.00  0.00    +0.000 N 
ATOM     10  C   UNL     1       1.507   4.570  20.168  0.00  0.00    +0.000 C 
ATOM     11  O   UNL     1       0.322   4.579  20.476  0.00  0.00    +0.000 OA
BRANCH  10  12
ATOM     12  O   UNL     1       2.351   5.624  20.320  0.00  0.00    +0.000 OA
BRANCH  12  13
ATOM     13  C   UNL     1       1.753   6.802  20.883  0.00  0.00    +0.000 C 
BRANCH  13  14
ATOM     14  C   UNL     1       1.719   7.927  19.878  0.00  0.00    +0.000 A 
ATOM     15  C   UNL     1       1.053   9.126  20.165  0.00  0.00    +0.000 A 
ATOM     16  C   UNL     1       0.988  10.147  19.217  0.00  0.00    +0.000 A 
ATOM     17  C   UNL     1       1.607   9.987  17.981  0.00  0.00    +0.000 A 
ATOM     18  C   UNL     1       2.302   8.813  17.696  0.00  0.00    +0.000 A 
ATOM     19  C   UNL     1       2.363   7.788  18.642  0.00  0.00    +0.000 A 
ENDBRANCH  13  14
ENDBRANCH  12  13
ENDBRANCH  10  12
ENDBRANCH   2   5
BRANCH   1  20
ATOM     20  C   UNL     1       4.878   5.244  16.419  0.00  0.00    +0.000 C 
BRANCH  20  21
ATOM     21  C   UNL     1       6.384   4.980  16.191  0.00  0.00    +0.000 C 
BRANCH  21  22
ATOM     22  C   UNL     1       6.663   4.736  14.704  0.00  0.00    +0.000 A 
ATOM     23  C   UNL     1       5.890   3.795  14.004  0.00  0.00    +0.000 A 
ATOM     24  C   UNL     1       6.105   3.562  12.643  0.00  0.00    +0.000 A 
ATOM     25  C   UNL     1       7.095   4.265  11.959  0.00  0.00    +0.000 A 
ATOM     26  C   UNL     1       7.867   5.201  12.634  0.00  0.00    +0.000 A 
ATOM     27  C   UNL     1       7.648   5.440  13.993  0.00  0.00    +0.000 A 
ENDBRANCH  21  22
BRANCH  21  28
ATOM     28  C   UNL     1       7.289   6.089  16.766  0.00  0.00    +0.000 C 
BRANCH  28  30
ATOM     29  O   UNL     1       7.950   4.686  18.624  0.00  0.00    +0.000 OA
ATOM     30  C   UNL     1       7.822   5.797  18.142  0.00  0.00    +0.000 C 
BRANCH  30  31
ATOM     31  O   UNL     1       8.205   6.923  18.794  0.00  0.00    +0.000 OA
ATOM     32  H   UNL     1       7.977   6.940  19.740  0.00  0.00    +0.000 HD
ENDBRANCH  30  31
ENDBRANCH  28  30
ENDBRANCH  21  28
ENDBRANCH  20  21
ENDBRANCH   1  20
TORSDOF 10
ENDMDL
MODEL 9
REMARK VINA RESULT:      -7.4      2.002      2.972
REMARK  Name = 
REMARK  10 active torsions:
REMARK  status: ('A' for Active; 'I' for Inactive)
REMARK    1  A    between atoms: C_2  and  O_3
REMARK    2  A    between atoms: C_2  and  C_4
REMARK    3  A    between atoms: C_4  and  C_5
REMARK    4  A    between atoms: C_5  and  C_6
REMARK    5  A    between atoms: C_5  and  C_25
REMARK    6  A    between atoms: C_6  and  N_7
REMARK    7  A    between atoms: C_8  and  C_10
REMARK    8  A    between atoms: C_15  and  O_17
REMARK    9  A    between atoms: O_17  and  C_18
REMARK   10  A    between atoms: C_18  and  C_19
REMARK                            x       y       z     vdW  Elec       q    Type
REMARK                         _______ _______ _______ _____ _____    ______ ____
ROOT
ATOM      1  N   UNL     1       1.745   6.810  18.611  0.00  0.00    +0.000 N 
ATOM      2  C   UNL     1       2.529   5.830  19.205  0.00  0.00    +0.000 C 
ATOM      3  O   UNL     1       3.650   6.042  19.657  0.00  0.00    +0.000 OA
ATOM      4  H   UNL     1       1.213   6.472  17.818  0.00  0.00    +0.000 HD
ENDROOT
BRANCH   2   5
ATOM      5  C   UNL     1       1.824   4.462  19.261  0.00  0.00    +0.000 C 
ATOM      6  C   UNL     1       1.371   4.224  20.706  0.00  0.00    +0.000 C 
ATOM      7  C   UNL     1       1.239   2.713  20.810  0.00  0.00    +0.000 C 
ATOM      8  C   UNL     1       2.269   2.171  19.827  0.00  0.00    +0.000 C 
ATOM      9  N   UNL     1       2.639   3.289  18.987  0.00  0.00    +0.000 N 
ATOM     10  C   UNL     1       3.399   3.082  17.863  0.00  0.00    +0.000 C 
ATOM     11  O   UNL     1       3.906   2.002  17.583  0.00  0.00    +0.000 OA
BRANCH  10  12
ATOM     12  O   UNL     1       3.533   4.211  17.121  0.00  0.00    +0.000 OA
BRANCH  12  13
ATOM     13  C   UNL     1       4.723   4.272  16.319  0.00  0.00    +0.000 C 
BRANCH  13  14
ATOM     14  C   UNL     1       5.771   5.143  16.968  0.00  0.00    +0.000 A 
ATOM     15  C   UNL     1       6.741   4.589  17.814  0.00  0.00    +0.000 A 
ATOM     16  C   UNL     1       7.682   5.401  18.445  0.00  0.00    +0.000 A 
ATOM     17  C   UNL     1       7.675   6.775  18.219  0.00  0.00    +0.000 A 
ATOM     18  C   UNL     1       6.737   7.334  17.353  0.00  0.00    +0.000 A 
ATOM     19  C   UNL     1       5.791   6.522  16.726  0.00  0.00    +0.000 A 
ENDBRANCH  13  14
ENDBRANCH  12  13
ENDBRANCH  10  12
ENDBRANCH   2   5
BRANCH   1  20
ATOM     20  C   UNL     1       2.249   8.169  18.502  0.00  0.00    +0.000 C 
BRANCH  20  21
ATOM     21  C   UNL     1       1.790   9.082  19.662  0.00  0.00    +0.000 C 
BRANCH  21  22
ATOM     22  C   UNL     1       0.809  10.141  19.150  0.00  0.00    +0.000 A 
ATOM     23  C   UNL     1       1.147  11.500  19.253  0.00  0.00    +0.000 A 
ATOM     24  C   UNL     1       0.283  12.492  18.779  0.00  0.00    +0.000 A 
ATOM     25  C   UNL     1      -0.931  12.141  18.193  0.00  0.00    +0.000 A 
ATOM     26  C   UNL     1      -1.281  10.803  18.079  0.00  0.00    +0.000 A 
ATOM     27  C   UNL     1      -0.416   9.810  18.547  0.00  0.00    +0.000 A 
ENDBRANCH  21  22
BRANCH  21  28
ATOM     28  C   UNL     1       1.210   8.298  20.858  0.00  0.00    +0.000 C 
BRANCH  28  30
ATOM     29  O   UNL     1      -0.092   9.539  22.478  0.00  0.00    +0.000 OA
ATOM     30  C   UNL     1       0.988   9.131  22.090  0.00  0.00    +0.000 C 
BRANCH  30  31
ATOM     31  O   UNL     1       2.138   9.347  22.777  0.00  0.00    +0.000 OA
ATOM     32  H   UNL     1       2.869   9.700  22.240  0.00  0.00    +0.000 HD
ENDBRANCH  30  31
ENDBRANCH  28  30
ENDBRANCH  21  28
ENDBRANCH  20  21
ENDBRANCH   1  20
TORSDOF 10
ENDMDL
