MODEL 1
REMARK VINA RESULT:      -7.7      0.000      0.000
REMARK  Name = 
REMARK  0 active torsions:
REMARK  status: ('A' for Active; 'I' for Inactive)
REMARK                            x       y       z     vdW  Elec       q    Type
REMARK                         _______ _______ _______ _____ _____    ______ ____
ROOT
ATOM      1  O   UNL     1       8.111   5.174  14.136  0.00  0.00    +0.000 OA
ATOM      2  C   UNL     1       7.221   5.146  14.956  0.00  0.00    +0.000 C 
ATOM      3  N   UNL     1       6.149   4.276  15.023  0.00  0.00    +0.000 N 
ATOM      4  C   UNL     1       5.371   4.532  16.150  0.00  0.00    +0.000 A 
ATOM      5  C   UNL     1       4.251   3.836  16.566  0.00  0.00    +0.000 A 
ATOM      6  C   UNL     1       3.635   4.225  17.793  0.00  0.00    +0.000 A 
ATOM      7  C   UNL     1       4.176   5.309  18.506  0.00  0.00    +0.000 A 
ATOM      8  C   UNL     1       5.303   6.032  18.062  0.00  0.00    +0.000 A 
ATOM      9  C   UNL     1       5.869   5.595  16.881  0.00  0.00    +0.000 A 
ATOM     10  C   UNL     1       7.060   6.085  16.182  0.00  0.00    +0.000 C 
ATOM     11  O   UNL     1       7.762   7.016  16.498  0.00  0.00    +0.000 OA
ATOM     12  S   UNL     1       3.305   5.606  19.955  0.00  0.00    +0.000 S 
ATOM     13  C   UNL     1       2.221   4.308  19.687  0.00  0.00    +0.000 A 
ATOM     14  C   UNL     1       1.173   3.906  20.539  0.00  0.00    +0.000 A 
ATOM     15  C   UNL     1       0.374   2.823  20.168  0.00  0.00    +0.000 A 
ATOM     16  C   UNL     1       0.609   2.154  18.977  0.00  0.00    +0.000 A 
ATOM     17  C   UNL     1       1.654   2.555  18.137  0.00  0.00    +0.000 A 
ATOM     18  C   UNL     1       2.490   3.650  18.486  0.00  0.00    +0.000 A 
ATOM     19  H   UNL     1       6.005   3.535  14.352  0.00  0.00    +0.000 HD
ENDROOT
TORSDOF 0
ENDMDL
MODEL 2
REMARK VINA RESULT:      -7.2      5.218      6.297
REMARK  Name = 
REMARK  0 active torsions:
REMARK  status: ('A' for Active; 'I' for Inactive)
REMARK                            x       y       z     vdW  Elec       q    Type
REMARK                         _______ _______ _______ _____ _____    ______ ____
ROOT
ATOM      1  O   UNL     1       4.579   4.150  18.840  0.00  0.00    +0.000 OA
ATOM      2  C   UNL     1       3.859   5.109  19.003  0.00  0.00    +0.000 C 
ATOM      3  N   UNL     1       3.102   5.430  20.115  0.00  0.00    +0.000 N 
ATOM      4  C   UNL     1       2.451   6.649  19.938  0.00  0.00    +0.000 A 
ATOM      5  C   UNL     1       1.649   7.305  20.853  0.00  0.00    +0.000 A 
ATOM      6  C   UNL     1       1.127   8.584  20.492  0.00  0.00    +0.000 A 
ATOM      7  C   UNL     1       1.428   9.103  19.221  0.00  0.00    +0.000 A 
ATOM      8  C   UNL     1       2.226   8.414  18.282  0.00  0.00    +0.000 A 
ATOM      9  C   UNL     1       2.721   7.194  18.696  0.00  0.00    +0.000 A 
ATOM     10  C   UNL     1       3.610   6.263  17.995  0.00  0.00    +0.000 C 
ATOM     11  O   UNL     1       4.053   6.378  16.877  0.00  0.00    +0.000 OA
ATOM     12  S   UNL     1       0.723  10.650  18.990  0.00  0.00    +0.000 S 
ATOM     13  C   UNL     1       0.030  10.679  20.555  0.00  0.00    +0.000 A 
ATOM     14  C   UNL     1      -0.726  11.727  21.114  0.00  0.00    +0.000 A 
ATOM     15  C   UNL     1      -1.225  11.589  22.411  0.00  0.00    +0.000 A 
ATOM     16  C   UNL     1      -0.978  10.434  23.137  0.00  0.00    +0.000 A 
ATOM     17  C   UNL     1      -0.222   9.398  22.578  0.00  0.00    +0.000 A 
ATOM     18  C   UNL     1       0.305   9.507  21.263  0.00  0.00    +0.000 A 
ATOM     19  H   UNL     1       3.085   4.856  20.946  0.00  0.00    +0.000 HD
ENDROOT
TORSDOF 0
ENDMDL
MODEL 3
REMARK VINA RESULT:      -7.2      4.796      6.586
REMARK  Name = 
REMARK  0 active torsions:
REMARK  status: ('A' for Active; 'I' for Inactive)
REMARK                            x       y       z     vdW  Elec       q    Type
REMARK                         _______ _______ _______ _____ _____    ______ ____
ROOT
ATOM      1  O   UNL     1      -0.274  11.721  19.467  0.00  0.00    +0.000 OA
ATOM      2  C   UNL     1       0.356  10.701  19.302  0.00  0.00    +0.000 C 
ATOM      3  N   UNL     1       1.157  10.356  18.229  0.00  0.00    +0.000 N 
ATOM      4  C   UNL     1       1.760   9.117  18.437  0.00  0.00    +0.000 A 
ATOM      5  C   UNL     1       2.658   8.477  17.603  0.00  0.00    +0.000 A 
ATOM      6  C   UNL     1       3.208   7.234  18.038  0.00  0.00    +0.000 A 
ATOM      7  C   UNL     1       2.795   6.707  19.273  0.00  0.00    +0.000 A 
ATOM      8  C   UNL     1       1.857   7.353  20.106  0.00  0.00    +0.000 A 
ATOM      9  C   UNL     1       1.377   8.562  19.644  0.00  0.00    +0.000 A 
ATOM     10  C   UNL     1       0.446   9.498  20.280  0.00  0.00    +0.000 C 
ATOM     11  O   UNL     1      -0.121   9.361  21.338  0.00  0.00    +0.000 OA
ATOM     12  S   UNL     1       3.582   5.222  19.618  0.00  0.00    +0.000 S 
ATOM     13  C   UNL     1       4.494   5.253  18.169  0.00  0.00    +0.000 A 
ATOM     14  C   UNL     1       5.443   4.296  17.759  0.00  0.00    +0.000 A 
ATOM     15  C   UNL     1       6.100   4.470  16.539  0.00  0.00    +0.000 A 
ATOM     16  C   UNL     1       5.819   5.570  15.744  0.00  0.00    +0.000 A 
ATOM     17  C   UNL     1       4.879   6.520  16.158  0.00  0.00    +0.000 A 
ATOM     18  C   UNL     1       4.196   6.376  17.396  0.00  0.00    +0.000 A 
ATOM     19  H   UNL     1       1.301  10.967  17.438  0.00  0.00    +0.000 HD
ENDROOT
TORSDOF 0
ENDMDL
MODEL 4
REMARK VINA RESULT:      -7.1      1.188      1.532
REMARK  Name = 
REMARK  0 active torsions:
REMARK  status: ('A' for Active; 'I' for Inactive)
REMARK                            x       y       z     vdW  Elec       q    Type
REMARK                         _______ _______ _______ _____ _____    ______ ____
ROOT
ATOM      1  O   UNL     1       7.008   3.947  12.256  0.00  0.00    +0.000 OA
ATOM      2  C   UNL     1       6.475   4.156  13.322  0.00  0.00    +0.000 C 
ATOM      3  N   UNL     1       5.268   3.665  13.784  0.00  0.00    +0.000 N 
ATOM      4  C   UNL     1       5.024   4.090  15.088  0.00  0.00    +0.000 A 
ATOM      5  C   UNL     1       3.943   3.759  15.884  0.00  0.00    +0.000 A 
ATOM      6  C   UNL     1       3.919   4.255  17.222  0.00  0.00    +0.000 A 
ATOM      7  C   UNL     1       4.974   5.074  17.659  0.00  0.00    +0.000 A 
ATOM      8  C   UNL     1       6.060   5.429  16.831  0.00  0.00    +0.000 A 
ATOM      9  C   UNL     1       6.041   4.902  15.556  0.00  0.00    +0.000 A 
ATOM     10  C   UNL     1       7.027   5.030  14.480  0.00  0.00    +0.000 C 
ATOM     11  O   UNL     1       8.049   5.674  14.498  0.00  0.00    +0.000 OA
ATOM     12  S   UNL     1       4.766   5.550  19.295  0.00  0.00    +0.000 S 
ATOM     13  C   UNL     1       3.305   4.675  19.468  0.00  0.00    +0.000 A 
ATOM     14  C   UNL     1       2.523   4.577  20.636  0.00  0.00    +0.000 A 
ATOM     15  C   UNL     1       1.350   3.821  20.607  0.00  0.00    +0.000 A 
ATOM     16  C   UNL     1       0.959   3.178  19.443  0.00  0.00    +0.000 A 
ATOM     17  C   UNL     1       1.742   3.275  18.287  0.00  0.00    +0.000 A 
ATOM     18  C   UNL     1       2.945   4.032  18.282  0.00  0.00    +0.000 A 
ATOM     19  H   UNL     1       4.687   3.043  13.238  0.00  0.00    +0.000 HD
ENDROOT
TORSDOF 0
ENDMDL
MODEL 5
REMARK VINA RESULT:      -7.0      4.351      5.516
REMARK  Name = 
REMARK  0 active torsions:
REMARK  status: ('A' for Active; 'I' for Inactive)
REMARK                            x       y       z     vdW  Elec       q    Type
REMARK                         _______ _______ _______ _____ _____    ______ ____
ROOT
ATOM      1  O   UNL     1       4.345   1.696  19.495  0.00  0.00    +0.000 OA
ATOM      2  C   UNL     1       3.862   2.801  19.401  0.00  0.00    +0.000 C 
ATOM      3  N   UNL     1       3.160   3.510  20.359  0.00  0.00    +0.000 N 
ATOM      4  C   UNL     1       2.815   4.774  19.887  0.00  0.00    +0.000 A 
ATOM      5  C   UNL     1       2.153   5.771  20.581  0.00  0.00    +0.000 A 
ATOM      6  C   UNL     1       1.954   7.024  19.928  0.00  0.00    +0.000 A 
ATOM      7  C   UNL     1       2.412   7.180  18.609  0.00  0.00    +0.000 A 
ATOM      8  C   UNL     1       3.062   6.149  17.898  0.00  0.00    +0.000 A 
ATOM      9  C   UNL     1       3.246   4.968  18.588  0.00  0.00    +0.000 A 
ATOM     10  C   UNL     1       3.921   3.738  18.165  0.00  0.00    +0.000 C 
ATOM     11  O   UNL     1       4.418   3.510  17.087  0.00  0.00    +0.000 OA
ATOM     12  S   UNL     1       2.091   8.757  18.013  0.00  0.00    +0.000 S 
ATOM     13  C   UNL     1       1.369   9.272  19.477  0.00  0.00    +0.000 A 
ATOM     14  C   UNL     1       0.855  10.555  19.749  0.00  0.00    +0.000 A 
ATOM     15  C   UNL     1       0.292  10.810  21.002  0.00  0.00    +0.000 A 
ATOM     16  C   UNL     1       0.240   9.812  21.962  0.00  0.00    +0.000 A 
ATOM     17  C   UNL     1       0.756   8.541  21.689  0.00  0.00    +0.000 A 
ATOM     18  C   UNL     1       1.340   8.248  20.427  0.00  0.00    +0.000 A 
ATOM     19  H   UNL     1       2.981   3.146  21.284  0.00  0.00    +0.000 HD
ENDROOT
TORSDOF 0
ENDMDL
MODEL 6
REMARK VINA RESULT:      -6.9      1.583      2.633
REMARK  Name = 
REMARK  0 active torsions:
REMARK  status: ('A' for Active; 'I' for Inactive)
REMARK                            x       y       z     vdW  Elec       q    Type
REMARK                         _______ _______ _______ _____ _____    ______ ____
ROOT
ATOM      1  O   UNL     1       8.238   5.730  13.673  0.00  0.00    +0.000 OA
ATOM      2  C   UNL     1       7.374   5.357  14.434  0.00  0.00    +0.000 C 
ATOM      3  N   UNL     1       6.954   5.955  15.608  0.00  0.00    +0.000 N 
ATOM      4  C   UNL     1       5.894   5.250  16.173  0.00  0.00    +0.000 A 
ATOM      5  C   UNL     1       5.192   5.577  17.318  0.00  0.00    +0.000 A 
ATOM      6  C   UNL     1       4.091   4.748  17.690  0.00  0.00    +0.000 A 
ATOM      7  C   UNL     1       3.789   3.629  16.896  0.00  0.00    +0.000 A 
ATOM      8  C   UNL     1       4.528   3.286  15.744  0.00  0.00    +0.000 A 
ATOM      9  C   UNL     1       5.566   4.137  15.421  0.00  0.00    +0.000 A 
ATOM     10  C   UNL     1       6.481   4.097  14.278  0.00  0.00    +0.000 C 
ATOM     11  O   UNL     1       6.523   3.264  13.403  0.00  0.00    +0.000 OA
ATOM     12  S   UNL     1       2.428   2.777  17.501  0.00  0.00    +0.000 S 
ATOM     13  C   UNL     1       2.195   3.869  18.799  0.00  0.00    +0.000 A 
ATOM     14  C   UNL     1       1.174   3.810  19.768  0.00  0.00    +0.000 A 
ATOM     15  C   UNL     1       1.129   4.784  20.768  0.00  0.00    +0.000 A 
ATOM     16  C   UNL     1       2.078   5.794  20.805  0.00  0.00    +0.000 A 
ATOM     17  C   UNL     1       3.087   5.850  19.837  0.00  0.00    +0.000 A 
ATOM     18  C   UNL     1       3.160   4.879  18.803  0.00  0.00    +0.000 A 
ATOM     19  H   UNL     1       7.354   6.815  15.955  0.00  0.00    +0.000 HD
ENDROOT
TORSDOF 0
ENDMDL
MODEL 7
REMARK VINA RESULT:      -6.9      4.797      5.947
REMARK  Name = 
REMARK  0 active torsions:
REMARK  status: ('A' for Active; 'I' for Inactive)
REMARK                            x       y       z     vdW  Elec       q    Type
REMARK                         _______ _______ _______ _____ _____    ______ ____
ROOT
ATOM      1  O   UNL     1       4.155   2.741  19.191  0.00  0.00    +0.000 OA
ATOM      2  C   UNL     1       3.602   3.816  19.249  0.00  0.00    +0.000 C 
ATOM      3  N   UNL     1       2.869   4.344  20.296  0.00  0.00    +0.000 N 
ATOM      4  C   UNL     1       2.440   5.636  20.001  0.00  0.00    +0.000 A 
ATOM      5  C   UNL     1       1.726   6.486  20.825  0.00  0.00    +0.000 A 
ATOM      6  C   UNL     1       1.441   7.800  20.348  0.00  0.00    +0.000 A 
ATOM      7  C   UNL     1       1.872   8.160  19.059  0.00  0.00    +0.000 A 
ATOM      8  C   UNL     1       2.576   7.277  18.213  0.00  0.00    +0.000 A 
ATOM      9  C   UNL     1       2.843   6.029  18.737  0.00  0.00    +0.000 A 
ATOM     10  C   UNL     1       3.587   4.912  18.150  0.00  0.00    +0.000 C 
ATOM     11  O   UNL     1       4.084   4.863  17.049  0.00  0.00    +0.000 OA
ATOM     12  S   UNL     1       1.446   9.779  18.683  0.00  0.00    +0.000 S 
ATOM     13  C   UNL     1       0.711  10.046  20.206  0.00  0.00    +0.000 A 
ATOM     14  C   UNL     1       0.121  11.246  20.651  0.00  0.00    +0.000 A 
ATOM     15  C   UNL     1      -0.440  11.295  21.928  0.00  0.00    +0.000 A 
ATOM     16  C   UNL     1      -0.418  10.176  22.746  0.00  0.00    +0.000 A 
ATOM     17  C   UNL     1       0.173   8.988  22.301  0.00  0.00    +0.000 A 
ATOM     18  C   UNL     1       0.759   8.905  21.009  0.00  0.00    +0.000 A 
ATOM     19  H   UNL     1       2.725   3.849  21.165  0.00  0.00    +0.000 HD
ENDROOT
TORSDOF 0
ENDMDL
MODEL 8
REMARK VINA RESULT:      -6.8      4.888      6.167
REMARK  Name = 
REMARK  0 active torsions:
REMARK  status: ('A' for Active; 'I' for Inactive)
REMARK                            x       y       z     vdW  Elec       q    Type
REMARK                         _______ _______ _______ _____ _____    ______ ____
ROOT
ATOM      1  O   UNL     1       0.711  12.536  18.698  0.00  0.00    +0.000 OA
ATOM      2  C   UNL     1       0.977  11.364  18.831  0.00  0.00    +0.000 C 
ATOM      3  N   UNL     1       1.626  10.529  17.941  0.00  0.00    +0.000 N 
ATOM      4  C   UNL     1       1.795   9.257  18.484  0.00  0.00    +0.000 A 
ATOM      5  C   UNL     1       2.439   8.181  17.902  0.00  0.00    +0.000 A 
ATOM      6  C   UNL     1       2.557   6.978  18.661  0.00  0.00    +0.000 A 
ATOM      7  C   UNL     1       1.992   6.933  19.948  0.00  0.00    +0.000 A 
ATOM      8  C   UNL     1       1.312   8.027  20.524  0.00  0.00    +0.000 A 
ATOM      9  C   UNL     1       1.250   9.170  19.752  0.00  0.00    +0.000 A 
ATOM     10  C   UNL     1       0.671  10.477  20.069  0.00  0.00    +0.000 C 
ATOM     11  O   UNL     1       0.088  10.793  21.079  0.00  0.00    +0.000 OA
ATOM     12  S   UNL     1       2.255   5.412  20.697  0.00  0.00    +0.000 S 
ATOM     13  C   UNL     1       3.131   4.793  19.363  0.00  0.00    +0.000 A 
ATOM     14  C   UNL     1       3.721   3.517  19.270  0.00  0.00    +0.000 A 
ATOM     15  C   UNL     1       4.402   3.166  18.102  0.00  0.00    +0.000 A 
ATOM     16  C   UNL     1       4.494   4.063  17.049  0.00  0.00    +0.000 A 
ATOM     17  C   UNL     1       3.911   5.331  17.149  0.00  0.00    +0.000 A 
ATOM     18  C   UNL     1       3.215   5.723  18.325  0.00  0.00    +0.000 A 
ATOM     19  H   UNL     1       1.962  10.846  17.042  0.00  0.00    +0.000 HD
ENDROOT
TORSDOF 0
ENDMDL
MODEL 9
REMARK VINA RESULT:      -6.8      1.674      2.562
REMARK  Name = 
REMARK  0 active torsions:
REMARK  status: ('A' for Active; 'I' for Inactive)
REMARK                            x       y       z     vdW  Elec       q    Type
REMARK                         _______ _______ _______ _____ _____    ______ ____
ROOT
ATOM      1  O   UNL     1       8.302   7.728  16.726  0.00  0.00    +0.000 OA
ATOM      2  C   UNL     1       7.479   6.901  17.044  0.00  0.00    +0.000 C 
ATOM      3  N   UNL     1       6.797   6.791  18.242  0.00  0.00    +0.000 N 
ATOM      4  C   UNL     1       5.888   5.736  18.202  0.00  0.00    +0.000 A 
ATOM      5  C   UNL     1       5.005   5.359  19.197  0.00  0.00    +0.000 A 
ATOM      6  C   UNL     1       4.110   4.281  18.926  0.00  0.00    +0.000 A 
ATOM      7  C   UNL     1       4.184   3.638  17.678  0.00  0.00    +0.000 A 
ATOM      8  C   UNL     1       5.107   4.011  16.678  0.00  0.00    +0.000 A 
ATOM      9  C   UNL     1       5.931   5.074  16.989  0.00  0.00    +0.000 A 
ATOM     10  C   UNL     1       6.948   5.735  16.167  0.00  0.00    +0.000 C 
ATOM     11  O   UNL     1       7.291   5.436  15.048  0.00  0.00    +0.000 OA
ATOM     12  S   UNL     1       3.017   2.386  17.545  0.00  0.00    +0.000 S 
ATOM     13  C   UNL     1       2.380   2.677  19.107  0.00  0.00    +0.000 A 
ATOM     14  C   UNL     1       1.305   1.996  19.711  0.00  0.00    +0.000 A 
ATOM     15  C   UNL     1       0.909   2.357  21.001  0.00  0.00    +0.000 A 
ATOM     16  C   UNL     1       1.569   3.372  21.677  0.00  0.00    +0.000 A 
ATOM     17  C   UNL     1       2.633   4.049  21.070  0.00  0.00    +0.000 A 
ATOM     18  C   UNL     1       3.058   3.710  19.757  0.00  0.00    +0.000 A 
ATOM     19  H   UNL     1       6.931   7.438  19.007  0.00  0.00    +0.000 HD
ENDROOT
TORSDOF 0
ENDMDL
