MODEL 1
REMARK VINA RESULT:      -7.6      0.000      0.000
REMARK  Name = 
REMARK  2 active torsions:
REMARK  status: ('A' for Active; 'I' for Inactive)
REMARK    1  A    between atoms: N_5  and  C_6
REMARK    2  A    between atoms: C_6  and  C_7
REMARK                            x       y       z     vdW  Elec       q    Type
REMARK                         _______ _______ _______ _____ _____    ______ ____
ROOT
ATOM      1  C   UNL     1       4.578   4.595  17.114  0.00  0.00    +0.000 A 
ATOM      2  C   UNL     1       5.455   5.650  17.408  0.00  0.00    +0.000 A 
ATOM      3  C   UNL     1       6.572   5.886  16.603  0.00  0.00    +0.000 A 
ATOM      4 CL   UNL     1       7.622   7.192  17.016  0.00  0.00    +0.000 Cl
ATOM      5  C   UNL     1       6.813   5.085  15.481  0.00  0.00    +0.000 A 
ATOM      6  C   UNL     1       5.951   4.022  15.197  0.00  0.00    +0.000 A 
ATOM      7  C   UNL     1       4.850   3.771  16.014  0.00  0.00    +0.000 A 
ATOM      8  O   UNL     1       6.189   3.125  14.190  0.00  0.00    +0.000 OA
ATOM      9  C   UNL     1       6.094   3.728  12.898  0.00  0.00    +0.000 C 
ATOM     10  C   UNL     1       7.364   4.472  12.509  0.00  0.00    +0.000 C 
ATOM     11  C   UNL     1       7.589   5.691  13.392  0.00  0.00    +0.000 C 
ATOM     12  O   UNL     1       7.935   5.312  14.725  0.00  0.00    +0.000 OA
ENDROOT
BRANCH   1  13
ATOM     13  C   UNL     1       3.372   4.332  17.987  0.00  0.00    +0.000 C 
BRANCH  13  18
ATOM     14  O   UNL     1       1.272   2.586  22.438  0.00  0.00    +0.000 OA
ATOM     15  C   UNL     1       1.564   2.864  21.276  0.00  0.00    +0.000 C 
ATOM     16  C   UNL     1       2.888   3.491  20.922  0.00  0.00    +0.000 C 
ATOM     17  C   UNL     1       3.660   2.723  19.855  0.00  0.00    +0.000 C 
ATOM     18  N   UNL     1       3.265   2.940  18.454  0.00  0.00    +0.000 NA
ATOM     19  C   UNL     1       1.939   2.366  18.166  0.00  0.00    +0.000 C 
ATOM     20  C   UNL     1       0.743   3.002  18.894  0.00  0.00    +0.000 C 
ATOM     21  N   UNL     1       0.651   2.642  20.294  0.00  0.00    +0.000 N 
ATOM     22  H   UNL     1      -0.232   2.285  20.643  0.00  0.00    +0.000 HD
ENDBRANCH  13  18
ENDBRANCH   1  13
TORSDOF 2
ENDMDL
MODEL 2
REMARK VINA RESULT:      -7.3      1.175      1.591
REMARK  Name = 
REMARK  2 active torsions:
REMARK  status: ('A' for Active; 'I' for Inactive)
REMARK    1  A    between atoms: N_5  and  C_6
REMARK    2  A    between atoms: C_6  and  C_7
REMARK                            x       y       z     vdW  Elec       q    Type
REMARK                         _______ _______ _______ _____ _____    ______ ____
ROOT
ATOM      1  C   UNL     1       4.357   5.132  17.261  0.00  0.00    +0.000 A 
ATOM      2  C   UNL     1       5.328   6.123  17.472  0.00  0.00    +0.000 A 
ATOM      3  C   UNL     1       6.477   6.166  16.679  0.00  0.00    +0.000 A 
ATOM      4 CL   UNL     1       7.643   7.401  16.989  0.00  0.00    +0.000 Cl
ATOM      5  C   UNL     1       6.659   5.234  15.651  0.00  0.00    +0.000 A 
ATOM      6  C   UNL     1       5.703   4.236  15.452  0.00  0.00    +0.000 A 
ATOM      7  C   UNL     1       4.567   4.176  16.258  0.00  0.00    +0.000 A 
ATOM      8  O   UNL     1       5.870   3.220  14.548  0.00  0.00    +0.000 OA
ATOM      9  C   UNL     1       5.859   3.692  13.199  0.00  0.00    +0.000 C 
ATOM     10  C   UNL     1       7.203   4.268  12.774  0.00  0.00    +0.000 C 
ATOM     11  C   UNL     1       7.531   5.543  13.535  0.00  0.00    +0.000 C 
ATOM     12  O   UNL     1       7.812   5.273  14.909  0.00  0.00    +0.000 OA
ENDROOT
BRANCH   1  13
ATOM     13  C   UNL     1       3.115   5.077  18.121  0.00  0.00    +0.000 C 
BRANCH  13  18
ATOM     14  O   UNL     1       1.039   2.478  22.146  0.00  0.00    +0.000 OA
ATOM     15  C   UNL     1       1.756   2.976  21.280  0.00  0.00    +0.000 C 
ATOM     16  C   UNL     1       1.266   4.092  20.394  0.00  0.00    +0.000 C 
ATOM     17  C   UNL     1       2.171   5.319  20.403  0.00  0.00    +0.000 C 
ATOM     18  N   UNL     1       3.373   5.273  19.556  0.00  0.00    +0.000 NA
ATOM     19  C   UNL     1       4.365   4.314  20.070  0.00  0.00    +0.000 C 
ATOM     20  C   UNL     1       3.958   2.831  20.056  0.00  0.00    +0.000 C 
ATOM     21  N   UNL     1       3.005   2.475  21.088  0.00  0.00    +0.000 N 
ATOM     22  H   UNL     1       3.214   1.682  21.684  0.00  0.00    +0.000 HD
ENDBRANCH  13  18
ENDBRANCH   1  13
TORSDOF 2
ENDMDL
MODEL 3
REMARK VINA RESULT:      -7.2      1.520      2.043
REMARK  Name = 
REMARK  2 active torsions:
REMARK  status: ('A' for Active; 'I' for Inactive)
REMARK    1  A    between atoms: N_5  and  C_6
REMARK    2  A    between atoms: C_6  and  C_7
REMARK                            x       y       z     vdW  Elec       q    Type
REMARK                         _______ _______ _______ _____ _____    ______ ____
ROOT
ATOM      1  C   UNL     1       5.077   5.114  18.446  0.00  0.00    +0.000 A 
ATOM      2  C   UNL     1       5.914   6.238  18.369  0.00  0.00    +0.000 A 
ATOM      3  C   UNL     1       6.808   6.381  17.306  0.00  0.00    +0.000 A 
ATOM      4 CL   UNL     1       7.820   7.780  17.266  0.00  0.00    +0.000 Cl
ATOM      5  C   UNL     1       6.860   5.416  16.294  0.00  0.00    +0.000 A 
ATOM      6  C   UNL     1       6.041   4.287  16.379  0.00  0.00    +0.000 A 
ATOM      7  C   UNL     1       5.166   4.130  17.452  0.00  0.00    +0.000 A 
ATOM      8  O   UNL     1       6.124   3.245  15.493  0.00  0.00    +0.000 OA
ATOM      9  C   UNL     1       5.704   3.621  14.179  0.00  0.00    +0.000 C 
ATOM     10  C   UNL     1       6.798   4.342  13.404  0.00  0.00    +0.000 C 
ATOM     11  C   UNL     1       7.116   5.698  14.016  0.00  0.00    +0.000 C 
ATOM     12  O   UNL     1       7.771   5.560  15.279  0.00  0.00    +0.000 OA
ENDROOT
BRANCH   1  13
ATOM     13  C   UNL     1       4.113   4.950  19.599  0.00  0.00    +0.000 C 
BRANCH  13  18
ATOM     14  O   UNL     1      -0.000   1.943  18.456  0.00  0.00    +0.000 OA
ATOM     15  C   UNL     1       0.827   2.712  18.945  0.00  0.00    +0.000 C 
ATOM     16  C   UNL     1       2.012   3.203  18.154  0.00  0.00    +0.000 C 
ATOM     17  C   UNL     1       2.133   4.723  18.120  0.00  0.00    +0.000 C 
ATOM     18  N   UNL     1       2.738   5.374  19.293  0.00  0.00    +0.000 NA
ATOM     19  C   UNL     1       1.863   5.290  20.475  0.00  0.00    +0.000 C 
ATOM     20  C   UNL     1       1.606   3.882  21.039  0.00  0.00    +0.000 C 
ATOM     21  N   UNL     1       0.692   3.089  20.243  0.00  0.00    +0.000 N 
ATOM     22  H   UNL     1      -0.096   2.650  20.708  0.00  0.00    +0.000 HD
ENDBRANCH  13  18
ENDBRANCH   1  13
TORSDOF 2
ENDMDL
MODEL 4
REMARK VINA RESULT:      -7.1      5.037      7.538
REMARK  Name = 
REMARK  2 active torsions:
REMARK  status: ('A' for Active; 'I' for Inactive)
REMARK    1  A    between atoms: N_5  and  C_6
REMARK    2  A    between atoms: C_6  and  C_7
REMARK                            x       y       z     vdW  Elec       q    Type
REMARK                         _______ _______ _______ _____ _____    ______ ____
ROOT
ATOM      1  C   UNL     1       1.963   6.926  20.023  0.00  0.00    +0.000 A 
ATOM      2  C   UNL     1       2.205   7.894  19.036  0.00  0.00    +0.000 A 
ATOM      3  C   UNL     1       1.554   9.129  19.083  0.00  0.00    +0.000 A 
ATOM      4 CL   UNL     1       1.883  10.279  17.838  0.00  0.00    +0.000 Cl
ATOM      5  C   UNL     1       0.670   9.421  20.128  0.00  0.00    +0.000 A 
ATOM      6  C   UNL     1       0.413   8.451  21.101  0.00  0.00    +0.000 A 
ATOM      7  C   UNL     1       1.044   7.209  21.042  0.00  0.00    +0.000 A 
ATOM      8  O   UNL     1      -0.528   8.619  22.082  0.00  0.00    +0.000 OA
ATOM      9  C   UNL     1      -0.164   9.648  23.006  0.00  0.00    +0.000 C 
ATOM     10  C   UNL     1      -0.489  11.039  22.482  0.00  0.00    +0.000 C 
ATOM     11  C   UNL     1       0.371  11.400  21.280  0.00  0.00    +0.000 C 
ATOM     12  O   UNL     1       0.015  10.625  20.134  0.00  0.00    +0.000 OA
ENDROOT
BRANCH   1  13
ATOM     13  C   UNL     1       2.660   5.586  19.973  0.00  0.00    +0.000 C 
BRANCH  13  18
ATOM     14  O   UNL     1       3.958   0.765  18.443  0.00  0.00    +0.000 OA
ATOM     15  C   UNL     1       3.431   1.856  18.658  0.00  0.00    +0.000 C 
ATOM     16  C   UNL     1       4.193   2.988  19.297  0.00  0.00    +0.000 C 
ATOM     17  C   UNL     1       4.158   4.279  18.487  0.00  0.00    +0.000 C 
ATOM     18  N   UNL     1       2.954   5.116  18.610  0.00  0.00    +0.000 NA
ATOM     19  C   UNL     1       1.782   4.479  17.985  0.00  0.00    +0.000 C 
ATOM     20  C   UNL     1       1.282   3.177  18.631  0.00  0.00    +0.000 C 
ATOM     21  N   UNL     1       2.118   2.026  18.353  0.00  0.00    +0.000 N 
ATOM     22  H   UNL     1       1.678   1.186  17.994  0.00  0.00    +0.000 HD
ENDBRANCH  13  18
ENDBRANCH   1  13
TORSDOF 2
ENDMDL
MODEL 5
REMARK VINA RESULT:      -7.0      5.654      6.785
REMARK  Name = 
REMARK  2 active torsions:
REMARK  status: ('A' for Active; 'I' for Inactive)
REMARK    1  A    between atoms: N_5  and  C_6
REMARK    2  A    between atoms: C_6  and  C_7
REMARK                            x       y       z     vdW  Elec       q    Type
REMARK                         _______ _______ _______ _____ _____    ______ ____
ROOT
ATOM      1  C   UNL     1       1.892   6.943  20.299  0.00  0.00    +0.000 A 
ATOM      2  C   UNL     1       1.490   5.681  20.762  0.00  0.00    +0.000 A 
ATOM      3  C   UNL     1       1.851   4.525  20.065  0.00  0.00    +0.000 A 
ATOM      4 CL   UNL     1       1.321   2.999  20.675  0.00  0.00    +0.000 Cl
ATOM      5  C   UNL     1       2.638   4.615  18.912  0.00  0.00    +0.000 A 
ATOM      6  C   UNL     1       3.024   5.872  18.439  0.00  0.00    +0.000 A 
ATOM      7  C   UNL     1       2.643   7.028  19.119  0.00  0.00    +0.000 A 
ATOM      8  O   UNL     1       3.689   6.045  17.254  0.00  0.00    +0.000 OA
ATOM      9  C   UNL     1       5.011   5.502  17.295  0.00  0.00    +0.000 C 
ATOM     10  C   UNL     1       5.028   3.998  17.064  0.00  0.00    +0.000 C 
ATOM     11  C   UNL     1       4.361   3.249  18.207  0.00  0.00    +0.000 C 
ATOM     12  O   UNL     1       2.950   3.470  18.224  0.00  0.00    +0.000 OA
ENDROOT
BRANCH   1  13
ATOM     13  C   UNL     1       1.497   8.197  21.046  0.00  0.00    +0.000 C 
BRANCH  13  18
ATOM     14  O   UNL     1      -1.185  11.972  23.459  0.00  0.00    +0.000 OA
ATOM     15  C   UNL     1      -0.571  11.246  22.678  0.00  0.00    +0.000 C 
ATOM     16  C   UNL     1      -0.245   9.815  23.021  0.00  0.00    +0.000 C 
ATOM     17  C   UNL     1      -0.720   8.814  21.974  0.00  0.00    +0.000 C 
ATOM     18  N   UNL     1       0.121   8.643  20.779  0.00  0.00    +0.000 NA
ATOM     19  C   UNL     1       0.089   9.836  19.915  0.00  0.00    +0.000 C 
ATOM     20  C   UNL     1       0.695  11.123  20.500  0.00  0.00    +0.000 C 
ATOM     21  N   UNL     1      -0.138  11.762  21.498  0.00  0.00    +0.000 N 
ATOM     22  H   UNL     1      -0.345  12.749  21.393  0.00  0.00    +0.000 HD
ENDBRANCH  13  18
ENDBRANCH   1  13
TORSDOF 2
ENDMDL
MODEL 6
REMARK VINA RESULT:      -7.0      5.293      6.984
REMARK  Name = 
REMARK  2 active torsions:
REMARK  status: ('A' for Active; 'I' for Inactive)
REMARK    1  A    between atoms: N_5  and  C_6
REMARK    2  A    between atoms: C_6  and  C_7
REMARK                            x       y       z     vdW  Elec       q    Type
REMARK                         _______ _______ _______ _____ _____    ______ ____
ROOT
ATOM      1  C   UNL     1       2.143   7.216  19.886  0.00  0.00    +0.000 A 
ATOM      2  C   UNL     1       2.963   7.185  18.748  0.00  0.00    +0.000 A 
ATOM      3  C   UNL     1       3.373   5.964  18.206  0.00  0.00    +0.000 A 
ATOM      4 CL   UNL     1       4.389   5.985  16.810  0.00  0.00    +0.000 Cl
ATOM      5  C   UNL     1       2.949   4.761  18.781  0.00  0.00    +0.000 A 
ATOM      6  C   UNL     1       2.148   4.790  19.925  0.00  0.00    +0.000 A 
ATOM      7  C   UNL     1       1.758   6.008  20.482  0.00  0.00    +0.000 A 
ATOM      8  O   UNL     1       1.796   3.658  20.612  0.00  0.00    +0.000 OA
ATOM      9  C   UNL     1       0.922   2.819  19.853  0.00  0.00    +0.000 C 
ATOM     10  C   UNL     1       1.672   1.955  18.850  0.00  0.00    +0.000 C 
ATOM     11  C   UNL     1       2.306   2.796  17.752  0.00  0.00    +0.000 C 
ATOM     12  O   UNL     1       3.393   3.575  18.254  0.00  0.00    +0.000 OA
ENDROOT
BRANCH   1  13
ATOM     13  C   UNL     1       1.702   8.535  20.480  0.00  0.00    +0.000 C 
BRANCH  13  18
ATOM     14  O   UNL     1      -1.254  11.598  23.505  0.00  0.00    +0.000 OA
ATOM     15  C   UNL     1      -0.620  11.053  22.602  0.00  0.00    +0.000 C 
ATOM     16  C   UNL     1      -0.053   9.666  22.759  0.00  0.00    +0.000 C 
ATOM     17  C   UNL     1      -0.478   8.706  21.654  0.00  0.00    +0.000 C 
ATOM     18  N   UNL     1       0.255   8.782  20.381  0.00  0.00    +0.000 NA
ATOM     19  C   UNL     1      -0.039  10.030  19.656  0.00  0.00    +0.000 C 
ATOM     20  C   UNL     1       0.425  11.336  20.323  0.00  0.00    +0.000 C 
ATOM     21  N   UNL     1      -0.389  11.739  21.452  0.00  0.00    +0.000 N 
ATOM     22  H   UNL     1      -0.750  12.687  21.471  0.00  0.00    +0.000 HD
ENDBRANCH  13  18
ENDBRANCH   1  13
TORSDOF 2
ENDMDL
MODEL 7
REMARK VINA RESULT:      -6.8      5.058      8.116
REMARK  Name = 
REMARK  2 active torsions:
REMARK  status: ('A' for Active; 'I' for Inactive)
REMARK    1  A    between atoms: N_5  and  C_6
REMARK    2  A    between atoms: C_6  and  C_7
REMARK                            x       y       z     vdW  Elec       q    Type
REMARK                         _______ _______ _______ _____ _____    ______ ____
ROOT
ATOM      1  C   UNL     1       2.202   7.397  19.671  0.00  0.00    +0.000 A 
ATOM      2  C   UNL     1       2.129   8.470  18.769  0.00  0.00    +0.000 A 
ATOM      3  C   UNL     1       1.268   9.542  19.015  0.00  0.00    +0.000 A 
ATOM      4 CL   UNL     1       1.212  10.831  17.867  0.00  0.00    +0.000 Cl
ATOM      5  C   UNL     1       0.487   9.566  20.175  0.00  0.00    +0.000 A 
ATOM      6  C   UNL     1       0.544   8.490  21.065  0.00  0.00    +0.000 A 
ATOM      7  C   UNL     1       1.385   7.408  20.809  0.00  0.00    +0.000 A 
ATOM      8  O   UNL     1      -0.278   8.387  22.156  0.00  0.00    +0.000 OA
ATOM      9  C   UNL     1       0.000   9.390  23.136  0.00  0.00    +0.000 C 
ATOM     10  C   UNL     1      -0.646  10.727  22.798  0.00  0.00    +0.000 C 
ATOM     11  C   UNL     1      -0.030  11.347  21.553  0.00  0.00    +0.000 C 
ATOM     12  O   UNL     1      -0.378  10.611  20.378  0.00  0.00    +0.000 OA
ENDROOT
BRANCH   1  13
ATOM     13  C   UNL     1       3.127   6.231  19.405  0.00  0.00    +0.000 C 
BRANCH  13  18
ATOM     14  O   UNL     1       7.513   4.585  17.098  0.00  0.00    +0.000 OA
ATOM     15  C   UNL     1       6.384   4.735  17.564  0.00  0.00    +0.000 C 
ATOM     16  C   UNL     1       5.906   6.075  18.060  0.00  0.00    +0.000 C 
ATOM     17  C   UNL     1       4.595   6.527  17.426  0.00  0.00    +0.000 C 
ATOM     18  N   UNL     1       3.353   5.961  17.977  0.00  0.00    +0.000 NA
ATOM     19  C   UNL     1       3.221   4.528  17.663  0.00  0.00    +0.000 C 
ATOM     20  C   UNL     1       4.260   3.588  18.296  0.00  0.00    +0.000 C 
ATOM     21  N   UNL     1       5.567   3.655  17.675  0.00  0.00    +0.000 N 
ATOM     22  H   UNL     1       6.005   2.790  17.380  0.00  0.00    +0.000 HD
ENDBRANCH  13  18
ENDBRANCH   1  13
TORSDOF 2
ENDMDL
MODEL 8
REMARK VINA RESULT:      -6.8      6.183      7.802
REMARK  Name = 
REMARK  2 active torsions:
REMARK  status: ('A' for Active; 'I' for Inactive)
REMARK    1  A    between atoms: N_5  and  C_6
REMARK    2  A    between atoms: C_6  and  C_7
REMARK                            x       y       z     vdW  Elec       q    Type
REMARK                         _______ _______ _______ _____ _____    ______ ____
ROOT
ATOM      1  C   UNL     1       2.161   8.349  18.345  0.00  0.00    +0.000 A 
ATOM      2  C   UNL     1       3.196   7.863  17.531  0.00  0.00    +0.000 A 
ATOM      3  C   UNL     1       3.810   6.642  17.824  0.00  0.00    +0.000 A 
ATOM      4 CL   UNL     1       5.084   6.096  16.795  0.00  0.00    +0.000 Cl
ATOM      5  C   UNL     1       3.381   5.883  18.918  0.00  0.00    +0.000 A 
ATOM      6  C   UNL     1       2.363   6.374  19.739  0.00  0.00    +0.000 A 
ATOM      7  C   UNL     1       1.767   7.604  19.463  0.00  0.00    +0.000 A 
ATOM      8  O   UNL     1       1.975   5.746  20.894  0.00  0.00    +0.000 OA
ATOM      9  C   UNL     1       1.348   4.488  20.637  0.00  0.00    +0.000 C 
ATOM     10  C   UNL     1       2.358   3.375  20.393  0.00  0.00    +0.000 C 
ATOM     11  C   UNL     1       3.130   3.594  19.100  0.00  0.00    +0.000 C 
ATOM     12  O   UNL     1       4.022   4.705  19.207  0.00  0.00    +0.000 OA
ENDROOT
BRANCH   1  13
ATOM     13  C   UNL     1       1.499   9.673  18.036  0.00  0.00    +0.000 C 
BRANCH  13  18
ATOM     14  O   UNL     1      -0.342  14.531  18.565  0.00  0.00    +0.000 OA
ATOM     15  C   UNL     1      -0.168  13.320  18.434  0.00  0.00    +0.000 C 
ATOM     16  C   UNL     1       1.189  12.692  18.622  0.00  0.00    +0.000 C 
ATOM     17  C   UNL     1       1.198  11.550  19.632  0.00  0.00    +0.000 C 
ATOM     18  N   UNL     1       0.735  10.235  19.161  0.00  0.00    +0.000 NA
ATOM     19  C   UNL     1      -0.714  10.230  18.896  0.00  0.00    +0.000 C 
ATOM     20  C   UNL     1      -1.204  11.125  17.745  0.00  0.00    +0.000 C 
ATOM     21  N   UNL     1      -1.217  12.538  18.067  0.00  0.00    +0.000 N 
ATOM     22  H   UNL     1      -2.067  13.063  17.897  0.00  0.00    +0.000 HD
ENDBRANCH  13  18
ENDBRANCH   1  13
TORSDOF 2
ENDMDL
MODEL 9
REMARK VINA RESULT:      -6.8      5.227      6.730
REMARK  Name = 
REMARK  2 active torsions:
REMARK  status: ('A' for Active; 'I' for Inactive)
REMARK    1  A    between atoms: N_5  and  C_6
REMARK    2  A    between atoms: C_6  and  C_7
REMARK                            x       y       z     vdW  Elec       q    Type
REMARK                         _______ _______ _______ _____ _____    ______ ____
ROOT
ATOM      1  C   UNL     1       1.804   6.635  20.226  0.00  0.00    +0.000 A 
ATOM      2  C   UNL     1       2.609   7.085  19.168  0.00  0.00    +0.000 A 
ATOM      3  C   UNL     1       3.464   6.201  18.505  0.00  0.00    +0.000 A 
ATOM      4 CL   UNL     1       4.438   6.810  17.217  0.00  0.00    +0.000 Cl
ATOM      5  C   UNL     1       3.508   4.853  18.877  0.00  0.00    +0.000 A 
ATOM      6  C   UNL     1       2.722   4.407  19.942  0.00  0.00    +0.000 A 
ATOM      7  C   UNL     1       1.886   5.293  20.620  0.00  0.00    +0.000 A 
ATOM      8  O   UNL     1       2.802   3.133  20.439  0.00  0.00    +0.000 OA
ATOM      9  C   UNL     1       2.331   2.160  19.504  0.00  0.00    +0.000 C 
ATOM     10  C   UNL     1       3.380   1.800  18.462  0.00  0.00    +0.000 C 
ATOM     11  C   UNL     1       3.683   2.974  17.544  0.00  0.00    +0.000 C 
ATOM     12  O   UNL     1       4.381   4.011  18.237  0.00  0.00    +0.000 OA
ENDROOT
BRANCH   1  13
ATOM     13  C   UNL     1       0.883   7.589  20.950  0.00  0.00    +0.000 C 
BRANCH  13  18
ATOM     14  O   UNL     1      -1.611  12.158  21.376  0.00  0.00    +0.000 OA
ATOM     15  C   UNL     1      -0.961  11.125  21.533  0.00  0.00    +0.000 C 
ATOM     16  C   UNL     1      -0.552  10.265  20.366  0.00  0.00    +0.000 C 
ATOM     17  C   UNL     1       0.946   9.987  20.310  0.00  0.00    +0.000 C 
ATOM     18  N   UNL     1       1.464   8.921  21.182  0.00  0.00    +0.000 NA
ATOM     19  C   UNL     1       1.405   9.305  22.604  0.00  0.00    +0.000 C 
ATOM     20  C   UNL     1       0.003   9.499  23.204  0.00  0.00    +0.000 C 
ATOM     21  N   UNL     1      -0.645  10.729  22.794  0.00  0.00    +0.000 N 
ATOM     22  H   UNL     1      -1.025  11.336  23.511  0.00  0.00    +0.000 HD
ENDBRANCH  13  18
ENDBRANCH   1  13
TORSDOF 2
ENDMDL
