MODEL 1
REMARK VINA RESULT:      -9.2      0.000      0.000
REMARK  Name = 
REMARK  4 active torsions:
REMARK  status: ('A' for Active; 'I' for Inactive)
REMARK    1  A    between atoms: N_3  and  C_4
REMARK    2  A    between atoms: C_4  and  C_5
REMARK    3  A    between atoms: C_5  and  C_6
REMARK    4  A    between atoms: C_9  and  O_10
REMARK                            x       y       z     vdW  Elec       q    Type
REMARK                         _______ _______ _______ _____ _____    ______ ____
ROOT
ATOM      1  O   UNL     1       7.808   5.496  19.323  0.00  0.00    +0.000 OA
ATOM      2  C   UNL     1       7.296   5.965  18.322  0.00  0.00    +0.000 C 
ATOM      3  N   UNL     1       7.501   7.228  17.786  0.00  0.00    +0.000 N 
ATOM      4  N   UNL     1       6.333   5.230  17.592  0.00  0.00    +0.000 N 
ATOM      5  C   UNL     1       6.443   4.895  16.239  0.00  0.00    +0.000 A 
ATOM      6  C   UNL     1       7.483   5.121  15.316  0.00  0.00    +0.000 A 
ATOM      7  C   UNL     1       7.321   4.661  14.005  0.00  0.00    +0.000 A 
ATOM      8  C   UNL     1       6.164   3.994  13.619  0.00  0.00    +0.000 A 
ATOM      9  C   UNL     1       5.148   3.758  14.543  0.00  0.00    +0.000 A 
ATOM     10  C   UNL     1       5.289   4.198  15.877  0.00  0.00    +0.000 A 
ATOM     11  C   UNL     1       4.459   4.110  17.031  0.00  0.00    +0.000 A 
ATOM     12  C   UNL     1       3.173   3.564  17.247  0.00  0.00    +0.000 A 
ATOM     13  C   UNL     1       2.577   3.661  18.506  0.00  0.00    +0.000 A 
ATOM     14  C   UNL     1       3.250   4.290  19.548  0.00  0.00    +0.000 A 
ATOM     15  C   UNL     1       4.529   4.832  19.363  0.00  0.00    +0.000 A 
ATOM     16  C   UNL     1       5.129   4.728  18.091  0.00  0.00    +0.000 A 
ATOM     17  H   UNL     1       6.820   7.592  17.127  0.00  0.00    +0.000 HD
ENDROOT
BRANCH   3  18
ATOM     18  C   UNL     1       8.406   8.145  18.470  0.00  0.00    +0.000 C 
BRANCH  18  19
ATOM     19  C   UNL     1       8.254   9.603  18.027  0.00  0.00    +0.000 C 
BRANCH  19  20
ATOM     20  C   UNL     1       9.357  10.495  18.558  0.00  0.00    +0.000 A 
ATOM     21  C   UNL     1       9.486  10.728  19.937  0.00  0.00    +0.000 A 
ATOM     22  C   UNL     1      10.484  11.577  20.429  0.00  0.00    +0.000 A 
ATOM     23  C   UNL     1      11.357  12.195  19.541  0.00  0.00    +0.000 A 
ATOM     24  C   UNL     1      11.254  11.969  18.174  0.00  0.00    +0.000 A 
ATOM     25  C   UNL     1      10.256  11.122  17.683  0.00  0.00    +0.000 A 
BRANCH  23  26
ATOM     26  O   UNL     1      12.332  13.044  19.974  0.00  0.00    +0.000 OA
ATOM     27  H   UNL     1      12.963  13.189  19.249  0.00  0.00    +0.000 HD
ENDBRANCH  23  26
ENDBRANCH  19  20
ENDBRANCH  18  19
ENDBRANCH   3  18
TORSDOF 4
ENDMDL
MODEL 2
REMARK VINA RESULT:      -9.0      5.669      7.783
REMARK  Name = 
REMARK  4 active torsions:
REMARK  status: ('A' for Active; 'I' for Inactive)
REMARK    1  A    between atoms: N_3  and  C_4
REMARK    2  A    between atoms: C_4  and  C_5
REMARK    3  A    between atoms: C_5  and  C_6
REMARK    4  A    between atoms: C_9  and  O_10
REMARK                            x       y       z     vdW  Elec       q    Type
REMARK                         _______ _______ _______ _____ _____    ______ ____
ROOT
ATOM      1  O   UNL     1       2.554   7.492  20.062  0.00  0.00    +0.000 OA
ATOM      2  C   UNL     1       2.498   7.249  18.870  0.00  0.00    +0.000 C 
ATOM      3  N   UNL     1       2.055   8.090  17.860  0.00  0.00    +0.000 N 
ATOM      4  N   UNL     1       2.854   5.972  18.377  0.00  0.00    +0.000 N 
ATOM      5  C   UNL     1       3.848   5.734  17.423  0.00  0.00    +0.000 A 
ATOM      6  C   UNL     1       4.740   6.617  16.782  0.00  0.00    +0.000 A 
ATOM      7  C   UNL     1       5.649   6.091  15.859  0.00  0.00    +0.000 A 
ATOM      8  C   UNL     1       5.676   4.730  15.576  0.00  0.00    +0.000 A 
ATOM      9  C   UNL     1       4.802   3.861  16.228  0.00  0.00    +0.000 A 
ATOM     10  C   UNL     1       3.883   4.361  17.177  0.00  0.00    +0.000 A 
ATOM     11  C   UNL     1       2.891   3.751  17.995  0.00  0.00    +0.000 A 
ATOM     12  C   UNL     1       2.452   2.414  18.133  0.00  0.00    +0.000 A 
ATOM     13  C   UNL     1       1.405   2.110  19.007  0.00  0.00    +0.000 A 
ATOM     14  C   UNL     1       0.800   3.122  19.745  0.00  0.00    +0.000 A 
ATOM     15  C   UNL     1       1.222   4.454  19.634  0.00  0.00    +0.000 A 
ATOM     16  C   UNL     1       2.281   4.755  18.753  0.00  0.00    +0.000 A 
ATOM     17  H   UNL     1       1.798   7.682  16.967  0.00  0.00    +0.000 HD
ENDROOT
BRANCH   3  18
ATOM     18  C   UNL     1       1.571   9.420  18.212  0.00  0.00    +0.000 C 
BRANCH  18  19
ATOM     19  C   UNL     1       0.347   9.405  19.133  0.00  0.00    +0.000 C 
BRANCH  19  20
ATOM     20  C   UNL     1      -0.840  10.137  18.543  0.00  0.00    +0.000 A 
ATOM     21  C   UNL     1      -1.430  11.212  19.226  0.00  0.00    +0.000 A 
ATOM     22  C   UNL     1      -2.546  11.870  18.698  0.00  0.00    +0.000 A 
ATOM     23  C   UNL     1      -3.075  11.453  17.481  0.00  0.00    +0.000 A 
ATOM     24  C   UNL     1      -2.499  10.400  16.783  0.00  0.00    +0.000 A 
ATOM     25  C   UNL     1      -1.385   9.742  17.312  0.00  0.00    +0.000 A 
BRANCH  23  26
ATOM     26  O   UNL     1      -4.173  12.053  16.938  0.00  0.00    +0.000 OA
ATOM     27  H   UNL     1      -3.904  12.519  16.129  0.00  0.00    +0.000 HD
ENDBRANCH  23  26
ENDBRANCH  19  20
ENDBRANCH  18  19
ENDBRANCH   3  18
TORSDOF 4
ENDMDL
MODEL 3
REMARK VINA RESULT:      -8.9      5.155      7.053
REMARK  Name = 
REMARK  4 active torsions:
REMARK  status: ('A' for Active; 'I' for Inactive)
REMARK    1  A    between atoms: N_3  and  C_4
REMARK    2  A    between atoms: C_4  and  C_5
REMARK    3  A    between atoms: C_5  and  C_6
REMARK    4  A    between atoms: C_9  and  O_10
REMARK                            x       y       z     vdW  Elec       q    Type
REMARK                         _______ _______ _______ _____ _____    ______ ____
ROOT
ATOM      1  O   UNL     1       2.602   7.431  20.007  0.00  0.00    +0.000 OA
ATOM      2  C   UNL     1       2.563   7.202  18.812  0.00  0.00    +0.000 C 
ATOM      3  N   UNL     1       2.156   8.063  17.803  0.00  0.00    +0.000 N 
ATOM      4  N   UNL     1       2.901   5.923  18.311  0.00  0.00    +0.000 N 
ATOM      5  C   UNL     1       3.907   5.674  17.372  0.00  0.00    +0.000 A 
ATOM      6  C   UNL     1       4.829   6.545  16.758  0.00  0.00    +0.000 A 
ATOM      7  C   UNL     1       5.743   6.010  15.845  0.00  0.00    +0.000 A 
ATOM      8  C   UNL     1       5.746   4.652  15.548  0.00  0.00    +0.000 A 
ATOM      9  C   UNL     1       4.843   3.794  16.174  0.00  0.00    +0.000 A 
ATOM     10  C   UNL     1       3.917   4.304  17.111  0.00  0.00    +0.000 A 
ATOM     11  C   UNL     1       2.898   3.706  17.904  0.00  0.00    +0.000 A 
ATOM     12  C   UNL     1       2.428   2.377  18.019  0.00  0.00    +0.000 A 
ATOM     13  C   UNL     1       1.359   2.087  18.871  0.00  0.00    +0.000 A 
ATOM     14  C   UNL     1       0.762   3.103  19.609  0.00  0.00    +0.000 A 
ATOM     15  C   UNL     1       1.214   4.427  19.521  0.00  0.00    +0.000 A 
ATOM     16  C   UNL     1       2.295   4.714  18.662  0.00  0.00    +0.000 A 
ATOM     17  H   UNL     1       1.907   7.670  16.901  0.00  0.00    +0.000 HD
ENDROOT
BRANCH   3  18
ATOM     18  C   UNL     1       1.695   9.399  18.162  0.00  0.00    +0.000 C 
BRANCH  18  19
ATOM     19  C   UNL     1       0.177   9.497  18.347  0.00  0.00    +0.000 C 
BRANCH  19  20
ATOM     20  C   UNL     1      -0.213  10.093  19.683  0.00  0.00    +0.000 A 
ATOM     21  C   UNL     1      -0.794  11.370  19.754  0.00  0.00    +0.000 A 
ATOM     22  C   UNL     1      -1.127  11.937  20.989  0.00  0.00    +0.000 A 
ATOM     23  C   UNL     1      -0.880  11.226  22.159  0.00  0.00    +0.000 A 
ATOM     24  C   UNL     1      -0.317   9.957  22.110  0.00  0.00    +0.000 A 
ATOM     25  C   UNL     1       0.017   9.392  20.876  0.00  0.00    +0.000 A 
BRANCH  23  26
ATOM     26  O   UNL     1      -1.170  11.747  23.385  0.00  0.00    +0.000 OA
ATOM     27  H   UNL     1      -2.136  11.786  23.485  0.00  0.00    +0.000 HD
ENDBRANCH  23  26
ENDBRANCH  19  20
ENDBRANCH  18  19
ENDBRANCH   3  18
TORSDOF 4
ENDMDL
MODEL 4
REMARK VINA RESULT:      -8.9      5.351      7.875
REMARK  Name = 
REMARK  4 active torsions:
REMARK  status: ('A' for Active; 'I' for Inactive)
REMARK    1  A    between atoms: N_3  and  C_4
REMARK    2  A    between atoms: C_4  and  C_5
REMARK    3  A    between atoms: C_5  and  C_6
REMARK    4  A    between atoms: C_9  and  O_10
REMARK                            x       y       z     vdW  Elec       q    Type
REMARK                         _______ _______ _______ _____ _____    ______ ____
ROOT
ATOM      1  O   UNL     1       1.927   7.892  17.960  0.00  0.00    +0.000 OA
ATOM      2  C   UNL     1       2.300   7.014  18.717  0.00  0.00    +0.000 C 
ATOM      3  N   UNL     1       2.319   7.049  20.103  0.00  0.00    +0.000 N 
ATOM      4  N   UNL     1       2.838   5.807  18.211  0.00  0.00    +0.000 N 
ATOM      5  C   UNL     1       2.334   4.532  18.485  0.00  0.00    +0.000 A 
ATOM      6  C   UNL     1       1.208   4.127  19.228  0.00  0.00    +0.000 A 
ATOM      7  C   UNL     1       0.935   2.759  19.332  0.00  0.00    +0.000 A 
ATOM      8  C   UNL     1       1.752   1.818  18.716  0.00  0.00    +0.000 A 
ATOM      9  C   UNL     1       2.854   2.228  17.966  0.00  0.00    +0.000 A 
ATOM     10  C   UNL     1       3.146   3.603  17.833  0.00  0.00    +0.000 A 
ATOM     11  C   UNL     1       4.165   4.325  17.150  0.00  0.00    +0.000 A 
ATOM     12  C   UNL     1       5.274   3.917  16.374  0.00  0.00    +0.000 A 
ATOM     13  C   UNL     1       6.149   4.872  15.850  0.00  0.00    +0.000 A 
ATOM     14  C   UNL     1       5.925   6.224  16.087  0.00  0.00    +0.000 A 
ATOM     15  C   UNL     1       4.829   6.657  16.846  0.00  0.00    +0.000 A 
ATOM     16  C   UNL     1       3.947   5.689  17.370  0.00  0.00    +0.000 A 
ATOM     17  H   UNL     1       2.902   6.381  20.598  0.00  0.00    +0.000 HD
ENDROOT
BRANCH   3  18
ATOM     18  C   UNL     1       1.873   8.260  20.783  0.00  0.00    +0.000 C 
BRANCH  18  19
ATOM     19  C   UNL     1       0.477   8.139  21.401  0.00  0.00    +0.000 C 
BRANCH  19  20
ATOM     20  C   UNL     1      -0.191   9.483  21.607  0.00  0.00    +0.000 A 
ATOM     21  C   UNL     1      -0.604   9.887  22.887  0.00  0.00    +0.000 A 
ATOM     22  C   UNL     1      -1.249  11.115  23.077  0.00  0.00    +0.000 A 
ATOM     23  C   UNL     1      -1.483  11.941  21.983  0.00  0.00    +0.000 A 
ATOM     24  C   UNL     1      -1.073  11.566  20.711  0.00  0.00    +0.000 A 
ATOM     25  C   UNL     1      -0.429  10.339  20.522  0.00  0.00    +0.000 A 
BRANCH  23  26
ATOM     26  O   UNL     1      -2.126  13.137  22.118  0.00  0.00    +0.000 OA
ATOM     27  H   UNL     1      -2.196  13.552  21.243  0.00  0.00    +0.000 HD
ENDBRANCH  23  26
ENDBRANCH  19  20
ENDBRANCH  18  19
ENDBRANCH   3  18
TORSDOF 4
ENDMDL
MODEL 5
REMARK VINA RESULT:      -8.8      5.359      7.808
REMARK  Name = 
REMARK  4 active torsions:
REMARK  status: ('A' for Active; 'I' for Inactive)
REMARK    1  A    between atoms: N_3  and  C_4
REMARK    2  A    between atoms: C_4  and  C_5
REMARK    3  A    between atoms: C_5  and  C_6
REMARK    4  A    between atoms: C_9  and  O_10
REMARK                            x       y       z     vdW  Elec       q    Type
REMARK                         _______ _______ _______ _____ _____    ______ ____
ROOT
ATOM      1  O   UNL     1       2.671   8.224  17.287  0.00  0.00    +0.000 OA
ATOM      2  C   UNL     1       2.746   7.360  18.143  0.00  0.00    +0.000 C 
ATOM      3  N   UNL     1       2.255   7.415  19.439  0.00  0.00    +0.000 N 
ATOM      4  N   UNL     1       3.442   6.155  17.891  0.00  0.00    +0.000 N 
ATOM      5  C   UNL     1       2.883   4.876  17.983  0.00  0.00    +0.000 A 
ATOM      6  C   UNL     1       1.566   4.466  18.268  0.00  0.00    +0.000 A 
ATOM      7  C   UNL     1       1.284   3.096  18.287  0.00  0.00    +0.000 A 
ATOM      8  C   UNL     1       2.278   2.158  18.030  0.00  0.00    +0.000 A 
ATOM      9  C   UNL     1       3.575   2.573  17.731  0.00  0.00    +0.000 A 
ATOM     10  C   UNL     1       3.885   3.950  17.690  0.00  0.00    +0.000 A 
ATOM     11  C   UNL     1       5.078   4.677  17.417  0.00  0.00    +0.000 A 
ATOM     12  C   UNL     1       6.397   4.273  17.110  0.00  0.00    +0.000 A 
ATOM     13  C   UNL     1       7.396   5.233  16.927  0.00  0.00    +0.000 A 
ATOM     14  C   UNL     1       7.090   6.585  17.042  0.00  0.00    +0.000 A 
ATOM     15  C   UNL     1       5.789   7.013  17.338  0.00  0.00    +0.000 A 
ATOM     16  C   UNL     1       4.783   6.040  17.517  0.00  0.00    +0.000 A 
ATOM     17  H   UNL     1       2.620   6.761  20.124  0.00  0.00    +0.000 HD
ENDROOT
BRANCH   3  18
ATOM     18  C   UNL     1       1.581   8.628  19.886  0.00  0.00    +0.000 C 
BRANCH  18  19
ATOM     19  C   UNL     1       0.929   8.497  21.266  0.00  0.00    +0.000 C 
BRANCH  19  20
ATOM     20  C   UNL     1       0.019   9.661  21.597  0.00  0.00    +0.000 A 
ATOM     21  C   UNL     1      -0.331  10.598  20.612  0.00  0.00    +0.000 A 
ATOM     22  C   UNL     1      -1.147  11.692  20.923  0.00  0.00    +0.000 A 
ATOM     23  C   UNL     1      -1.615  11.851  22.222  0.00  0.00    +0.000 A 
ATOM     24  C   UNL     1      -1.290  10.929  23.209  0.00  0.00    +0.000 A 
ATOM     25  C   UNL     1      -0.474   9.837  22.899  0.00  0.00    +0.000 A 
BRANCH  23  26
ATOM     26  O   UNL     1      -2.396  12.912  22.574  0.00  0.00    +0.000 OA
ATOM     27  H   UNL     1      -2.558  12.874  23.531  0.00  0.00    +0.000 HD
ENDBRANCH  23  26
ENDBRANCH  19  20
ENDBRANCH  18  19
ENDBRANCH   3  18
TORSDOF 4
ENDMDL
MODEL 6
REMARK VINA RESULT:      -8.6      5.604      7.385
REMARK  Name = 
REMARK  4 active torsions:
REMARK  status: ('A' for Active; 'I' for Inactive)
REMARK    1  A    between atoms: N_3  and  C_4
REMARK    2  A    between atoms: C_4  and  C_5
REMARK    3  A    between atoms: C_5  and  C_6
REMARK    4  A    between atoms: C_9  and  O_10
REMARK                            x       y       z     vdW  Elec       q    Type
REMARK                         _______ _______ _______ _____ _____    ______ ____
ROOT
ATOM      1  O   UNL     1       2.504   7.402  20.073  0.00  0.00    +0.000 OA
ATOM      2  C   UNL     1       2.474   7.185  18.876  0.00  0.00    +0.000 C 
ATOM      3  N   UNL     1       2.039   8.043  17.876  0.00  0.00    +0.000 N 
ATOM      4  N   UNL     1       2.858   5.925  18.361  0.00  0.00    +0.000 N 
ATOM      5  C   UNL     1       3.873   5.721  17.421  0.00  0.00    +0.000 A 
ATOM      6  C   UNL     1       4.765   6.630  16.818  0.00  0.00    +0.000 A 
ATOM      7  C   UNL     1       5.698   6.138  15.901  0.00  0.00    +0.000 A 
ATOM      8  C   UNL     1       5.750   4.784  15.589  0.00  0.00    +0.000 A 
ATOM      9  C   UNL     1       4.876   3.888  16.205  0.00  0.00    +0.000 A 
ATOM     10  C   UNL     1       3.932   4.355  17.146  0.00  0.00    +0.000 A 
ATOM     11  C   UNL     1       2.933   3.713  17.931  0.00  0.00    +0.000 A 
ATOM     12  C   UNL     1       2.510   2.368  18.031  0.00  0.00    +0.000 A 
ATOM     13  C   UNL     1       1.452   2.030  18.878  0.00  0.00    +0.000 A 
ATOM     14  C   UNL     1       0.818   3.017  19.626  0.00  0.00    +0.000 A 
ATOM     15  C   UNL     1       1.223   4.357  19.552  0.00  0.00    +0.000 A 
ATOM     16  C   UNL     1       2.295   4.692  18.699  0.00  0.00    +0.000 A 
ATOM     17  H   UNL     1       1.805   7.651  16.969  0.00  0.00    +0.000 HD
ENDROOT
BRANCH   3  18
ATOM     18  C   UNL     1       1.530   9.358  18.248  0.00  0.00    +0.000 C 
BRANCH  18  19
ATOM     19  C   UNL     1       0.055   9.569  17.895  0.00  0.00    +0.000 C 
BRANCH  19  20
ATOM     20  C   UNL     1      -0.657  10.482  18.871  0.00  0.00    +0.000 A 
ATOM     21  C   UNL     1      -1.739  11.272  18.453  0.00  0.00    +0.000 A 
ATOM     22  C   UNL     1      -2.379  12.141  19.345  0.00  0.00    +0.000 A 
ATOM     23  C   UNL     1      -1.935  12.221  20.660  0.00  0.00    +0.000 A 
ATOM     24  C   UNL     1      -0.873  11.439  21.098  0.00  0.00    +0.000 A 
ATOM     25  C   UNL     1      -0.234  10.573  20.206  0.00  0.00    +0.000 A 
BRANCH  23  26
ATOM     26  O   UNL     1      -2.516  13.067  21.558  0.00  0.00    +0.000 OA
ATOM     27  H   UNL     1      -1.820  13.451  22.117  0.00  0.00    +0.000 HD
ENDBRANCH  23  26
ENDBRANCH  19  20
ENDBRANCH  18  19
ENDBRANCH   3  18
TORSDOF 4
ENDMDL
MODEL 7
REMARK VINA RESULT:      -8.6      5.419      7.907
REMARK  Name = 
REMARK  4 active torsions:
REMARK  status: ('A' for Active; 'I' for Inactive)
REMARK    1  A    between atoms: N_3  and  C_4
REMARK    2  A    between atoms: C_4  and  C_5
REMARK    3  A    between atoms: C_5  and  C_6
REMARK    4  A    between atoms: C_9  and  O_10
REMARK                            x       y       z     vdW  Elec       q    Type
REMARK                         _______ _______ _______ _____ _____    ______ ____
ROOT
ATOM      1  O   UNL     1       1.794   8.033  18.170  0.00  0.00    +0.000 OA
ATOM      2  C   UNL     1       2.191   7.184  18.947  0.00  0.00    +0.000 C 
ATOM      3  N   UNL     1       2.255   7.272  20.330  0.00  0.00    +0.000 N 
ATOM      4  N   UNL     1       2.714   5.959  18.471  0.00  0.00    +0.000 N 
ATOM      5  C   UNL     1       2.220   4.695  18.809  0.00  0.00    +0.000 A 
ATOM      6  C   UNL     1       1.118   4.319  19.602  0.00  0.00    +0.000 A 
ATOM      7  C   UNL     1       0.849   2.957  19.766  0.00  0.00    +0.000 A 
ATOM      8  C   UNL     1       1.647   1.992  19.161  0.00  0.00    +0.000 A 
ATOM      9  C   UNL     1       2.724   2.373  18.362  0.00  0.00    +0.000 A 
ATOM     10  C   UNL     1       3.011   3.742  18.167  0.00  0.00    +0.000 A 
ATOM     11  C   UNL     1       4.008   4.437  17.426  0.00  0.00    +0.000 A 
ATOM     12  C   UNL     1       5.091   3.998  16.631  0.00  0.00    +0.000 A 
ATOM     13  C   UNL     1       5.948   4.932  16.043  0.00  0.00    +0.000 A 
ATOM     14  C   UNL     1       5.732   6.293  16.236  0.00  0.00    +0.000 A 
ATOM     15  C   UNL     1       4.660   6.754  17.012  0.00  0.00    +0.000 A 
ATOM     16  C   UNL     1       3.795   5.808  17.600  0.00  0.00    +0.000 A 
ATOM     17  H   UNL     1       2.853   6.623  20.831  0.00  0.00    +0.000 HD
ENDROOT
BRANCH   3  18
ATOM     18  C   UNL     1       1.829   8.509  20.976  0.00  0.00    +0.000 C 
BRANCH  18  19
ATOM     19  C   UNL     1       0.332   8.552  21.295  0.00  0.00    +0.000 C 
BRANCH  19  20
ATOM     20  C   UNL     1      -0.318   9.855  20.881  0.00  0.00    +0.000 A 
ATOM     21  C   UNL     1      -0.689  10.077  19.545  0.00  0.00    +0.000 A 
ATOM     22  C   UNL     1      -1.261  11.293  19.154  0.00  0.00    +0.000 A 
ATOM     23  C   UNL     1      -1.464  12.291  20.100  0.00  0.00    +0.000 A 
ATOM     24  C   UNL     1      -1.116  12.088  21.429  0.00  0.00    +0.000 A 
ATOM     25  C   UNL     1      -0.543  10.874  21.820  0.00  0.00    +0.000 A 
BRANCH  23  26
ATOM     26  O   UNL     1      -2.001  13.498  19.760  0.00  0.00    +0.000 OA
ATOM     27  H   UNL     1      -1.811  14.133  20.470  0.00  0.00    +0.000 HD
ENDBRANCH  23  26
ENDBRANCH  19  20
ENDBRANCH  18  19
ENDBRANCH   3  18
TORSDOF 4
ENDMDL
MODEL 8
REMARK VINA RESULT:      -8.5      5.244      7.544
REMARK  Name = 
REMARK  4 active torsions:
REMARK  status: ('A' for Active; 'I' for Inactive)
REMARK    1  A    between atoms: N_3  and  C_4
REMARK    2  A    between atoms: C_4  and  C_5
REMARK    3  A    between atoms: C_5  and  C_6
REMARK    4  A    between atoms: C_9  and  O_10
REMARK                            x       y       z     vdW  Elec       q    Type
REMARK                         _______ _______ _______ _____ _____    ______ ____
ROOT
ATOM      1  O   UNL     1       1.866   8.043  18.143  0.00  0.00    +0.000 OA
ATOM      2  C   UNL     1       2.235   7.184  18.922  0.00  0.00    +0.000 C 
ATOM      3  N   UNL     1       2.269   7.262  20.307  0.00  0.00    +0.000 N 
ATOM      4  N   UNL     1       2.752   5.955  18.450  0.00  0.00    +0.000 N 
ATOM      5  C   UNL     1       2.235   4.696  18.768  0.00  0.00    +0.000 A 
ATOM      6  C   UNL     1       1.111   4.329  19.534  0.00  0.00    +0.000 A 
ATOM      7  C   UNL     1       0.821   2.969  19.683  0.00  0.00    +0.000 A 
ATOM      8  C   UNL     1       1.620   1.998  19.089  0.00  0.00    +0.000 A 
ATOM      9  C   UNL     1       2.720   2.370  18.317  0.00  0.00    +0.000 A 
ATOM     10  C   UNL     1       3.028   3.736  18.138  0.00  0.00    +0.000 A 
ATOM     11  C   UNL     1       4.050   4.423  17.423  0.00  0.00    +0.000 A 
ATOM     12  C   UNL     1       5.145   3.976  16.650  0.00  0.00    +0.000 A 
ATOM     13  C   UNL     1       6.027   4.903  16.088  0.00  0.00    +0.000 A 
ATOM     14  C   UNL     1       5.824   6.265  16.285  0.00  0.00    +0.000 A 
ATOM     15  C   UNL     1       4.741   6.735  17.040  0.00  0.00    +0.000 A 
ATOM     16  C   UNL     1       3.851   5.796  17.602  0.00  0.00    +0.000 A 
ATOM     17  H   UNL     1       2.847   6.602  20.816  0.00  0.00    +0.000 HD
ENDROOT
BRANCH   3  18
ATOM     18  C   UNL     1       1.845   8.500  20.952  0.00  0.00    +0.000 C 
BRANCH  18  19
ATOM     19  C   UNL     1       0.342   8.772  20.833  0.00  0.00    +0.000 C 
BRANCH  19  20
ATOM     20  C   UNL     1       0.035  10.031  20.049  0.00  0.00    +0.000 A 
ATOM     21  C   UNL     1       0.815  11.186  20.217  0.00  0.00    +0.000 A 
ATOM     22  C   UNL     1       0.515  12.361  19.517  0.00  0.00    +0.000 A 
ATOM     23  C   UNL     1      -0.569  12.381  18.646  0.00  0.00    +0.000 A 
ATOM     24  C   UNL     1      -1.346  11.246  18.457  0.00  0.00    +0.000 A 
ATOM     25  C   UNL     1      -1.047  10.073  19.157  0.00  0.00    +0.000 A 
BRANCH  23  26
ATOM     26  O   UNL     1      -0.910  13.509  17.959  0.00  0.00    +0.000 OA
ATOM     27  H   UNL     1      -1.380  14.108  18.561  0.00  0.00    +0.000 HD
ENDBRANCH  23  26
ENDBRANCH  19  20
ENDBRANCH  18  19
ENDBRANCH   3  18
TORSDOF 4
ENDMDL
MODEL 9
REMARK VINA RESULT:      -8.3      5.458      6.325
REMARK  Name = 
REMARK  4 active torsions:
REMARK  status: ('A' for Active; 'I' for Inactive)
REMARK    1  A    between atoms: N_3  and  C_4
REMARK    2  A    between atoms: C_4  and  C_5
REMARK    3  A    between atoms: C_5  and  C_6
REMARK    4  A    between atoms: C_9  and  O_10
REMARK                            x       y       z     vdW  Elec       q    Type
REMARK                         _______ _______ _______ _____ _____    ______ ____
ROOT
ATOM      1  O   UNL     1       2.325   7.446  20.106  0.00  0.00    +0.000 OA
ATOM      2  C   UNL     1       2.303   7.200  18.913  0.00  0.00    +0.000 C 
ATOM      3  N   UNL     1       1.822   8.011  17.896  0.00  0.00    +0.000 N 
ATOM      4  N   UNL     1       2.749   5.949  18.427  0.00  0.00    +0.000 N 
ATOM      5  C   UNL     1       3.770   5.775  17.488  0.00  0.00    +0.000 A 
ATOM      6  C   UNL     1       4.613   6.714  16.860  0.00  0.00    +0.000 A 
ATOM      7  C   UNL     1       5.568   6.249  15.951  0.00  0.00    +0.000 A 
ATOM      8  C   UNL     1       5.688   4.892  15.670  0.00  0.00    +0.000 A 
ATOM      9  C   UNL     1       4.862   3.968  16.309  0.00  0.00    +0.000 A 
ATOM     10  C   UNL     1       3.898   4.408  17.243  0.00  0.00    +0.000 A 
ATOM     11  C   UNL     1       2.935   3.734  18.046  0.00  0.00    +0.000 A 
ATOM     12  C   UNL     1       2.581   2.372  18.179  0.00  0.00    +0.000 A 
ATOM     13  C   UNL     1       1.544   2.001  19.037  0.00  0.00    +0.000 A 
ATOM     14  C   UNL     1       0.863   2.971  19.765  0.00  0.00    +0.000 A 
ATOM     15  C   UNL     1       1.199   4.328  19.659  0.00  0.00    +0.000 A 
ATOM     16  C   UNL     1       2.250   4.697  18.794  0.00  0.00    +0.000 A 
ATOM     17  H   UNL     1       1.606   7.587  16.999  0.00  0.00    +0.000 HD
ENDROOT
BRANCH   3  18
ATOM     18  C   UNL     1       1.249   9.306  18.240  0.00  0.00    +0.000 C 
BRANCH  18  19
ATOM     19  C   UNL     1       2.241  10.468  18.127  0.00  0.00    +0.000 C 
BRANCH  19  20
ATOM     20  C   UNL     1       1.607  11.811  18.421  0.00  0.00    +0.000 A 
ATOM     21  C   UNL     1       0.252  11.900  18.775  0.00  0.00    +0.000 A 
ATOM     22  C   UNL     1      -0.345  13.143  19.017  0.00  0.00    +0.000 A 
ATOM     23  C   UNL     1       0.416  14.302  18.904  0.00  0.00    +0.000 A 
ATOM     24  C   UNL     1       1.761  14.235  18.566  0.00  0.00    +0.000 A 
ATOM     25  C   UNL     1       2.356  12.993  18.323  0.00  0.00    +0.000 A 
BRANCH  23  26
ATOM     26  O   UNL     1      -0.129  15.535  19.111  0.00  0.00    +0.000 OA
ATOM     27  H   UNL     1      -0.070  15.745  20.058  0.00  0.00    +0.000 HD
ENDBRANCH  23  26
ENDBRANCH  19  20
ENDBRANCH  18  19
ENDBRANCH   3  18
TORSDOF 4
ENDMDL
