MODEL 1
REMARK VINA RESULT:      -6.9      0.000      0.000
REMARK  Name = 
REMARK  18 active torsions:
REMARK  status: ('A' for Active; 'I' for Inactive)
REMARK    1  A    between atoms: C_1  and  C_2
REMARK    2  A    between atoms: C_2  and  C_3
REMARK    3  A    between atoms: C_3  and  C_4
REMARK    4  A    between atoms: C_4  and  C_5
REMARK    5  A    between atoms: C_5  and  C_6
REMARK    6  A    between atoms: C_6  and  O_7
REMARK    7  A    between atoms: O_7  and  C_8
REMARK    8  A    between atoms: C_11  and  C_12
REMARK    9  A    between atoms: C_12  and  C_13
REMARK   10  A    between atoms: C_13  and  C_14
REMARK   11  A    between atoms: C_14  and  C_15
REMARK   12  A    between atoms: C_15  and  C_16
REMARK   13  A    between atoms: C_16  and  C_18
REMARK   14  A    between atoms: N_20  and  C_21
REMARK   15  A    between atoms: C_21  and  C_22
REMARK   16  A    between atoms: C_22  and  C_23
REMARK   17  A    between atoms: C_23  and  C_24
REMARK   18  A    between atoms: C_24  and  O_26
REMARK                            x       y       z     vdW  Elec       q    Type
REMARK                         _______ _______ _______ _____ _____    ______ ____
ROOT
ATOM      1  C   UNL     1       3.284   2.469  18.832  0.00  0.00    +0.000 C 
ENDROOT
BRANCH   1   2
ATOM      2  C   UNL     1       1.902   2.364  19.470  0.00  0.00    +0.000 C 
BRANCH   2   3
ATOM      3  C   UNL     1       1.255   3.743  19.571  0.00  0.00    +0.000 C 
BRANCH   3   4
ATOM      4  C   UNL     1       2.011   4.653  20.507  0.00  0.00    +0.000 C 
ATOM      5  O   UNL     1       2.503   4.319  21.581  0.00  0.00    +0.000 OA
BRANCH   4   6
ATOM      6  C   UNL     1       2.150   6.108  20.057  0.00  0.00    +0.000 C 
ATOM      7  O   UNL     1       2.734   6.388  19.023  0.00  0.00    +0.000 OA
ATOM      8  N   UNL     1       1.559   7.000  20.921  0.00  0.00    +0.000 N 
ATOM      9  H   UNL     1       1.136   6.607  21.760  0.00  0.00    +0.000 HD
BRANCH   8  10
ATOM     10  C   UNL     1       1.573   8.428  20.701  0.00  0.00    +0.000 C 
BRANCH  10  11
ATOM     11  C   UNL     1       0.185   9.054  20.859  0.00  0.00    +0.000 C 
BRANCH  11  12
ATOM     12  C   UNL     1       0.195  10.382  21.618  0.00  0.00    +0.000 C 
BRANCH  12  13
ATOM     13  C   UNL     1      -0.418  10.256  22.992  0.00  0.00    +0.000 C 
ATOM     14  O   UNL     1      -1.545  10.625  23.286  0.00  0.00    +0.000 OA
BRANCH  13  15
ATOM     15  O   UNL     1       0.403   9.667  23.888  0.00  0.00    +0.000 OA
ATOM     16  H   UNL     1       0.832  10.284  24.511  0.00  0.00    +0.000 HD
ENDBRANCH  13  15
ENDBRANCH  12  13
ENDBRANCH  11  12
ENDBRANCH  10  11
ENDBRANCH   8  10
ENDBRANCH   4   6
ENDBRANCH   3   4
ENDBRANCH   2   3
ENDBRANCH   1   2
BRANCH   1  17
ATOM     17  C   UNL     1       3.231   3.142  17.455  0.00  0.00    +0.000 C 
BRANCH  17  21
ATOM     18  C   UNL     1       6.613   5.790  17.007  0.00  0.00    +0.000 A 
ATOM     19  C   UNL     1       6.408   5.073  18.184  0.00  0.00    +0.000 A 
ATOM     20  C   UNL     1       5.339   4.195  18.301  0.00  0.00    +0.000 A 
ATOM     21  C   UNL     1       4.424   4.043  17.257  0.00  0.00    +0.000 A 
ATOM     22  C   UNL     1       4.629   4.757  16.070  0.00  0.00    +0.000 A 
ATOM     23  C   UNL     1       5.722   5.624  15.946  0.00  0.00    +0.000 A 
BRANCH  18  24
ATOM     24  O   UNL     1       7.645   6.672  16.795  0.00  0.00    +0.000 OA
BRANCH  24  25
ATOM     25  C   UNL     1       8.045   7.378  17.966  0.00  0.00    +0.000 C 
BRANCH  25  26
ATOM     26  C   UNL     1       7.873   8.878  17.782  0.00  0.00    +0.000 C 
BRANCH  26  27
ATOM     27  C   UNL     1       8.738   9.613  18.806  0.00  0.00    +0.000 C 
BRANCH  27  28
ATOM     28  C   UNL     1       9.432  10.821  18.188  0.00  0.00    +0.000 C 
BRANCH  28  30
ATOM     29  C   UNL     1      10.049  11.448  20.534  0.00  0.00    +0.000 C 
ATOM     30  C   UNL     1      10.537  11.351  19.099  0.00  0.00    +0.000 C 
ENDBRANCH  28  30
ENDBRANCH  27  28
ENDBRANCH  26  27
ENDBRANCH  25  26
ENDBRANCH  24  25
ENDBRANCH  18  24
ENDBRANCH  17  21
ENDBRANCH   1  17
TORSDOF 17
ENDMDL
MODEL 2
REMARK VINA RESULT:      -6.7      3.093      8.044
REMARK  Name = 
REMARK  18 active torsions:
REMARK  status: ('A' for Active; 'I' for Inactive)
REMARK    1  A    between atoms: C_1  and  C_2
REMARK    2  A    between atoms: C_2  and  C_3
REMARK    3  A    between atoms: C_3  and  C_4
REMARK    4  A    between atoms: C_4  and  C_5
REMARK    5  A    between atoms: C_5  and  C_6
REMARK    6  A    between atoms: C_6  and  O_7
REMARK    7  A    between atoms: O_7  and  C_8
REMARK    8  A    between atoms: C_11  and  C_12
REMARK    9  A    between atoms: C_12  and  C_13
REMARK   10  A    between atoms: C_13  and  C_14
REMARK   11  A    between atoms: C_14  and  C_15
REMARK   12  A    between atoms: C_15  and  C_16
REMARK   13  A    between atoms: C_16  and  C_18
REMARK   14  A    between atoms: N_20  and  C_21
REMARK   15  A    between atoms: C_21  and  C_22
REMARK   16  A    between atoms: C_22  and  C_23
REMARK   17  A    between atoms: C_23  and  C_24
REMARK   18  A    between atoms: C_24  and  O_26
REMARK                            x       y       z     vdW  Elec       q    Type
REMARK                         _______ _______ _______ _____ _____    ______ ____
ROOT
ATOM      1  C   UNL     1       1.923   4.918  20.277  0.00  0.00    +0.000 C 
ENDROOT
BRANCH   1   2
ATOM      2  C   UNL     1       1.656   3.908  19.165  0.00  0.00    +0.000 C 
BRANCH   2   3
ATOM      3  C   UNL     1       2.215   4.415  17.838  0.00  0.00    +0.000 C 
BRANCH   3   4
ATOM      4  C   UNL     1       3.377   3.579  17.360  0.00  0.00    +0.000 C 
ATOM      5  O   UNL     1       3.487   2.366  17.504  0.00  0.00    +0.000 OA
BRANCH   4   6
ATOM      6  C   UNL     1       4.498   4.339  16.649  0.00  0.00    +0.000 C 
ATOM      7  O   UNL     1       5.218   3.775  15.842  0.00  0.00    +0.000 OA
ATOM      8  N   UNL     1       4.574   5.661  17.018  0.00  0.00    +0.000 N 
ATOM      9  H   UNL     1       3.916   5.972  17.730  0.00  0.00    +0.000 HD
BRANCH   8  10
ATOM     10  C   UNL     1       5.562   6.568  16.480  0.00  0.00    +0.000 C 
BRANCH  10  11
ATOM     11  C   UNL     1       6.991   6.143  16.825  0.00  0.00    +0.000 C 
BRANCH  11  12
ATOM     12  C   UNL     1       7.445   6.595  18.215  0.00  0.00    +0.000 C 
BRANCH  12  13
ATOM     13  C   UNL     1       7.356   5.481  19.231  0.00  0.00    +0.000 C 
ATOM     14  O   UNL     1       6.672   4.477  19.103  0.00  0.00    +0.000 OA
BRANCH  13  15
ATOM     15  O   UNL     1       8.133   5.689  20.316  0.00  0.00    +0.000 OA
ATOM     16  H   UNL     1       7.938   5.102  21.072  0.00  0.00    +0.000 HD
ENDBRANCH  13  15
ENDBRANCH  12  13
ENDBRANCH  11  12
ENDBRANCH  10  11
ENDBRANCH   8  10
ENDBRANCH   4   6
ENDBRANCH   3   4
ENDBRANCH   2   3
ENDBRANCH   1   2
BRANCH   1  17
ATOM     17  C   UNL     1       2.808   6.076  19.801  0.00  0.00    +0.000 C 
BRANCH  17  21
ATOM     18  C   UNL     1       0.525   9.737  19.980  0.00  0.00    +0.000 A 
ATOM     19  C   UNL     1       0.625   8.893  21.085  0.00  0.00    +0.000 A 
ATOM     20  C   UNL     1       1.395   7.739  21.027  0.00  0.00    +0.000 A 
ATOM     21  C   UNL     1       2.050   7.379  19.847  0.00  0.00    +0.000 A 
ATOM     22  C   UNL     1       1.957   8.226  18.736  0.00  0.00    +0.000 A 
ATOM     23  C   UNL     1       1.200   9.402  18.805  0.00  0.00    +0.000 A 
BRANCH  18  24
ATOM     24  O   UNL     1      -0.202  10.902  19.946  0.00  0.00    +0.000 OA
BRANCH  24  25
ATOM     25  C   UNL     1      -0.098  11.607  18.712  0.00  0.00    +0.000 C 
BRANCH  25  26
ATOM     26  C   UNL     1      -1.380  12.366  18.410  0.00  0.00    +0.000 C 
BRANCH  26  27
ATOM     27  C   UNL     1      -2.439  11.386  17.902  0.00  0.00    +0.000 C 
BRANCH  27  28
ATOM     28  C   UNL     1      -1.820  10.292  17.041  0.00  0.00    +0.000 C 
BRANCH  28  30
ATOM     29  C   UNL     1      -3.910  10.884  15.790  0.00  0.00    +0.000 C 
ATOM     30  C   UNL     1      -2.728   9.933  15.866  0.00  0.00    +0.000 C 
ENDBRANCH  28  30
ENDBRANCH  27  28
ENDBRANCH  26  27
ENDBRANCH  25  26
ENDBRANCH  24  25
ENDBRANCH  18  24
ENDBRANCH  17  21
ENDBRANCH   1  17
TORSDOF 17
ENDMDL
MODEL 3
REMARK VINA RESULT:      -6.5      3.364      7.175
REMARK  Name = 
REMARK  18 active torsions:
REMARK  status: ('A' for Active; 'I' for Inactive)
REMARK    1  A    between atoms: C_1  and  C_2
REMARK    2  A    between atoms: C_2  and  C_3
REMARK    3  A    between atoms: C_3  and  C_4
REMARK    4  A    between atoms: C_4  and  C_5
REMARK    5  A    between atoms: C_5  and  C_6
REMARK    6  A    between atoms: C_6  and  O_7
REMARK    7  A    between atoms: O_7  and  C_8
REMARK    8  A    between atoms: C_11  and  C_12
REMARK    9  A    between atoms: C_12  and  C_13
REMARK   10  A    between atoms: C_13  and  C_14
REMARK   11  A    between atoms: C_14  and  C_15
REMARK   12  A    between atoms: C_15  and  C_16
REMARK   13  A    between atoms: C_16  and  C_18
REMARK   14  A    between atoms: N_20  and  C_21
REMARK   15  A    between atoms: C_21  and  C_22
REMARK   16  A    between atoms: C_22  and  C_23
REMARK   17  A    between atoms: C_23  and  C_24
REMARK   18  A    between atoms: C_24  and  O_26
REMARK                            x       y       z     vdW  Elec       q    Type
REMARK                         _______ _______ _______ _____ _____    ______ ____
ROOT
ATOM      1  C   UNL     1       7.802   9.146  17.890  0.00  0.00    +0.000 C 
ENDROOT
BRANCH   1   2
ATOM      2  C   UNL     1       8.039   7.746  17.336  0.00  0.00    +0.000 C 
BRANCH   2   3
ATOM      3  C   UNL     1       7.197   6.722  18.093  0.00  0.00    +0.000 C 
BRANCH   3   4
ATOM      4  C   UNL     1       5.912   6.403  17.368  0.00  0.00    +0.000 C 
ATOM      5  O   UNL     1       5.665   6.688  16.200  0.00  0.00    +0.000 OA
BRANCH   4   6
ATOM      6  C   UNL     1       4.847   5.672  18.186  0.00  0.00    +0.000 C 
ATOM      7  O   UNL     1       5.161   4.806  18.985  0.00  0.00    +0.000 OA
ATOM      8  N   UNL     1       3.569   6.103  17.918  0.00  0.00    +0.000 N 
ATOM      9  H   UNL     1       3.473   6.817  17.199  0.00  0.00    +0.000 HD
BRANCH   8  10
ATOM     10  C   UNL     1       2.404   5.549  18.568  0.00  0.00    +0.000 C 
BRANCH  10  11
ATOM     11  C   UNL     1       1.737   4.454  17.733  0.00  0.00    +0.000 C 
BRANCH  11  12
ATOM     12  C   UNL     1       1.974   3.042  18.272  0.00  0.00    +0.000 C 
BRANCH  12  13
ATOM     13  C   UNL     1       1.740   2.956  19.762  0.00  0.00    +0.000 C 
ATOM     14  O   UNL     1       2.617   2.775  20.594  0.00  0.00    +0.000 OA
BRANCH  13  15
ATOM     15  O   UNL     1       0.444   3.118  20.106  0.00  0.00    +0.000 OA
ATOM     16  H   UNL     1      -0.184   2.585  19.583  0.00  0.00    +0.000 HD
ENDBRANCH  13  15
ENDBRANCH  12  13
ENDBRANCH  11  12
ENDBRANCH  10  11
ENDBRANCH   8  10
ENDBRANCH   4   6
ENDBRANCH   3   4
ENDBRANCH   2   3
ENDBRANCH   1   2
BRANCH   1  17
ATOM     17  C   UNL     1       8.953   9.610  18.792  0.00  0.00    +0.000 C 
BRANCH  17  21
ATOM     18  C   UNL     1      10.541  13.443  17.594  0.00  0.00    +0.000 A 
ATOM     19  C   UNL     1      11.374  12.432  18.070  0.00  0.00    +0.000 A 
ATOM     20  C   UNL     1      10.856  11.191  18.414  0.00  0.00    +0.000 A 
ATOM     21  C   UNL     1       9.485  10.944  18.330  0.00  0.00    +0.000 A 
ATOM     22  C   UNL     1       8.643  11.954  17.847  0.00  0.00    +0.000 A 
ATOM     23  C   UNL     1       9.173  13.197  17.478  0.00  0.00    +0.000 A 
BRANCH  18  24
ATOM     24  O   UNL     1      10.962  14.696  17.220  0.00  0.00    +0.000 OA
BRANCH  24  25
ATOM     25  C   UNL     1      10.346  15.751  17.954  0.00  0.00    +0.000 C 
BRANCH  25  26
ATOM     26  C   UNL     1      11.064  15.988  19.273  0.00  0.00    +0.000 C 
BRANCH  26  27
ATOM     27  C   UNL     1      10.116  15.664  20.428  0.00  0.00    +0.000 C 
BRANCH  27  28
ATOM     28  C   UNL     1      10.521  14.379  21.140  0.00  0.00    +0.000 C 
BRANCH  28  30
ATOM     29  C   UNL     1       8.045  14.104  20.864  0.00  0.00    +0.000 C 
ATOM     30  C   UNL     1       9.340  13.417  21.260  0.00  0.00    +0.000 C 
ENDBRANCH  28  30
ENDBRANCH  27  28
ENDBRANCH  26  27
ENDBRANCH  25  26
ENDBRANCH  24  25
ENDBRANCH  18  24
ENDBRANCH  17  21
ENDBRANCH   1  17
TORSDOF 17
ENDMDL
MODEL 4
REMARK VINA RESULT:      -6.4      4.266      8.609
REMARK  Name = 
REMARK  18 active torsions:
REMARK  status: ('A' for Active; 'I' for Inactive)
REMARK    1  A    between atoms: C_1  and  C_2
REMARK    2  A    between atoms: C_2  and  C_3
REMARK    3  A    between atoms: C_3  and  C_4
REMARK    4  A    between atoms: C_4  and  C_5
REMARK    5  A    between atoms: C_5  and  C_6
REMARK    6  A    between atoms: C_6  and  O_7
REMARK    7  A    between atoms: O_7  and  C_8
REMARK    8  A    between atoms: C_11  and  C_12
REMARK    9  A    between atoms: C_12  and  C_13
REMARK   10  A    between atoms: C_13  and  C_14
REMARK   11  A    between atoms: C_14  and  C_15
REMARK   12  A    between atoms: C_15  and  C_16
REMARK   13  A    between atoms: C_16  and  C_18
REMARK   14  A    between atoms: N_20  and  C_21
REMARK   15  A    between atoms: C_21  and  C_22
REMARK   16  A    between atoms: C_22  and  C_23
REMARK   17  A    between atoms: C_23  and  C_24
REMARK   18  A    between atoms: C_24  and  O_26
REMARK                            x       y       z     vdW  Elec       q    Type
REMARK                         _______ _______ _______ _____ _____    ______ ____
ROOT
ATOM      1  C   UNL     1       7.769   8.692  17.810  0.00  0.00    +0.000 C 
ENDROOT
BRANCH   1   2
ATOM      2  C   UNL     1       8.839   9.628  18.361  0.00  0.00    +0.000 C 
BRANCH   2   3
ATOM      3  C   UNL     1       8.565  11.065  17.929  0.00  0.00    +0.000 C 
BRANCH   3   4
ATOM      4  C   UNL     1       9.810  11.916  17.981  0.00  0.00    +0.000 C 
ATOM      5  O   UNL     1      10.938  11.546  17.670  0.00  0.00    +0.000 OA
BRANCH   4   6
ATOM      6  C   UNL     1       9.619  13.351  18.474  0.00  0.00    +0.000 C 
ATOM      7  O   UNL     1      10.062  13.704  19.554  0.00  0.00    +0.000 OA
ATOM      8  N   UNL     1       8.927  14.140  17.585  0.00  0.00    +0.000 N 
ATOM      9  H   UNL     1       8.598  13.686  16.735  0.00  0.00    +0.000 HD
BRANCH   8  10
ATOM     10  C   UNL     1       8.624  15.529  17.844  0.00  0.00    +0.000 C 
BRANCH  10  11
ATOM     11  C   UNL     1       7.200  15.725  18.371  0.00  0.00    +0.000 C 
BRANCH  11  12
ATOM     12  C   UNL     1       6.241  14.599  17.979  0.00  0.00    +0.000 C 
BRANCH  12  13
ATOM     13  C   UNL     1       4.801  15.053  17.977  0.00  0.00    +0.000 C 
ATOM     14  O   UNL     1       4.438  16.210  18.126  0.00  0.00    +0.000 OA
BRANCH  13  15
ATOM     15  O   UNL     1       3.926  14.045  17.772  0.00  0.00    +0.000 OA
ATOM     16  H   UNL     1       3.481  14.065  16.904  0.00  0.00    +0.000 HD
ENDBRANCH  13  15
ENDBRANCH  12  13
ENDBRANCH  11  12
ENDBRANCH  10  11
ENDBRANCH   8  10
ENDBRANCH   4   6
ENDBRANCH   3   4
ENDBRANCH   2   3
ENDBRANCH   1   2
BRANCH   1  17
ATOM     17  C   UNL     1       8.011   7.235  18.222  0.00  0.00    +0.000 C 
BRANCH  17  21
ATOM     18  C   UNL     1       4.369   4.994  17.623  0.00  0.00    +0.000 A 
ATOM     19  C   UNL     1       4.936   5.742  16.592  0.00  0.00    +0.000 A 
ATOM     20  C   UNL     1       6.128   6.426  16.786  0.00  0.00    +0.000 A 
ATOM     21  C   UNL     1       6.762   6.412  18.029  0.00  0.00    +0.000 A 
ATOM     22  C   UNL     1       6.201   5.657  19.067  0.00  0.00    +0.000 A 
ATOM     23  C   UNL     1       5.011   4.948  18.861  0.00  0.00    +0.000 A 
BRANCH  18  24
ATOM     24  O   UNL     1       3.201   4.277  17.522  0.00  0.00    +0.000 OA
BRANCH  24  25
ATOM     25  C   UNL     1       3.397   2.867  17.468  0.00  0.00    +0.000 C 
BRANCH  25  26
ATOM     26  C   UNL     1       2.496   2.154  18.464  0.00  0.00    +0.000 C 
BRANCH  26  27
ATOM     27  C   UNL     1       1.375   3.101  18.896  0.00  0.00    +0.000 C 
BRANCH  27  28
ATOM     28  C   UNL     1       1.199   3.104  20.410  0.00  0.00    +0.000 C 
BRANCH  28  30
ATOM     29  C   UNL     1       1.683   5.558  20.569  0.00  0.00    +0.000 C 
ATOM     30  C   UNL     1       2.068   4.175  21.065  0.00  0.00    +0.000 C 
ENDBRANCH  28  30
ENDBRANCH  27  28
ENDBRANCH  26  27
ENDBRANCH  25  26
ENDBRANCH  24  25
ENDBRANCH  18  24
ENDBRANCH  17  21
ENDBRANCH   1  17
TORSDOF 17
ENDMDL
MODEL 5
REMARK VINA RESULT:      -6.4      3.489      7.000
REMARK  Name = 
REMARK  18 active torsions:
REMARK  status: ('A' for Active; 'I' for Inactive)
REMARK    1  A    between atoms: C_1  and  C_2
REMARK    2  A    between atoms: C_2  and  C_3
REMARK    3  A    between atoms: C_3  and  C_4
REMARK    4  A    between atoms: C_4  and  C_5
REMARK    5  A    between atoms: C_5  and  C_6
REMARK    6  A    between atoms: C_6  and  O_7
REMARK    7  A    between atoms: O_7  and  C_8
REMARK    8  A    between atoms: C_11  and  C_12
REMARK    9  A    between atoms: C_12  and  C_13
REMARK   10  A    between atoms: C_13  and  C_14
REMARK   11  A    between atoms: C_14  and  C_15
REMARK   12  A    between atoms: C_15  and  C_16
REMARK   13  A    between atoms: C_16  and  C_18
REMARK   14  A    between atoms: N_20  and  C_21
REMARK   15  A    between atoms: C_21  and  C_22
REMARK   16  A    between atoms: C_22  and  C_23
REMARK   17  A    between atoms: C_23  and  C_24
REMARK   18  A    between atoms: C_24  and  O_26
REMARK                            x       y       z     vdW  Elec       q    Type
REMARK                         _______ _______ _______ _____ _____    ______ ____
ROOT
ATOM      1  C   UNL     1       1.599   4.960  20.625  0.00  0.00    +0.000 C 
ENDROOT
BRANCH   1   2
ATOM      2  C   UNL     1       2.150   3.723  21.327  0.00  0.00    +0.000 C 
BRANCH   2   3
ATOM      3  C   UNL     1       2.128   2.522  20.387  0.00  0.00    +0.000 C 
BRANCH   3   4
ATOM      4  C   UNL     1       1.292   2.783  19.158  0.00  0.00    +0.000 C 
ATOM      5  O   UNL     1       0.099   2.524  19.041  0.00  0.00    +0.000 OA
BRANCH   4   6
ATOM      6  C   UNL     1       2.025   3.416  17.973  0.00  0.00    +0.000 C 
ATOM      7  O   UNL     1       1.421   4.085  17.153  0.00  0.00    +0.000 OA
ATOM      8  N   UNL     1       3.373   3.145  17.965  0.00  0.00    +0.000 N 
ATOM      9  H   UNL     1       3.720   2.543  18.709  0.00  0.00    +0.000 HD
BRANCH   8  10
ATOM     10  C   UNL     1       4.262   3.634  16.937  0.00  0.00    +0.000 C 
BRANCH  10  11
ATOM     11  C   UNL     1       4.727   5.068  17.203  0.00  0.00    +0.000 C 
BRANCH  11  12
ATOM     12  C   UNL     1       5.999   5.154  18.048  0.00  0.00    +0.000 C 
BRANCH  12  13
ATOM     13  C   UNL     1       7.248   5.029  17.208  0.00  0.00    +0.000 C 
ATOM     14  O   UNL     1       8.138   4.215  17.403  0.00  0.00    +0.000 OA
BRANCH  13  15
ATOM     15  O   UNL     1       7.289   5.908  16.183  0.00  0.00    +0.000 OA
ATOM     16  H   UNL     1       7.180   6.842  16.446  0.00  0.00    +0.000 HD
ENDBRANCH  13  15
ENDBRANCH  12  13
ENDBRANCH  11  12
ENDBRANCH  10  11
ENDBRANCH   8  10
ENDBRANCH   4   6
ENDBRANCH   3   4
ENDBRANCH   2   3
ENDBRANCH   1   2
BRANCH   1  17
ATOM     17  C   UNL     1       2.713   5.934  20.219  0.00  0.00    +0.000 C 
BRANCH  17  21
ATOM     18  C   UNL     1       1.164   9.696  18.770  0.00  0.00    +0.000 A 
ATOM     19  C   UNL     1       1.789   8.793  17.912  0.00  0.00    +0.000 A 
ATOM     20  C   UNL     1       2.247   7.569  18.382  0.00  0.00    +0.000 A 
ATOM     21  C   UNL     1       2.128   7.236  19.733  0.00  0.00    +0.000 A 
ATOM     22  C   UNL     1       1.496   8.137  20.599  0.00  0.00    +0.000 A 
ATOM     23  C   UNL     1       1.013   9.360  20.116  0.00  0.00    +0.000 A 
BRANCH  18  24
ATOM     24  O   UNL     1       0.670  10.922  18.395  0.00  0.00    +0.000 OA
BRANCH  24  25
ATOM     25  C   UNL     1       0.810  11.926  19.396  0.00  0.00    +0.000 C 
BRANCH  25  26
ATOM     26  C   UNL     1       1.167  13.267  18.775  0.00  0.00    +0.000 C 
BRANCH  26  27
ATOM     27  C   UNL     1       2.583  13.196  18.201  0.00  0.00    +0.000 C 
BRANCH  27  28
ATOM     28  C   UNL     1       3.495  14.238  18.834  0.00  0.00    +0.000 C 
BRANCH  28  30
ATOM     29  C   UNL     1       3.123  16.279  17.428  0.00  0.00    +0.000 C 
ATOM     30  C   UNL     1       2.868  15.630  18.778  0.00  0.00    +0.000 C 
ENDBRANCH  28  30
ENDBRANCH  27  28
ENDBRANCH  26  27
ENDBRANCH  25  26
ENDBRANCH  24  25
ENDBRANCH  18  24
ENDBRANCH  17  21
ENDBRANCH   1  17
TORSDOF 17
ENDMDL
MODEL 6
REMARK VINA RESULT:      -6.4      3.663      5.729
REMARK  Name = 
REMARK  18 active torsions:
REMARK  status: ('A' for Active; 'I' for Inactive)
REMARK    1  A    between atoms: C_1  and  C_2
REMARK    2  A    between atoms: C_2  and  C_3
REMARK    3  A    between atoms: C_3  and  C_4
REMARK    4  A    between atoms: C_4  and  C_5
REMARK    5  A    between atoms: C_5  and  C_6
REMARK    6  A    between atoms: C_6  and  O_7
REMARK    7  A    between atoms: O_7  and  C_8
REMARK    8  A    between atoms: C_11  and  C_12
REMARK    9  A    between atoms: C_12  and  C_13
REMARK   10  A    between atoms: C_13  and  C_14
REMARK   11  A    between atoms: C_14  and  C_15
REMARK   12  A    between atoms: C_15  and  C_16
REMARK   13  A    between atoms: C_16  and  C_18
REMARK   14  A    between atoms: N_20  and  C_21
REMARK   15  A    between atoms: C_21  and  C_22
REMARK   16  A    between atoms: C_22  and  C_23
REMARK   17  A    between atoms: C_23  and  C_24
REMARK   18  A    between atoms: C_24  and  O_26
REMARK                            x       y       z     vdW  Elec       q    Type
REMARK                         _______ _______ _______ _____ _____    ______ ____
ROOT
ATOM      1  C   UNL     1       2.321   5.350  20.354  0.00  0.00    +0.000 C 
ENDROOT
BRANCH   1   2
ATOM      2  C   UNL     1       1.397   4.174  20.652  0.00  0.00    +0.000 C 
BRANCH   2   3
ATOM      3  C   UNL     1       2.123   3.123  21.487  0.00  0.00    +0.000 C 
BRANCH   3   4
ATOM      4  C   UNL     1       3.237   2.461  20.714  0.00  0.00    +0.000 C 
ATOM      5  O   UNL     1       4.327   2.136  21.175  0.00  0.00    +0.000 OA
BRANCH   4   6
ATOM      6  C   UNL     1       2.956   2.193  19.235  0.00  0.00    +0.000 C 
ATOM      7  O   UNL     1       1.904   1.687  18.882  0.00  0.00    +0.000 OA
ATOM      8  N   UNL     1       3.986   2.581  18.410  0.00  0.00    +0.000 N 
ATOM      9  H   UNL     1       4.813   2.961  18.866  0.00  0.00    +0.000 HD
BRANCH   8  10
ATOM     10  C   UNL     1       3.943   2.417  16.975  0.00  0.00    +0.000 C 
BRANCH  10  11
ATOM     11  C   UNL     1       4.483   3.642  16.233  0.00  0.00    +0.000 C 
BRANCH  11  12
ATOM     12  C   UNL     1       5.995   3.602  16.004  0.00  0.00    +0.000 C 
BRANCH  12  13
ATOM     13  C   UNL     1       6.384   4.203  14.674  0.00  0.00    +0.000 C 
ATOM     14  O   UNL     1       6.764   5.353  14.516  0.00  0.00    +0.000 OA
BRANCH  13  15
ATOM     15  O   UNL     1       6.289   3.329  13.648  0.00  0.00    +0.000 OA
ATOM     16  H   UNL     1       6.688   3.640  12.813  0.00  0.00    +0.000 HD
ENDBRANCH  13  15
ENDBRANCH  12  13
ENDBRANCH  11  12
ENDBRANCH  10  11
ENDBRANCH   8  10
ENDBRANCH   4   6
ENDBRANCH   3   4
ENDBRANCH   2   3
ENDBRANCH   1   2
BRANCH   1  17
ATOM     17  C   UNL     1       2.372   5.674  18.856  0.00  0.00    +0.000 C 
BRANCH  17  21
ATOM     18  C   UNL     1       6.300   6.937  17.581  0.00  0.00    +0.000 A 
ATOM     19  C   UNL     1       5.149   7.425  16.965  0.00  0.00    +0.000 A 
ATOM     20  C   UNL     1       3.891   7.042  17.410  0.00  0.00    +0.000 A 
ATOM     21  C   UNL     1       3.754   6.128  18.457  0.00  0.00    +0.000 A 
ATOM     22  C   UNL     1       4.907   5.638  19.083  0.00  0.00    +0.000 A 
ATOM     23  C   UNL     1       6.175   6.046  18.648  0.00  0.00    +0.000 A 
BRANCH  18  24
ATOM     24  O   UNL     1       7.584   7.266  17.219  0.00  0.00    +0.000 OA
BRANCH  24  25
ATOM     25  C   UNL     1       8.341   7.860  18.269  0.00  0.00    +0.000 C 
BRANCH  25  26
ATOM     26  C   UNL     1       8.377   9.374  18.125  0.00  0.00    +0.000 C 
BRANCH  26  27
ATOM     27  C   UNL     1       8.939   9.989  19.408  0.00  0.00    +0.000 C 
BRANCH  27  28
ATOM     28  C   UNL     1      10.151  10.866  19.123  0.00  0.00    +0.000 C 
BRANCH  28  30
ATOM     29  C   UNL     1      10.358  12.890  17.659  0.00  0.00    +0.000 C 
ATOM     30  C   UNL     1      10.130  11.388  17.688  0.00  0.00    +0.000 C 
ENDBRANCH  28  30
ENDBRANCH  27  28
ENDBRANCH  26  27
ENDBRANCH  25  26
ENDBRANCH  24  25
ENDBRANCH  18  24
ENDBRANCH  17  21
ENDBRANCH   1  17
TORSDOF 17
ENDMDL
MODEL 7
REMARK VINA RESULT:      -6.4      3.585      8.148
REMARK  Name = 
REMARK  18 active torsions:
REMARK  status: ('A' for Active; 'I' for Inactive)
REMARK    1  A    between atoms: C_1  and  C_2
REMARK    2  A    between atoms: C_2  and  C_3
REMARK    3  A    between atoms: C_3  and  C_4
REMARK    4  A    between atoms: C_4  and  C_5
REMARK    5  A    between atoms: C_5  and  C_6
REMARK    6  A    between atoms: C_6  and  O_7
REMARK    7  A    between atoms: O_7  and  C_8
REMARK    8  A    between atoms: C_11  and  C_12
REMARK    9  A    between atoms: C_12  and  C_13
REMARK   10  A    between atoms: C_13  and  C_14
REMARK   11  A    between atoms: C_14  and  C_15
REMARK   12  A    between atoms: C_15  and  C_16
REMARK   13  A    between atoms: C_16  and  C_18
REMARK   14  A    between atoms: N_20  and  C_21
REMARK   15  A    between atoms: C_21  and  C_22
REMARK   16  A    between atoms: C_22  and  C_23
REMARK   17  A    between atoms: C_23  and  C_24
REMARK   18  A    between atoms: C_24  and  O_26
REMARK                            x       y       z     vdW  Elec       q    Type
REMARK                         _______ _______ _______ _____ _____    ______ ____
ROOT
ATOM      1  C   UNL     1       3.380   6.116  19.106  0.00  0.00    +0.000 C 
ENDROOT
BRANCH   1   2
ATOM      2  C   UNL     1       4.740   5.493  18.810  0.00  0.00    +0.000 C 
BRANCH   2   3
ATOM      3  C   UNL     1       5.119   5.709  17.347  0.00  0.00    +0.000 C 
BRANCH   3   4
ATOM      4  C   UNL     1       4.986   4.443  16.538  0.00  0.00    +0.000 C 
ATOM      5  O   UNL     1       5.650   4.160  15.545  0.00  0.00    +0.000 OA
BRANCH   4   6
ATOM      6  C   UNL     1       3.919   3.455  17.013  0.00  0.00    +0.000 C 
ATOM      7  O   UNL     1       2.749   3.603  16.702  0.00  0.00    +0.000 OA
ATOM      8  N   UNL     1       4.430   2.439  17.787  0.00  0.00    +0.000 N 
ATOM      9  H   UNL     1       5.429   2.475  17.980  0.00  0.00    +0.000 HD
BRANCH   8  10
ATOM     10  C   UNL     1       3.606   1.396  18.351  0.00  0.00    +0.000 C 
BRANCH  10  11
ATOM     11  C   UNL     1       2.422   1.955  19.145  0.00  0.00    +0.000 C 
BRANCH  11  12
ATOM     12  C   UNL     1       2.826   2.610  20.467  0.00  0.00    +0.000 C 
BRANCH  12  13
ATOM     13  C   UNL     1       1.642   3.204  21.192  0.00  0.00    +0.000 C 
ATOM     14  O   UNL     1       0.969   4.135  20.776  0.00  0.00    +0.000 OA
BRANCH  13  15
ATOM     15  O   UNL     1       1.373   2.590  22.364  0.00  0.00    +0.000 OA
ATOM     16  H   UNL     1       2.154   2.435  22.929  0.00  0.00    +0.000 HD
ENDBRANCH  13  15
ENDBRANCH  12  13
ENDBRANCH  11  12
ENDBRANCH  10  11
ENDBRANCH   8  10
ENDBRANCH   4   6
ENDBRANCH   3   4
ENDBRANCH   2   3
ENDBRANCH   1   2
BRANCH   1  17
ATOM     17  C   UNL     1       3.018   7.212  18.095  0.00  0.00    +0.000 C 
BRANCH  17  21
ATOM     18  C   UNL     1       0.180   9.929  19.887  0.00  0.00    +0.000 A 
ATOM     19  C   UNL     1       0.809   8.940  20.642  0.00  0.00    +0.000 A 
ATOM     20  C   UNL     1       1.749   8.098  20.062  0.00  0.00    +0.000 A 
ATOM     21  C   UNL     1       2.053   8.198  18.704  0.00  0.00    +0.000 A 
ATOM     22  C   UNL     1       1.428   9.194  17.942  0.00  0.00    +0.000 A 
ATOM     23  C   UNL     1       0.498  10.058  18.535  0.00  0.00    +0.000 A 
BRANCH  18  24
ATOM     24  O   UNL     1      -0.753  10.813  20.374  0.00  0.00    +0.000 OA
BRANCH  24  25
ATOM     25  C   UNL     1      -1.075  11.863  19.466  0.00  0.00    +0.000 C 
BRANCH  25  26
ATOM     26  C   UNL     1      -2.547  11.820  19.085  0.00  0.00    +0.000 C 
BRANCH  26  27
ATOM     27  C   UNL     1      -2.671  11.589  17.578  0.00  0.00    +0.000 C 
BRANCH  27  28
ATOM     28  C   UNL     1      -3.238  10.210  17.269  0.00  0.00    +0.000 C 
BRANCH  28  30
ATOM     29  C   UNL     1      -3.559  10.192  14.784  0.00  0.00    +0.000 C 
ATOM     30  C   UNL     1      -2.712   9.681  15.936  0.00  0.00    +0.000 C 
ENDBRANCH  28  30
ENDBRANCH  27  28
ENDBRANCH  26  27
ENDBRANCH  25  26
ENDBRANCH  24  25
ENDBRANCH  18  24
ENDBRANCH  17  21
ENDBRANCH   1  17
TORSDOF 17
ENDMDL
MODEL 8
REMARK VINA RESULT:      -6.3      3.390      8.061
REMARK  Name = 
REMARK  18 active torsions:
REMARK  status: ('A' for Active; 'I' for Inactive)
REMARK    1  A    between atoms: C_1  and  C_2
REMARK    2  A    between atoms: C_2  and  C_3
REMARK    3  A    between atoms: C_3  and  C_4
REMARK    4  A    between atoms: C_4  and  C_5
REMARK    5  A    between atoms: C_5  and  C_6
REMARK    6  A    between atoms: C_6  and  O_7
REMARK    7  A    between atoms: O_7  and  C_8
REMARK    8  A    between atoms: C_11  and  C_12
REMARK    9  A    between atoms: C_12  and  C_13
REMARK   10  A    between atoms: C_13  and  C_14
REMARK   11  A    between atoms: C_14  and  C_15
REMARK   12  A    between atoms: C_15  and  C_16
REMARK   13  A    between atoms: C_16  and  C_18
REMARK   14  A    between atoms: N_20  and  C_21
REMARK   15  A    between atoms: C_21  and  C_22
REMARK   16  A    between atoms: C_22  and  C_23
REMARK   17  A    between atoms: C_23  and  C_24
REMARK   18  A    between atoms: C_24  and  O_26
REMARK                            x       y       z     vdW  Elec       q    Type
REMARK                         _______ _______ _______ _____ _____    ______ ____
ROOT
ATOM      1  C   UNL     1       4.233   6.986  17.910  0.00  0.00    +0.000 C 
ENDROOT
BRANCH   1   2
ATOM      2  C   UNL     1       4.765   6.541  16.552  0.00  0.00    +0.000 C 
BRANCH   2   3
ATOM      3  C   UNL     1       6.048   5.732  16.721  0.00  0.00    +0.000 C 
BRANCH   3   4
ATOM      4  C   UNL     1       5.792   4.246  16.648  0.00  0.00    +0.000 C 
ATOM      5  O   UNL     1       6.104   3.516  15.713  0.00  0.00    +0.000 OA
BRANCH   4   6
ATOM      6  C   UNL     1       5.073   3.633  17.851  0.00  0.00    +0.000 C 
ATOM      7  O   UNL     1       5.499   3.797  18.982  0.00  0.00    +0.000 OA
ATOM      8  N   UNL     1       3.950   2.920  17.503  0.00  0.00    +0.000 N 
ATOM      9  H   UNL     1       3.745   2.853  16.508  0.00  0.00    +0.000 HD
BRANCH   8  10
ATOM     10  C   UNL     1       3.118   2.248  18.475  0.00  0.00    +0.000 C 
BRANCH  10  11
ATOM     11  C   UNL     1       1.780   2.959  18.687  0.00  0.00    +0.000 C 
BRANCH  11  12
ATOM     12  C   UNL     1       1.238   2.834  20.112  0.00  0.00    +0.000 C 
BRANCH  12  13
ATOM     13  C   UNL     1       2.166   3.453  21.129  0.00  0.00    +0.000 C 
ATOM     14  O   UNL     1       2.618   2.871  22.103  0.00  0.00    +0.000 OA
BRANCH  13  15
ATOM     15  O   UNL     1       2.477   4.738  20.852  0.00  0.00    +0.000 OA
ATOM     16  H   UNL     1       3.384   4.872  20.515  0.00  0.00    +0.000 HD
ENDBRANCH  13  15
ENDBRANCH  12  13
ENDBRANCH  11  12
ENDBRANCH  10  11
ENDBRANCH   8  10
ENDBRANCH   4   6
ENDBRANCH   3   4
ENDBRANCH   2   3
ENDBRANCH   1   2
BRANCH   1  17
ATOM     17  C   UNL     1       2.707   6.861  17.998  0.00  0.00    +0.000 C 
BRANCH  17  21
ATOM     18  C   UNL     1       0.871  10.353  19.754  0.00  0.00    +0.000 A 
ATOM     19  C   UNL     1       1.016   9.171  20.479  0.00  0.00    +0.000 A 
ATOM     20  C   UNL     1       1.644   8.068  19.916  0.00  0.00    +0.000 A 
ATOM     21  C   UNL     1       2.105   8.107  18.599  0.00  0.00    +0.000 A 
ATOM     22  C   UNL     1       1.967   9.294  17.868  0.00  0.00    +0.000 A 
ATOM     23  C   UNL     1       1.355  10.413  18.447  0.00  0.00    +0.000 A 
BRANCH  18  24
ATOM     24  O   UNL     1       0.275  11.496  20.229  0.00  0.00    +0.000 OA
BRANCH  24  25
ATOM     25  C   UNL     1      -1.118  11.350  20.490  0.00  0.00    +0.000 C 
BRANCH  25  26
ATOM     26  C   UNL     1      -1.945  12.161  19.505  0.00  0.00    +0.000 C 
BRANCH  26  27
ATOM     27  C   UNL     1      -2.208  11.319  18.255  0.00  0.00    +0.000 C 
BRANCH  27  28
ATOM     28  C   UNL     1      -3.633  11.503  17.748  0.00  0.00    +0.000 C 
BRANCH  28  30
ATOM     29  C   UNL     1      -2.694   9.876  16.089  0.00  0.00    +0.000 C 
ATOM     30  C   UNL     1      -3.821  10.852  16.379  0.00  0.00    +0.000 C 
ENDBRANCH  28  30
ENDBRANCH  27  28
ENDBRANCH  26  27
ENDBRANCH  25  26
ENDBRANCH  24  25
ENDBRANCH  18  24
ENDBRANCH  17  21
ENDBRANCH   1  17
TORSDOF 17
ENDMDL
MODEL 9
REMARK VINA RESULT:      -6.3      2.940      6.914
REMARK  Name = 
REMARK  18 active torsions:
REMARK  status: ('A' for Active; 'I' for Inactive)
REMARK    1  A    between atoms: C_1  and  C_2
REMARK    2  A    between atoms: C_2  and  C_3
REMARK    3  A    between atoms: C_3  and  C_4
REMARK    4  A    between atoms: C_4  and  C_5
REMARK    5  A    between atoms: C_5  and  C_6
REMARK    6  A    between atoms: C_6  and  O_7
REMARK    7  A    between atoms: O_7  and  C_8
REMARK    8  A    between atoms: C_11  and  C_12
REMARK    9  A    between atoms: C_12  and  C_13
REMARK   10  A    between atoms: C_13  and  C_14
REMARK   11  A    between atoms: C_14  and  C_15
REMARK   12  A    between atoms: C_15  and  C_16
REMARK   13  A    between atoms: C_16  and  C_18
REMARK   14  A    between atoms: N_20  and  C_21
REMARK   15  A    between atoms: C_21  and  C_22
REMARK   16  A    between atoms: C_22  and  C_23
REMARK   17  A    between atoms: C_23  and  C_24
REMARK   18  A    between atoms: C_24  and  O_26
REMARK                            x       y       z     vdW  Elec       q    Type
REMARK                         _______ _______ _______ _____ _____    ______ ____
ROOT
ATOM      1  C   UNL     1       8.395   8.298  18.411  0.00  0.00    +0.000 C 
ENDROOT
BRANCH   1   2
ATOM      2  C   UNL     1       7.507   7.237  17.769  0.00  0.00    +0.000 C 
BRANCH   2   3
ATOM      3  C   UNL     1       7.449   5.988  18.644  0.00  0.00    +0.000 C 
BRANCH   3   4
ATOM      4  C   UNL     1       7.427   4.724  17.820  0.00  0.00    +0.000 C 
ATOM      5  O   UNL     1       8.399   4.012  17.584  0.00  0.00    +0.000 OA
BRANCH   4   6
ATOM      6  C   UNL     1       6.069   4.328  17.239  0.00  0.00    +0.000 C 
ATOM      7  O   UNL     1       5.884   4.324  16.034  0.00  0.00    +0.000 OA
ATOM      8  N   UNL     1       5.146   3.994  18.202  0.00  0.00    +0.000 N 
ATOM      9  H   UNL     1       5.449   4.078  19.170  0.00  0.00    +0.000 HD
BRANCH   8  10
ATOM     10  C   UNL     1       3.794   3.596  17.884  0.00  0.00    +0.000 C 
BRANCH  10  11
ATOM     11  C   UNL     1       2.826   4.781  17.870  0.00  0.00    +0.000 C 
BRANCH  11  12
ATOM     12  C   UNL     1       3.402   6.050  18.502  0.00  0.00    +0.000 C 
BRANCH  12  13
ATOM     13  C   UNL     1       2.557   6.546  19.651  0.00  0.00    +0.000 C 
ATOM     14  O   UNL     1       1.996   7.631  19.683  0.00  0.00    +0.000 OA
BRANCH  13  15
ATOM     15  O   UNL     1       2.458   5.655  20.662  0.00  0.00    +0.000 OA
ATOM     16  H   UNL     1       1.758   4.985  20.544  0.00  0.00    +0.000 HD
ENDBRANCH  13  15
ENDBRANCH  12  13
ENDBRANCH  11  12
ENDBRANCH  10  11
ENDBRANCH   8  10
ENDBRANCH   4   6
ENDBRANCH   3   4
ENDBRANCH   2   3
ENDBRANCH   1   2
BRANCH   1  17
ATOM     17  C   UNL     1       8.308   9.641  17.676  0.00  0.00    +0.000 C 
BRANCH  17  21
ATOM     18  C   UNL     1      10.344  12.692  19.955  0.00  0.00    +0.000 A 
ATOM     19  C   UNL     1      10.094  11.432  20.496  0.00  0.00    +0.000 A 
ATOM     20  C   UNL     1       9.474  10.447  19.739  0.00  0.00    +0.000 A 
ATOM     21  C   UNL     1       9.051  10.712  18.436  0.00  0.00    +0.000 A 
ATOM     22  C   UNL     1       9.305  11.974  17.885  0.00  0.00    +0.000 A 
ATOM     23  C   UNL     1       9.953  12.958  18.643  0.00  0.00    +0.000 A 
BRANCH  18  24
ATOM     24  O   UNL     1      10.960  13.724  20.622  0.00  0.00    +0.000 OA
BRANCH  24  25
ATOM     25  C   UNL     1      10.126  14.865  20.806  0.00  0.00    +0.000 C 
BRANCH  25  26
ATOM     26  C   UNL     1      10.104  15.293  22.265  0.00  0.00    +0.000 C 
BRANCH  26  27
ATOM     27  C   UNL     1       8.992  14.537  22.995  0.00  0.00    +0.000 C 
BRANCH  27  28
ATOM     28  C   UNL     1       7.935  14.025  22.025  0.00  0.00    +0.000 C 
BRANCH  28  30
ATOM     29  C   UNL     1       7.518  11.827  23.154  0.00  0.00    +0.000 C 
ATOM     30  C   UNL     1       6.904  13.153  22.740  0.00  0.00    +0.000 C 
ENDBRANCH  28  30
ENDBRANCH  27  28
ENDBRANCH  26  27
ENDBRANCH  25  26
ENDBRANCH  24  25
ENDBRANCH  18  24
ENDBRANCH  17  21
ENDBRANCH   1  17
TORSDOF 17
ENDMDL
