MODEL 1
REMARK VINA RESULT:      -7.5      0.000      0.000
REMARK  Name = 
REMARK  4 active torsions:
REMARK  status: ('A' for Active; 'I' for Inactive)
REMARK    1  A    between atoms: N_1  and  C_2
REMARK    2  A    between atoms: C_6  and  C_7
REMARK    3  A    between atoms: C_11  and  C_12
REMARK    4  A    between atoms: C_12  and  O_14
REMARK                            x       y       z     vdW  Elec       q    Type
REMARK                         _______ _______ _______ _____ _____    ______ ____
ROOT
ATOM      1  C   UNL     1       4.611   4.198  18.091  0.00  0.00    +0.000 A 
ATOM      2  C   UNL     1       4.921   3.868  16.758  0.00  0.00    +0.000 A 
ATOM      3  C   UNL     1       6.154   4.198  16.187  0.00  0.00    +0.000 A 
ATOM      4  C   UNL     1       7.109   4.875  16.937  0.00  0.00    +0.000 A 
ATOM      5  C   UNL     1       6.834   5.230  18.261  0.00  0.00    +0.000 A 
ATOM      6  C   UNL     1       5.590   4.899  18.824  0.00  0.00    +0.000 A 
ENDROOT
BRANCH   1  11
ATOM      7  C   UNL     1       1.990   3.197  20.694  0.00  0.00    +0.000 A 
ATOM      8  C   UNL     1       0.908   2.893  19.872  0.00  0.00    +0.000 A 
ATOM      9  C   UNL     1       0.989   3.093  18.496  0.00  0.00    +0.000 A 
ATOM     10  C   UNL     1       2.183   3.541  17.924  0.00  0.00    +0.000 A 
ATOM     11  C   UNL     1       3.320   3.801  18.710  0.00  0.00    +0.000 A 
ATOM     12  C   UNL     1       3.189   3.617  20.102  0.00  0.00    +0.000 A 
BRANCH   7  13
ATOM     13  N   UNL     1       1.963   2.852  22.051  0.00  0.00    +0.000 N 
ATOM     14  H   UNL     1       1.797   3.638  22.671  0.00  0.00    +0.000 HD
ATOM     15  H   UNL     1       2.749   2.285  22.352  0.00  0.00    +0.000 HD
ENDBRANCH   7  13
ENDBRANCH   1  11
BRANCH   5  16
ATOM     16  C   UNL     1       7.866   5.995  19.008  0.00  0.00    +0.000 C 
ATOM     17  O   UNL     1       8.256   7.094  18.648  0.00  0.00    +0.000 OA
BRANCH  16  18
ATOM     18  O   UNL     1       8.355   5.364  20.095  0.00  0.00    +0.000 OA
ATOM     19  H   UNL     1       7.703   4.869  20.622  0.00  0.00    +0.000 HD
ENDBRANCH  16  18
ENDBRANCH   5  16
TORSDOF 4
ENDMDL
MODEL 2
REMARK VINA RESULT:      -7.4      3.421      5.758
REMARK  Name = 
REMARK  4 active torsions:
REMARK  status: ('A' for Active; 'I' for Inactive)
REMARK    1  A    between atoms: N_1  and  C_2
REMARK    2  A    between atoms: C_6  and  C_7
REMARK    3  A    between atoms: C_11  and  C_12
REMARK    4  A    between atoms: C_12  and  O_14
REMARK                            x       y       z     vdW  Elec       q    Type
REMARK                         _______ _______ _______ _____ _____    ______ ____
ROOT
ATOM      1  C   UNL     1       3.852   4.808  18.578  0.00  0.00    +0.000 A 
ATOM      2  C   UNL     1       2.848   4.859  17.592  0.00  0.00    +0.000 A 
ATOM      3  C   UNL     1       1.582   4.302  17.803  0.00  0.00    +0.000 A 
ATOM      4  C   UNL     1       1.292   3.670  19.007  0.00  0.00    +0.000 A 
ATOM      5  C   UNL     1       2.268   3.590  20.006  0.00  0.00    +0.000 A 
ATOM      6  C   UNL     1       3.537   4.148  19.783  0.00  0.00    +0.000 A 
ENDROOT
BRANCH   1  11
ATOM      7  C   UNL     1       7.536   5.748  19.017  0.00  0.00    +0.000 A 
ATOM      8  C   UNL     1       7.657   6.772  18.080  0.00  0.00    +0.000 A 
ATOM      9  C   UNL     1       6.589   7.099  17.249  0.00  0.00    +0.000 A 
ATOM     10  C   UNL     1       5.364   6.443  17.395  0.00  0.00    +0.000 A 
ATOM     11  C   UNL     1       5.178   5.446  18.370  0.00  0.00    +0.000 A 
ATOM     12  C   UNL     1       6.292   5.121  19.170  0.00  0.00    +0.000 A 
BRANCH   7  13
ATOM     13  N   UNL     1       8.554   5.525  19.952  0.00  0.00    +0.000 N 
ATOM     14  H   UNL     1       8.976   6.375  20.310  0.00  0.00    +0.000 HD
ATOM     15  H   UNL     1       9.249   4.847  19.656  0.00  0.00    +0.000 HD
ENDBRANCH   7  13
ENDBRANCH   1  11
BRANCH   5  16
ATOM     16  C   UNL     1       1.927   2.865  21.258  0.00  0.00    +0.000 C 
ATOM     17  O   UNL     1       2.779   2.452  22.028  0.00  0.00    +0.000 OA
BRANCH  16  18
ATOM     18  O   UNL     1       0.607   2.677  21.457  0.00  0.00    +0.000 OA
ATOM     19  H   UNL     1       0.216   3.189  22.188  0.00  0.00    +0.000 HD
ENDBRANCH  16  18
ENDBRANCH   5  16
TORSDOF 4
ENDMDL
MODEL 3
REMARK VINA RESULT:      -7.4      1.911      2.538
REMARK  Name = 
REMARK  4 active torsions:
REMARK  status: ('A' for Active; 'I' for Inactive)
REMARK    1  A    between atoms: N_1  and  C_2
REMARK    2  A    between atoms: C_6  and  C_7
REMARK    3  A    between atoms: C_11  and  C_12
REMARK    4  A    between atoms: C_12  and  O_14
REMARK                            x       y       z     vdW  Elec       q    Type
REMARK                         _______ _______ _______ _____ _____    ______ ____
ROOT
ATOM      1  C   UNL     1       4.793   4.438  18.335  0.00  0.00    +0.000 A 
ATOM      2  C   UNL     1       5.715   5.065  19.196  0.00  0.00    +0.000 A 
ATOM      3  C   UNL     1       6.950   5.533  18.735  0.00  0.00    +0.000 A 
ATOM      4  C   UNL     1       7.298   5.378  17.398  0.00  0.00    +0.000 A 
ATOM      5  C   UNL     1       6.413   4.751  16.515  0.00  0.00    +0.000 A 
ATOM      6  C   UNL     1       5.177   4.281  16.987  0.00  0.00    +0.000 A 
ENDROOT
BRANCH   1  11
ATOM      7  C   UNL     1       1.989   3.213  20.633  0.00  0.00    +0.000 A 
ATOM      8  C   UNL     1       0.975   2.983  19.707  0.00  0.00    +0.000 A 
ATOM      9  C   UNL     1       1.159   3.303  18.364  0.00  0.00    +0.000 A 
ATOM     10  C   UNL     1       2.389   3.799  17.926  0.00  0.00    +0.000 A 
ATOM     11  C   UNL     1       3.462   3.989  18.816  0.00  0.00    +0.000 A 
ATOM     12  C   UNL     1       3.227   3.683  20.173  0.00  0.00    +0.000 A 
BRANCH   7  13
ATOM     13  N   UNL     1       1.861   2.750  21.948  0.00  0.00    +0.000 N 
ATOM     14  H   UNL     1       2.174   1.794  22.079  0.00  0.00    +0.000 HD
ATOM     15  H   UNL     1       0.948   2.914  22.360  0.00  0.00    +0.000 HD
ENDBRANCH   7  13
ENDBRANCH   1  11
BRANCH   5  16
ATOM     16  C   UNL     1       6.847   4.567  15.105  0.00  0.00    +0.000 C 
ATOM     17  O   UNL     1       7.613   5.338  14.549  0.00  0.00    +0.000 OA
BRANCH  16  18
ATOM     18  O   UNL     1       6.304   3.500  14.484  0.00  0.00    +0.000 OA
ATOM     19  H   UNL     1       6.507   3.418  13.535  0.00  0.00    +0.000 HD
ENDBRANCH  16  18
ENDBRANCH   5  16
TORSDOF 4
ENDMDL
MODEL 4
REMARK VINA RESULT:      -7.4      2.237      2.696
REMARK  Name = 
REMARK  4 active torsions:
REMARK  status: ('A' for Active; 'I' for Inactive)
REMARK    1  A    between atoms: N_1  and  C_2
REMARK    2  A    between atoms: C_6  and  C_7
REMARK    3  A    between atoms: C_11  and  C_12
REMARK    4  A    between atoms: C_12  and  O_14
REMARK                            x       y       z     vdW  Elec       q    Type
REMARK                         _______ _______ _______ _____ _____    ______ ____
ROOT
ATOM      1  C   UNL     1       3.638   5.030  17.800  0.00  0.00    +0.000 A 
ATOM      2  C   UNL     1       3.594   6.437  17.844  0.00  0.00    +0.000 A 
ATOM      3  C   UNL     1       4.439   7.224  17.055  0.00  0.00    +0.000 A 
ATOM      4  C   UNL     1       5.358   6.620  16.204  0.00  0.00    +0.000 A 
ATOM      5  C   UNL     1       5.439   5.225  16.142  0.00  0.00    +0.000 A 
ATOM      6  C   UNL     1       4.590   4.443  16.941  0.00  0.00    +0.000 A 
ENDROOT
BRANCH   1  11
ATOM      7  C   UNL     1       1.947   3.310  20.771  0.00  0.00    +0.000 A 
ATOM      8  C   UNL     1       1.031   2.493  20.113  0.00  0.00    +0.000 A 
ATOM      9  C   UNL     1       0.893   2.559  18.729  0.00  0.00    +0.000 A 
ATOM     10  C   UNL     1       1.722   3.402  17.984  0.00  0.00    +0.000 A 
ATOM     11  C   UNL     1       2.704   4.197  18.601  0.00  0.00    +0.000 A 
ATOM     12  C   UNL     1       2.791   4.127  20.007  0.00  0.00    +0.000 A 
BRANCH   7  13
ATOM     13  N   UNL     1       2.193   3.134  22.139  0.00  0.00    +0.000 N 
ATOM     14  H   UNL     1       1.942   3.936  22.707  0.00  0.00    +0.000 HD
ATOM     15  H   UNL     1       3.122   2.787  22.353  0.00  0.00    +0.000 HD
ENDBRANCH   7  13
ENDBRANCH   1  11
BRANCH   5  16
ATOM     16  C   UNL     1       6.469   4.625  15.253  0.00  0.00    +0.000 C 
ATOM     17  O   UNL     1       7.481   5.223  14.926  0.00  0.00    +0.000 OA
BRANCH  16  18
ATOM     18  O   UNL     1       6.180   3.382  14.817  0.00  0.00    +0.000 OA
ATOM     19  H   UNL     1       5.275   3.073  15.002  0.00  0.00    +0.000 HD
ENDBRANCH  16  18
ENDBRANCH   5  16
TORSDOF 4
ENDMDL
MODEL 5
REMARK VINA RESULT:      -7.2      0.917      1.206
REMARK  Name = 
REMARK  4 active torsions:
REMARK  status: ('A' for Active; 'I' for Inactive)
REMARK    1  A    between atoms: N_1  and  C_2
REMARK    2  A    between atoms: C_6  and  C_7
REMARK    3  A    between atoms: C_11  and  C_12
REMARK    4  A    between atoms: C_12  and  O_14
REMARK                            x       y       z     vdW  Elec       q    Type
REMARK                         _______ _______ _______ _____ _____    ______ ____
ROOT
ATOM      1  C   UNL     1       4.202   4.967  18.359  0.00  0.00    +0.000 A 
ATOM      2  C   UNL     1       4.210   5.526  17.066  0.00  0.00    +0.000 A 
ATOM      3  C   UNL     1       5.340   6.171  16.552  0.00  0.00    +0.000 A 
ATOM      4  C   UNL     1       6.491   6.279  17.324  0.00  0.00    +0.000 A 
ATOM      5  C   UNL     1       6.517   5.747  18.617  0.00  0.00    +0.000 A 
ATOM      6  C   UNL     1       5.376   5.105  19.126  0.00  0.00    +0.000 A 
ENDROOT
BRANCH   1  11
ATOM      7  C   UNL     1       1.775   3.235  20.758  0.00  0.00    +0.000 A 
ATOM      8  C   UNL     1       0.846   2.714  19.859  0.00  0.00    +0.000 A 
ATOM      9  C   UNL     1       0.948   2.993  18.498  0.00  0.00    +0.000 A 
ATOM     10  C   UNL     1       2.023   3.745  18.018  0.00  0.00    +0.000 A 
ATOM     11  C   UNL     1       3.017   4.238  18.882  0.00  0.00    +0.000 A 
ATOM     12  C   UNL     1       2.862   3.962  20.256  0.00  0.00    +0.000 A 
BRANCH   7  13
ATOM     13  N   UNL     1       1.761   2.831  22.098  0.00  0.00    +0.000 N 
ATOM     14  H   UNL     1       2.199   3.491  22.731  0.00  0.00    +0.000 HD
ATOM     15  H   UNL     1       2.087   1.881  22.249  0.00  0.00    +0.000 HD
ENDBRANCH   7  13
ENDBRANCH   1  11
BRANCH   5  16
ATOM     16  C   UNL     1       7.753   5.927  19.422  0.00  0.00    +0.000 C 
ATOM     17  O   UNL     1       8.033   5.203  20.363  0.00  0.00    +0.000 OA
BRANCH  16  18
ATOM     18  O   UNL     1       8.521   6.970  19.047  0.00  0.00    +0.000 OA
ATOM     19  H   UNL     1       8.478   7.752  19.626  0.00  0.00    +0.000 HD
ENDBRANCH  16  18
ENDBRANCH   5  16
TORSDOF 4
ENDMDL
MODEL 6
REMARK VINA RESULT:      -7.2      2.242      2.924
REMARK  Name = 
REMARK  4 active torsions:
REMARK  status: ('A' for Active; 'I' for Inactive)
REMARK    1  A    between atoms: N_1  and  C_2
REMARK    2  A    between atoms: C_6  and  C_7
REMARK    3  A    between atoms: C_11  and  C_12
REMARK    4  A    between atoms: C_12  and  O_14
REMARK                            x       y       z     vdW  Elec       q    Type
REMARK                         _______ _______ _______ _____ _____    ______ ____
ROOT
ATOM      1  C   UNL     1       4.953   4.678  18.538  0.00  0.00    +0.000 A 
ATOM      2  C   UNL     1       5.960   5.254  19.337  0.00  0.00    +0.000 A 
ATOM      3  C   UNL     1       7.203   5.614  18.806  0.00  0.00    +0.000 A 
ATOM      4  C   UNL     1       7.472   5.400  17.459  0.00  0.00    +0.000 A 
ATOM      5  C   UNL     1       6.502   4.820  16.637  0.00  0.00    +0.000 A 
ATOM      6  C   UNL     1       5.258   4.457  17.179  0.00  0.00    +0.000 A 
ENDROOT
BRANCH   1  11
ATOM      7  C   UNL     1       1.641   2.874  19.190  0.00  0.00    +0.000 A 
ATOM      8  C   UNL     1       1.007   3.787  20.029  0.00  0.00    +0.000 A 
ATOM      9  C   UNL     1       1.673   4.934  20.456  0.00  0.00    +0.000 A 
ATOM     10  C   UNL     1       2.962   5.207  19.992  0.00  0.00    +0.000 A 
ATOM     11  C   UNL     1       3.616   4.344  19.094  0.00  0.00    +0.000 A 
ATOM     12  C   UNL     1       2.922   3.178  18.710  0.00  0.00    +0.000 A 
BRANCH   7  13
ATOM     13  N   UNL     1       0.922   1.806  18.639  0.00  0.00    +0.000 N 
ATOM     14  H   UNL     1       1.359   0.901  18.780  0.00  0.00    +0.000 HD
ATOM     15  H   UNL     1       0.638   1.949  17.675  0.00  0.00    +0.000 HD
ENDBRANCH   7  13
ENDBRANCH   1  11
BRANCH   5  16
ATOM     16  C   UNL     1       6.852   4.568  15.214  0.00  0.00    +0.000 C 
ATOM     17  O   UNL     1       7.565   5.321  14.572  0.00  0.00    +0.000 OA
BRANCH  16  18
ATOM     18  O   UNL     1       6.295   3.459  14.687  0.00  0.00    +0.000 OA
ATOM     19  H   UNL     1       6.904   2.713  14.540  0.00  0.00    +0.000 HD
ENDBRANCH  16  18
ENDBRANCH   5  16
TORSDOF 4
ENDMDL
MODEL 7
REMARK VINA RESULT:      -7.1      1.281      1.488
REMARK  Name = 
REMARK  4 active torsions:
REMARK  status: ('A' for Active; 'I' for Inactive)
REMARK    1  A    between atoms: N_1  and  C_2
REMARK    2  A    between atoms: C_6  and  C_7
REMARK    3  A    between atoms: C_11  and  C_12
REMARK    4  A    between atoms: C_12  and  O_14
REMARK                            x       y       z     vdW  Elec       q    Type
REMARK                         _______ _______ _______ _____ _____    ______ ____
ROOT
ATOM      1  C   UNL     1       3.942   5.018  18.481  0.00  0.00    +0.000 A 
ATOM      2  C   UNL     1       3.759   6.169  17.690  0.00  0.00    +0.000 A 
ATOM      3  C   UNL     1       4.843   6.875  17.159  0.00  0.00    +0.000 A 
ATOM      4  C   UNL     1       6.142   6.451  17.414  0.00  0.00    +0.000 A 
ATOM      5  C   UNL     1       6.364   5.319  18.204  0.00  0.00    +0.000 A 
ATOM      6  C   UNL     1       5.270   4.618  18.737  0.00  0.00    +0.000 A 
ENDROOT
BRANCH   1  11
ATOM      7  C   UNL     1       1.612   3.131  20.860  0.00  0.00    +0.000 A 
ATOM      8  C   UNL     1       0.675   2.627  19.961  0.00  0.00    +0.000 A 
ATOM      9  C   UNL     1       0.738   2.964  18.612  0.00  0.00    +0.000 A 
ATOM     10  C   UNL     1       1.784   3.761  18.139  0.00  0.00    +0.000 A 
ATOM     11  C   UNL     1       2.788   4.240  19.000  0.00  0.00    +0.000 A 
ATOM     12  C   UNL     1       2.671   3.904  20.364  0.00  0.00    +0.000 A 
BRANCH   7  13
ATOM     13  N   UNL     1       1.640   2.671  22.182  0.00  0.00    +0.000 N 
ATOM     14  H   UNL     1       1.347   3.363  22.863  0.00  0.00    +0.000 HD
ATOM     15  H   UNL     1       2.508   2.216  22.446  0.00  0.00    +0.000 HD
ENDBRANCH   7  13
ENDBRANCH   1  11
BRANCH   5  16
ATOM     16  C   UNL     1       7.771   4.930  18.488  0.00  0.00    +0.000 C 
ATOM     17  O   UNL     1       8.402   4.179  17.762  0.00  0.00    +0.000 OA
BRANCH  16  18
ATOM     18  O   UNL     1       8.279   5.449  19.624  0.00  0.00    +0.000 OA
ATOM     19  H   UNL     1       8.410   6.414  19.623  0.00  0.00    +0.000 HD
ENDBRANCH  16  18
ENDBRANCH   5  16
TORSDOF 4
ENDMDL
MODEL 8
REMARK VINA RESULT:      -7.1      3.873      4.275
REMARK  Name = 
REMARK  4 active torsions:
REMARK  status: ('A' for Active; 'I' for Inactive)
REMARK    1  A    between atoms: N_1  and  C_2
REMARK    2  A    between atoms: C_6  and  C_7
REMARK    3  A    between atoms: C_11  and  C_12
REMARK    4  A    between atoms: C_12  and  O_14
REMARK                            x       y       z     vdW  Elec       q    Type
REMARK                         _______ _______ _______ _____ _____    ______ ____
ROOT
ATOM      1  C   UNL     1       3.497   5.913  17.909  0.00  0.00    +0.000 A 
ATOM      2  C   UNL     1       2.935   4.650  17.639  0.00  0.00    +0.000 A 
ATOM      3  C   UNL     1       3.697   3.607  17.104  0.00  0.00    +0.000 A 
ATOM      4  C   UNL     1       5.043   3.804  16.818  0.00  0.00    +0.000 A 
ATOM      5  C   UNL     1       5.634   5.048  17.062  0.00  0.00    +0.000 A 
ATOM      6  C   UNL     1       4.859   6.091  17.595  0.00  0.00    +0.000 A 
ENDROOT
BRANCH   1  11
ATOM      7  C   UNL     1       1.675   9.242  18.407  0.00  0.00    +0.000 A 
ATOM      8  C   UNL     1       1.312   9.143  19.749  0.00  0.00    +0.000 A 
ATOM      9  C   UNL     1       1.572   7.977  20.466  0.00  0.00    +0.000 A 
ATOM     10  C   UNL     1       2.257   6.922  19.859  0.00  0.00    +0.000 A 
ATOM     11  C   UNL     1       2.697   7.003  18.526  0.00  0.00    +0.000 A 
ATOM     12  C   UNL     1       2.388   8.186  17.823  0.00  0.00    +0.000 A 
BRANCH   7  13
ATOM     13  N   UNL     1       1.554  10.463  17.734  0.00  0.00    +0.000 N 
ATOM     14  H   UNL     1       0.616  10.657  17.399  0.00  0.00    +0.000 HD
ATOM     15  H   UNL     1       2.256  10.613  17.015  0.00  0.00    +0.000 HD
ENDBRANCH   7  13
ENDBRANCH   1  11
BRANCH   5  16
ATOM     16  C   UNL     1       7.064   5.226  16.697  0.00  0.00    +0.000 C 
ATOM     17  O   UNL     1       7.475   6.224  16.127  0.00  0.00    +0.000 OA
BRANCH  16  18
ATOM     18  O   UNL     1       7.860   4.187  17.020  0.00  0.00    +0.000 OA
ATOM     19  H   UNL     1       8.089   3.590  16.286  0.00  0.00    +0.000 HD
ENDBRANCH  16  18
ENDBRANCH   5  16
TORSDOF 4
ENDMDL
MODEL 9
REMARK VINA RESULT:      -7.1      1.451      1.783
REMARK  Name = 
REMARK  4 active torsions:
REMARK  status: ('A' for Active; 'I' for Inactive)
REMARK    1  A    between atoms: N_1  and  C_2
REMARK    2  A    between atoms: C_6  and  C_7
REMARK    3  A    between atoms: C_11  and  C_12
REMARK    4  A    between atoms: C_12  and  O_14
REMARK                            x       y       z     vdW  Elec       q    Type
REMARK                         _______ _______ _______ _____ _____    ______ ____
ROOT
ATOM      1  C   UNL     1       4.524   4.807  17.760  0.00  0.00    +0.000 A 
ATOM      2  C   UNL     1       4.744   4.179  16.519  0.00  0.00    +0.000 A 
ATOM      3  C   UNL     1       5.862   4.476  15.733  0.00  0.00    +0.000 A 
ATOM      4  C   UNL     1       6.787   5.419  16.168  0.00  0.00    +0.000 A 
ATOM      5  C   UNL     1       6.597   6.072  17.389  0.00  0.00    +0.000 A 
ATOM      6  C   UNL     1       5.469   5.770  18.170  0.00  0.00    +0.000 A 
ENDROOT
BRANCH   1  11
ATOM      7  C   UNL     1       1.451   2.987  19.134  0.00  0.00    +0.000 A 
ATOM      8  C   UNL     1       1.061   3.860  20.146  0.00  0.00    +0.000 A 
ATOM      9  C   UNL     1       1.831   4.981  20.446  0.00  0.00    +0.000 A 
ATOM     10  C   UNL     1       2.967   5.272  19.688  0.00  0.00    +0.000 A 
ATOM     11  C   UNL     1       3.363   4.452  18.616  0.00  0.00    +0.000 A 
ATOM     12  C   UNL     1       2.576   3.309  18.364  0.00  0.00    +0.000 A 
BRANCH   7  13
ATOM     13  N   UNL     1       0.600   1.950  18.731  0.00  0.00    +0.000 N 
ATOM     14  H   UNL     1       0.026   2.179  17.927  0.00  0.00    +0.000 HD
ATOM     15  H   UNL     1       0.057   1.541  19.485  0.00  0.00    +0.000 HD
ENDBRANCH   7  13
ENDBRANCH   1  11
BRANCH   5  16
ATOM     16  C   UNL     1       7.588   7.105  17.791  0.00  0.00    +0.000 C 
ATOM     17  O   UNL     1       7.771   8.123  17.144  0.00  0.00    +0.000 OA
BRANCH  16  18
ATOM     18  O   UNL     1       8.284   6.812  18.907  0.00  0.00    +0.000 OA
ATOM     19  H   UNL     1       9.253   6.862  18.823  0.00  0.00    +0.000 HD
ENDBRANCH  16  18
ENDBRANCH   5  16
TORSDOF 4
ENDMDL
