MODEL 1
REMARK VINA RESULT:      -6.7      0.000      0.000
REMARK  Name = 
REMARK  13 active torsions:
REMARK  status: ('A' for Active; 'I' for Inactive)
REMARK    1  A    between atoms: C_1  and  C_2
REMARK    2  A    between atoms: C_2  and  O_3
REMARK    3  A    between atoms: O_3  and  C_4
REMARK    4  A    between atoms: C_6  and  S_7
REMARK    5  A    between atoms: S_7  and  N_10
REMARK    6  A    between atoms: N_10  and  C_11
REMARK    7  A    between atoms: N_10  and  C_18
REMARK    8  A    between atoms: C_11  and  C_12
REMARK    9  A    between atoms: C_18  and  C_19
REMARK   10  A    between atoms: C_25  and  O_26
REMARK   11  A    between atoms: O_26  and  C_27
REMARK   12  A    between atoms: C_27  and  C_28
REMARK   13  A    between atoms: C_30  and  N_31
REMARK                            x       y       z     vdW  Elec       q    Type
REMARK                         _______ _______ _______ _____ _____    ______ ____
ROOT
ATOM      1  S   UNL     1       0.844  13.147  20.521  0.00  0.00    +0.000 S 
ATOM      2  O   UNL     1       0.954  14.423  19.845  0.00  0.00    +0.000 OA
ATOM      3  O   UNL     1       1.976  12.680  21.293  0.00  0.00    +0.000 OA
ENDROOT
BRANCH   1   6
ATOM      4  C   UNL     1      -2.662  14.254  22.202  0.00  0.00    +0.000 A 
ATOM      5  C   UNL     1      -1.376  14.297  21.646  0.00  0.00    +0.000 A 
ATOM      6  C   UNL     1      -0.514  13.180  21.699  0.00  0.00    +0.000 A 
ATOM      7  C   UNL     1      -0.885  12.045  22.421  0.00  0.00    +0.000 A 
ATOM      8  C   UNL     1      -2.190  11.980  22.932  0.00  0.00    +0.000 A 
ATOM      9  C   UNL     1      -3.106  13.038  22.726  0.00  0.00    +0.000 A 
BRANCH   9  10
ATOM     10  N   UNL     1      -4.480  12.756  22.917  0.00  0.00    +0.000 N 
ATOM     11  C   UNL     1      -5.239  12.862  24.058  0.00  0.00    +0.000 A 
ATOM     12  N   UNL     1      -6.449  12.417  23.816  0.00  0.00    +0.000 NA
ATOM     13  N   UNL     1      -6.469  12.111  22.480  0.00  0.00    +0.000 NA
ATOM     14  N   UNL     1      -5.298  12.372  21.912  0.00  0.00    +0.000 NA
ENDBRANCH   9  10
BRANCH   4  15
ATOM     15  O   UNL     1      -3.360  15.432  22.119  0.00  0.00    +0.000 OA
BRANCH  15  17
ATOM     16  C   UNL     1      -3.603  17.119  20.371  0.00  0.00    +0.000 C 
ATOM     17  C   UNL     1      -2.735  16.558  21.479  0.00  0.00    +0.000 C 
ENDBRANCH  15  17
ENDBRANCH   4  15
BRANCH   7  18
ATOM     18  O   UNL     1      -0.009  11.003  22.490  0.00  0.00    +0.000 OA
BRANCH  18  19
ATOM     19  C   UNL     1      -0.341   9.907  23.342  0.00  0.00    +0.000 C 
ATOM     20  C   UNL     1      -0.629   8.706  22.457  0.00  0.00    +0.000 C 
ENDBRANCH  18  19
ENDBRANCH   7  18
ENDBRANCH   1   6
BRANCH   1  21
ATOM     21  N   UNL     1       0.375  11.958  19.340  0.00  0.00    +0.000 NA
BRANCH  21  22
ATOM     22  C   UNL     1      -0.687  12.518  18.431  0.00  0.00    +0.000 C 
BRANCH  22  23
ATOM     23  C   UNL     1      -1.950  11.689  18.256  0.00  0.00    +0.000 A 
ATOM     24  C   UNL     1      -3.165  12.102  18.809  0.00  0.00    +0.000 A 
ATOM     25  C   UNL     1      -4.332  11.364  18.582  0.00  0.00    +0.000 A 
ATOM     26  C   UNL     1      -4.296  10.209  17.801  0.00  0.00    +0.000 A 
ATOM     27  C   UNL     1      -3.089   9.781  17.255  0.00  0.00    +0.000 A 
ATOM     28  C   UNL     1      -1.923  10.516  17.479  0.00  0.00    +0.000 A 
ENDBRANCH  22  23
ENDBRANCH  21  22
BRANCH  21  29
ATOM     29  C   UNL     1       1.530  11.410  18.553  0.00  0.00    +0.000 C 
BRANCH  29  30
ATOM     30  C   UNL     1       1.735   9.917  18.694  0.00  0.00    +0.000 A 
ATOM     31  C   UNL     1       1.405   9.250  19.883  0.00  0.00    +0.000 A 
ATOM     32  C   UNL     1       1.722   7.899  20.041  0.00  0.00    +0.000 A 
ATOM     33  C   UNL     1       2.362   7.203  19.016  0.00  0.00    +0.000 A 
ATOM     34  C   UNL     1       2.658   7.846  17.817  0.00  0.00    +0.000 A 
ATOM     35  C   UNL     1       2.332   9.192  17.650  0.00  0.00    +0.000 A 
ENDBRANCH  29  30
ENDBRANCH  21  29
ENDBRANCH   1  21
TORSDOF 11
ENDMDL
MODEL 2
REMARK VINA RESULT:      -6.6      5.654      9.226
REMARK  Name = 
REMARK  13 active torsions:
REMARK  status: ('A' for Active; 'I' for Inactive)
REMARK    1  A    between atoms: C_1  and  C_2
REMARK    2  A    between atoms: C_2  and  O_3
REMARK    3  A    between atoms: O_3  and  C_4
REMARK    4  A    between atoms: C_6  and  S_7
REMARK    5  A    between atoms: S_7  and  N_10
REMARK    6  A    between atoms: N_10  and  C_11
REMARK    7  A    between atoms: N_10  and  C_18
REMARK    8  A    between atoms: C_11  and  C_12
REMARK    9  A    between atoms: C_18  and  C_19
REMARK   10  A    between atoms: C_25  and  O_26
REMARK   11  A    between atoms: O_26  and  C_27
REMARK   12  A    between atoms: C_27  and  C_28
REMARK   13  A    between atoms: C_30  and  N_31
REMARK                            x       y       z     vdW  Elec       q    Type
REMARK                         _______ _______ _______ _____ _____    ______ ____
ROOT
ATOM      1  S   UNL     1       3.353   3.923  17.570  0.00  0.00    +0.000 S 
ATOM      2  O   UNL     1       3.430   2.627  18.214  0.00  0.00    +0.000 OA
ATOM      3  O   UNL     1       2.272   4.161  16.637  0.00  0.00    +0.000 OA
ENDROOT
BRANCH   1   6
ATOM      4  C   UNL     1       2.393   7.521  19.142  0.00  0.00    +0.000 A 
ATOM      5  C   UNL     1       2.941   6.527  18.319  0.00  0.00    +0.000 A 
ATOM      6  C   UNL     1       3.175   5.221  18.800  0.00  0.00    +0.000 A 
ATOM      7  C   UNL     1       2.977   4.927  20.150  0.00  0.00    +0.000 A 
ATOM      8  C   UNL     1       2.379   5.904  20.961  0.00  0.00    +0.000 A 
ATOM      9  C   UNL     1       1.991   7.155  20.428  0.00  0.00    +0.000 A 
BRANCH   9  10
ATOM     10  N   UNL     1       1.066   7.922  21.176  0.00  0.00    +0.000 N 
ATOM     11  C   UNL     1       1.291   9.019  21.974  0.00  0.00    +0.000 A 
ATOM     12  N   UNL     1       0.166   9.371  22.551  0.00  0.00    +0.000 NA
ATOM     13  N   UNL     1      -0.790   8.536  22.037  0.00  0.00    +0.000 NA
ATOM     14  N   UNL     1      -0.266   7.694  21.154  0.00  0.00    +0.000 NA
ENDBRANCH   9  10
BRANCH   4  15
ATOM     15  O   UNL     1       2.274   8.752  18.548  0.00  0.00    +0.000 OA
BRANCH  15  17
ATOM     16  C   UNL     1       0.215  10.060  18.461  0.00  0.00    +0.000 C 
ATOM     17  C   UNL     1       1.093   9.032  17.777  0.00  0.00    +0.000 C 
ENDBRANCH  15  17
ENDBRANCH   4  15
BRANCH   7  18
ATOM     18  O   UNL     1       3.258   3.668  20.591  0.00  0.00    +0.000 OA
BRANCH  18  19
ATOM     19  C   UNL     1       2.367   3.077  21.536  0.00  0.00    +0.000 C 
ATOM     20  C   UNL     1       1.092   2.706  20.799  0.00  0.00    +0.000 C 
ENDBRANCH  18  19
ENDBRANCH   7  18
ENDBRANCH   1   6
BRANCH   1  21
ATOM     21  N   UNL     1       4.891   4.234  16.817  0.00  0.00    +0.000 NA
BRANCH  21  22
ATOM     22  C   UNL     1       5.963   4.380  17.864  0.00  0.00    +0.000 C 
BRANCH  22  23
ATOM     23  C   UNL     1       6.659   5.729  17.953  0.00  0.00    +0.000 A 
ATOM     24  C   UNL     1       7.724   5.933  18.836  0.00  0.00    +0.000 A 
ATOM     25  C   UNL     1       8.398   7.159  18.857  0.00  0.00    +0.000 A 
ATOM     26  C   UNL     1       8.016   8.190  17.999  0.00  0.00    +0.000 A 
ATOM     27  C   UNL     1       6.950   8.002  17.125  0.00  0.00    +0.000 A 
ATOM     28  C   UNL     1       6.275   6.780  17.100  0.00  0.00    +0.000 A 
ENDBRANCH  22  23
ENDBRANCH  21  22
BRANCH  21  29
ATOM     29  C   UNL     1       5.271   3.209  15.788  0.00  0.00    +0.000 C 
BRANCH  29  30
ATOM     30  C   UNL     1       6.091   3.748  14.637  0.00  0.00    +0.000 A 
ATOM     31  C   UNL     1       7.054   4.746  14.838  0.00  0.00    +0.000 A 
ATOM     32  C   UNL     1       7.708   5.323  13.747  0.00  0.00    +0.000 A 
ATOM     33  C   UNL     1       7.410   4.905  12.450  0.00  0.00    +0.000 A 
ATOM     34  C   UNL     1       6.484   3.887  12.241  0.00  0.00    +0.000 A 
ATOM     35  C   UNL     1       5.839   3.300  13.330  0.00  0.00    +0.000 A 
ENDBRANCH  29  30
ENDBRANCH  21  29
ENDBRANCH   1  21
TORSDOF 11
ENDMDL
MODEL 3
REMARK VINA RESULT:      -6.5      1.143      3.961
REMARK  Name = 
REMARK  13 active torsions:
REMARK  status: ('A' for Active; 'I' for Inactive)
REMARK    1  A    between atoms: C_1  and  C_2
REMARK    2  A    between atoms: C_2  and  O_3
REMARK    3  A    between atoms: O_3  and  C_4
REMARK    4  A    between atoms: C_6  and  S_7
REMARK    5  A    between atoms: S_7  and  N_10
REMARK    6  A    between atoms: N_10  and  C_11
REMARK    7  A    between atoms: N_10  and  C_18
REMARK    8  A    between atoms: C_11  and  C_12
REMARK    9  A    between atoms: C_18  and  C_19
REMARK   10  A    between atoms: C_25  and  O_26
REMARK   11  A    between atoms: O_26  and  C_27
REMARK   12  A    between atoms: C_27  and  C_28
REMARK   13  A    between atoms: C_30  and  N_31
REMARK                            x       y       z     vdW  Elec       q    Type
REMARK                         _______ _______ _______ _____ _____    ______ ____
ROOT
ATOM      1  S   UNL     1       0.462  12.106  19.654  0.00  0.00    +0.000 S 
ATOM      2  O   UNL     1       0.368  12.913  18.454  0.00  0.00    +0.000 OA
ATOM      3  O   UNL     1       1.707  12.118  20.391  0.00  0.00    +0.000 OA
ENDROOT
BRANCH   1   6
ATOM      4  C   UNL     1      -2.951  13.729  21.090  0.00  0.00    +0.000 A 
ATOM      5  C   UNL     1      -1.735  13.560  20.413  0.00  0.00    +0.000 A 
ATOM      6  C   UNL     1      -0.772  12.626  20.853  0.00  0.00    +0.000 A 
ATOM      7  C   UNL     1      -0.963  11.937  22.052  0.00  0.00    +0.000 A 
ATOM      8  C   UNL     1      -2.200  12.065  22.701  0.00  0.00    +0.000 A 
ATOM      9  C   UNL     1      -3.226  12.875  22.160  0.00  0.00    +0.000 A 
BRANCH   9  10
ATOM     10  N   UNL     1      -4.542  12.661  22.633  0.00  0.00    +0.000 N 
ATOM     11  C   UNL     1      -5.056  12.856  23.893  0.00  0.00    +0.000 A 
ATOM     12  N   UNL     1      -6.303  12.450  23.920  0.00  0.00    +0.000 NA
ATOM     13  N   UNL     1      -6.597  12.077  22.635  0.00  0.00    +0.000 NA
ATOM     14  N   UNL     1      -5.556  12.260  21.833  0.00  0.00    +0.000 NA
ENDBRANCH   9  10
BRANCH   4  15
ATOM     15  O   UNL     1      -3.760  14.709  20.574  0.00  0.00    +0.000 OA
BRANCH  15  17
ATOM     16  C   UNL     1      -3.029  17.037  20.539  0.00  0.00    +0.000 C 
ATOM     17  C   UNL     1      -3.832  15.972  21.257  0.00  0.00    +0.000 C 
ENDBRANCH  15  17
ENDBRANCH   4  15
BRANCH   7  18
ATOM     18  O   UNL     1       0.009  11.079  22.471  0.00  0.00    +0.000 OA
BRANCH  18  19
ATOM     19  C   UNL     1      -0.365  10.034  23.369  0.00  0.00    +0.000 C 
ATOM     20  C   UNL     1      -0.524   8.761  22.555  0.00  0.00    +0.000 C 
ENDBRANCH  18  19
ENDBRANCH   7  18
ENDBRANCH   1   6
BRANCH   1  21
ATOM     21  N   UNL     1       0.013  10.478  19.235  0.00  0.00    +0.000 NA
BRANCH  21  22
ATOM     22  C   UNL     1       0.780   9.493  20.078  0.00  0.00    +0.000 C 
BRANCH  22  23
ATOM     23  C   UNL     1       1.725   8.552  19.348  0.00  0.00    +0.000 A 
ATOM     24  C   UNL     1       2.097   7.326  19.909  0.00  0.00    +0.000 A 
ATOM     25  C   UNL     1       2.912   6.441  19.196  0.00  0.00    +0.000 A 
ATOM     26  C   UNL     1       3.363   6.771  17.919  0.00  0.00    +0.000 A 
ATOM     27  C   UNL     1       3.011   7.993  17.355  0.00  0.00    +0.000 A 
ATOM     28  C   UNL     1       2.195   8.879  18.063  0.00  0.00    +0.000 A 
ENDBRANCH  22  23
ENDBRANCH  21  22
BRANCH  21  29
ATOM     29  C   UNL     1      -1.465  10.226  19.313  0.00  0.00    +0.000 C 
BRANCH  29  30
ATOM     30  C   UNL     1      -2.215  10.478  18.024  0.00  0.00    +0.000 A 
ATOM     31  C   UNL     1      -3.336  11.319  17.991  0.00  0.00    +0.000 A 
ATOM     32  C   UNL     1      -4.093  11.438  16.824  0.00  0.00    +0.000 A 
ATOM     33  C   UNL     1      -3.734  10.724  15.680  0.00  0.00    +0.000 A 
ATOM     34  C   UNL     1      -2.600   9.917  15.690  0.00  0.00    +0.000 A 
ATOM     35  C   UNL     1      -1.835   9.807  16.851  0.00  0.00    +0.000 A 
ENDBRANCH  29  30
ENDBRANCH  21  29
ENDBRANCH   1  21
TORSDOF 11
ENDMDL
MODEL 4
REMARK VINA RESULT:      -6.5      1.931      3.898
REMARK  Name = 
REMARK  13 active torsions:
REMARK  status: ('A' for Active; 'I' for Inactive)
REMARK    1  A    between atoms: C_1  and  C_2
REMARK    2  A    between atoms: C_2  and  O_3
REMARK    3  A    between atoms: O_3  and  C_4
REMARK    4  A    between atoms: C_6  and  S_7
REMARK    5  A    between atoms: S_7  and  N_10
REMARK    6  A    between atoms: N_10  and  C_11
REMARK    7  A    between atoms: N_10  and  C_18
REMARK    8  A    between atoms: C_11  and  C_12
REMARK    9  A    between atoms: C_18  and  C_19
REMARK   10  A    between atoms: C_25  and  O_26
REMARK   11  A    between atoms: O_26  and  C_27
REMARK   12  A    between atoms: C_27  and  C_28
REMARK   13  A    between atoms: C_30  and  N_31
REMARK                            x       y       z     vdW  Elec       q    Type
REMARK                         _______ _______ _______ _____ _____    ______ ____
ROOT
ATOM      1  S   UNL     1       1.010  12.965  21.165  0.00  0.00    +0.000 S 
ATOM      2  O   UNL     1       1.908  14.041  21.535  0.00  0.00    +0.000 OA
ATOM      3  O   UNL     1       1.469  11.603  21.332  0.00  0.00    +0.000 OA
ENDROOT
BRANCH   1   6
ATOM      4  C   UNL     1      -2.672  14.177  22.312  0.00  0.00    +0.000 A 
ATOM      5  C   UNL     1      -1.320  14.183  21.942  0.00  0.00    +0.000 A 
ATOM      6  C   UNL     1      -0.499  13.051  22.137  0.00  0.00    +0.000 A 
ATOM      7  C   UNL     1      -0.994  11.938  22.820  0.00  0.00    +0.000 A 
ATOM      8  C   UNL     1      -2.359  11.910  23.142  0.00  0.00    +0.000 A 
ATOM      9  C   UNL     1      -3.213  12.981  22.790  0.00  0.00    +0.000 A 
BRANCH   9  10
ATOM     10  N   UNL     1      -4.605  12.730  22.789  0.00  0.00    +0.000 N 
ATOM     11  C   UNL     1      -5.526  12.933  23.790  0.00  0.00    +0.000 A 
ATOM     12  N   UNL     1      -6.695  12.484  23.400  0.00  0.00    +0.000 NA
ATOM     13  N   UNL     1      -6.520  12.075  22.103  0.00  0.00    +0.000 NA
ATOM     14  N   UNL     1      -5.271  12.279  21.702  0.00  0.00    +0.000 NA
ENDBRANCH   9  10
BRANCH   4  15
ATOM     15  O   UNL     1      -3.325  15.366  22.109  0.00  0.00    +0.000 OA
BRANCH  15  17
ATOM     16  C   UNL     1      -4.756  17.099  23.059  0.00  0.00    +0.000 C 
ATOM     17  C   UNL     1      -3.518  16.244  23.231  0.00  0.00    +0.000 C 
ENDBRANCH  15  17
ENDBRANCH   4  15
BRANCH   7  18
ATOM     18  O   UNL     1      -0.160  10.881  23.032  0.00  0.00    +0.000 OA
BRANCH  18  19
ATOM     19  C   UNL     1      -0.741   9.582  23.138  0.00  0.00    +0.000 C 
ATOM     20  C   UNL     1      -0.278   8.771  21.940  0.00  0.00    +0.000 C 
ENDBRANCH  18  19
ENDBRANCH   7  18
ENDBRANCH   1   6
BRANCH   1  21
ATOM     21  N   UNL     1       0.497  13.242  19.525  0.00  0.00    +0.000 NA
BRANCH  21  22
ATOM     22  C   UNL     1       1.384  14.266  18.868  0.00  0.00    +0.000 C 
BRANCH  22  23
ATOM     23  C   UNL     1       0.835  15.679  18.749  0.00  0.00    +0.000 A 
ATOM     24  C   UNL     1      -0.542  15.913  18.681  0.00  0.00    +0.000 A 
ATOM     25  C   UNL     1      -1.035  17.221  18.642  0.00  0.00    +0.000 A 
ATOM     26  C   UNL     1      -0.160  18.306  18.670  0.00  0.00    +0.000 A 
ATOM     27  C   UNL     1       1.213  18.086  18.725  0.00  0.00    +0.000 A 
ATOM     28  C   UNL     1       1.709  16.781  18.766  0.00  0.00    +0.000 A 
ENDBRANCH  22  23
ENDBRANCH  21  22
BRANCH  21  29
ATOM     29  C   UNL     1       0.413  11.988  18.705  0.00  0.00    +0.000 C 
BRANCH  29  30
ATOM     30  C   UNL     1      -0.991  11.461  18.504  0.00  0.00    +0.000 A 
ATOM     31  C   UNL     1      -1.226  10.290  17.767  0.00  0.00    +0.000 A 
ATOM     32  C   UNL     1      -2.533   9.891  17.481  0.00  0.00    +0.000 A 
ATOM     33  C   UNL     1      -3.613  10.650  17.931  0.00  0.00    +0.000 A 
ATOM     34  C   UNL     1      -3.392  11.792  18.696  0.00  0.00    +0.000 A 
ATOM     35  C   UNL     1      -2.088  12.187  18.995  0.00  0.00    +0.000 A 
ENDBRANCH  29  30
ENDBRANCH  21  29
ENDBRANCH   1  21
TORSDOF 11
ENDMDL
MODEL 5
REMARK VINA RESULT:      -6.4      0.967      3.661
REMARK  Name = 
REMARK  13 active torsions:
REMARK  status: ('A' for Active; 'I' for Inactive)
REMARK    1  A    between atoms: C_1  and  C_2
REMARK    2  A    between atoms: C_2  and  O_3
REMARK    3  A    between atoms: O_3  and  C_4
REMARK    4  A    between atoms: C_6  and  S_7
REMARK    5  A    between atoms: S_7  and  N_10
REMARK    6  A    between atoms: N_10  and  C_11
REMARK    7  A    between atoms: N_10  and  C_18
REMARK    8  A    between atoms: C_11  and  C_12
REMARK    9  A    between atoms: C_18  and  C_19
REMARK   10  A    between atoms: C_25  and  O_26
REMARK   11  A    between atoms: O_26  and  C_27
REMARK   12  A    between atoms: C_27  and  C_28
REMARK   13  A    between atoms: C_30  and  N_31
REMARK                            x       y       z     vdW  Elec       q    Type
REMARK                         _______ _______ _______ _____ _____    ______ ____
ROOT
ATOM      1  S   UNL     1       0.567  13.164  20.513  0.00  0.00    +0.000 S 
ATOM      2  O   UNL     1       0.947  14.456  19.978  0.00  0.00    +0.000 OA
ATOM      3  O   UNL     1       1.486  12.498  21.411  0.00  0.00    +0.000 OA
ENDROOT
BRANCH   1   6
ATOM      4  C   UNL     1      -3.248  14.176  21.383  0.00  0.00    +0.000 A 
ATOM      5  C   UNL     1      -1.900  14.251  21.006  0.00  0.00    +0.000 A 
ATOM      6  C   UNL     1      -0.957  13.302  21.455  0.00  0.00    +0.000 A 
ATOM      7  C   UNL     1      -1.330  12.334  22.390  0.00  0.00    +0.000 A 
ATOM      8  C   UNL     1      -2.687  12.224  22.726  0.00  0.00    +0.000 A 
ATOM      9  C   UNL     1      -3.654  13.074  22.140  0.00  0.00    +0.000 A 
BRANCH   9  10
ATOM     10  N   UNL     1      -5.008  12.670  22.216  0.00  0.00    +0.000 N 
ATOM     11  C   UNL     1      -5.869  12.319  21.204  0.00  0.00    +0.000 A 
ATOM     12  N   UNL     1      -7.060  12.095  21.707  0.00  0.00    +0.000 NA
ATOM     13  N   UNL     1      -6.917  12.222  23.064  0.00  0.00    +0.000 NA
ATOM     14  N   UNL     1      -5.662  12.509  23.388  0.00  0.00    +0.000 NA
ENDBRANCH   9  10
BRANCH   4  15
ATOM     15  O   UNL     1      -4.031  15.199  20.911  0.00  0.00    +0.000 OA
BRANCH  15  17
ATOM     16  C   UNL     1      -4.075  17.618  21.226  0.00  0.00    +0.000 C 
ATOM     17  C   UNL     1      -4.395  16.258  21.812  0.00  0.00    +0.000 C 
ENDBRANCH  15  17
ENDBRANCH   4  15
BRANCH   7  18
ATOM     18  O   UNL     1      -0.382  11.463  22.837  0.00  0.00    +0.000 OA
BRANCH  18  19
ATOM     19  C   UNL     1      -0.802  10.148  23.202  0.00  0.00    +0.000 C 
ATOM     20  C   UNL     1       0.442   9.340  23.528  0.00  0.00    +0.000 C 
ENDBRANCH  18  19
ENDBRANCH   7  18
ENDBRANCH   1   6
BRANCH   1  21
ATOM     21  N   UNL     1       0.166  12.131  19.171  0.00  0.00    +0.000 NA
BRANCH  21  22
ATOM     22  C   UNL     1      -0.174  10.748  19.661  0.00  0.00    +0.000 C 
BRANCH  22  23
ATOM     23  C   UNL     1       0.812   9.639  19.330  0.00  0.00    +0.000 A 
ATOM     24  C   UNL     1       1.158   8.675  20.282  0.00  0.00    +0.000 A 
ATOM     25  C   UNL     1       2.013   7.621  19.941  0.00  0.00    +0.000 A 
ATOM     26  C   UNL     1       2.530   7.521  18.650  0.00  0.00    +0.000 A 
ATOM     27  C   UNL     1       2.203   8.482  17.698  0.00  0.00    +0.000 A 
ATOM     28  C   UNL     1       1.349   9.534  18.034  0.00  0.00    +0.000 A 
ENDBRANCH  22  23
ENDBRANCH  21  22
BRANCH  21  29
ATOM     29  C   UNL     1      -0.924  12.681  18.298  0.00  0.00    +0.000 C 
BRANCH  29  30
ATOM     30  C   UNL     1      -2.012  11.689  17.949  0.00  0.00    +0.000 A 
ATOM     31  C   UNL     1      -1.832  10.749  16.924  0.00  0.00    +0.000 A 
ATOM     32  C   UNL     1      -2.892   9.930  16.528  0.00  0.00    +0.000 A 
ATOM     33  C   UNL     1      -4.134  10.037  17.154  0.00  0.00    +0.000 A 
ATOM     34  C   UNL     1      -4.311  10.940  18.199  0.00  0.00    +0.000 A 
ATOM     35  C   UNL     1      -3.251  11.751  18.606  0.00  0.00    +0.000 A 
ENDBRANCH  29  30
ENDBRANCH  21  29
ENDBRANCH   1  21
TORSDOF 11
ENDMDL
MODEL 6
REMARK VINA RESULT:      -6.3      2.483      4.610
REMARK  Name = 
REMARK  13 active torsions:
REMARK  status: ('A' for Active; 'I' for Inactive)
REMARK    1  A    between atoms: C_1  and  C_2
REMARK    2  A    between atoms: C_2  and  O_3
REMARK    3  A    between atoms: O_3  and  C_4
REMARK    4  A    between atoms: C_6  and  S_7
REMARK    5  A    between atoms: S_7  and  N_10
REMARK    6  A    between atoms: N_10  and  C_11
REMARK    7  A    between atoms: N_10  and  C_18
REMARK    8  A    between atoms: C_11  and  C_12
REMARK    9  A    between atoms: C_18  and  C_19
REMARK   10  A    between atoms: C_25  and  O_26
REMARK   11  A    between atoms: O_26  and  C_27
REMARK   12  A    between atoms: C_27  and  C_28
REMARK   13  A    between atoms: C_30  and  N_31
REMARK                            x       y       z     vdW  Elec       q    Type
REMARK                         _______ _______ _______ _____ _____    ______ ____
ROOT
ATOM      1  S   UNL     1       0.739  14.411  21.542  0.00  0.00    +0.000 S 
ATOM      2  O   UNL     1       1.176  15.738  21.929  0.00  0.00    +0.000 OA
ATOM      3  O   UNL     1       1.672  13.314  21.686  0.00  0.00    +0.000 OA
ENDROOT
BRANCH   1   6
ATOM      4  C   UNL     1      -2.953  14.584  23.179  0.00  0.00    +0.000 A 
ATOM      5  C   UNL     1      -1.645  14.914  22.799  0.00  0.00    +0.000 A 
ATOM      6  C   UNL     1      -0.687  13.916  22.518  0.00  0.00    +0.000 A 
ATOM      7  C   UNL     1      -0.995  12.571  22.733  0.00  0.00    +0.000 A 
ATOM      8  C   UNL     1      -2.317  12.237  23.061  0.00  0.00    +0.000 A 
ATOM      9  C   UNL     1      -3.314  13.235  23.175  0.00  0.00    +0.000 A 
BRANCH   9  10
ATOM     10  N   UNL     1      -4.664  12.815  23.120  0.00  0.00    +0.000 N 
ATOM     11  C   UNL     1      -5.605  12.782  24.121  0.00  0.00    +0.000 A 
ATOM     12  N   UNL     1      -6.708  12.241  23.660  0.00  0.00    +0.000 NA
ATOM     13  N   UNL     1      -6.479  12.015  22.328  0.00  0.00    +0.000 NA
ATOM     14  N   UNL     1      -5.265  12.418  21.976  0.00  0.00    +0.000 NA
ENDBRANCH   9  10
BRANCH   4  15
ATOM     15  O   UNL     1      -3.752  15.661  23.470  0.00  0.00    +0.000 OA
BRANCH  15  17
ATOM     16  C   UNL     1      -3.777  17.521  25.050  0.00  0.00    +0.000 C 
ATOM     17  C   UNL     1      -3.934  16.028  24.848  0.00  0.00    +0.000 C 
ENDBRANCH  15  17
ENDBRANCH   4  15
BRANCH   7  18
ATOM     18  O   UNL     1      -0.031  11.637  22.496  0.00  0.00    +0.000 OA
BRANCH  18  19
ATOM     19  C   UNL     1      -0.371  10.264  22.685  0.00  0.00    +0.000 C 
ATOM     20  C   UNL     1       0.784   9.427  22.163  0.00  0.00    +0.000 C 
ENDBRANCH  18  19
ENDBRANCH   7  18
ENDBRANCH   1   6
BRANCH   1  21
ATOM     21  N   UNL     1       0.148  14.502  19.908  0.00  0.00    +0.000 NA
BRANCH  21  22
ATOM     22  C   UNL     1      -0.621  13.254  19.562  0.00  0.00    +0.000 C 
BRANCH  22  23
ATOM     23  C   UNL     1       0.174  12.097  18.975  0.00  0.00    +0.000 A 
ATOM     24  C   UNL     1       1.493  12.273  18.547  0.00  0.00    +0.000 A 
ATOM     25  C   UNL     1       2.233  11.185  18.073  0.00  0.00    +0.000 A 
ATOM     26  C   UNL     1       1.664   9.913  18.023  0.00  0.00    +0.000 A 
ATOM     27  C   UNL     1       0.347   9.727  18.435  0.00  0.00    +0.000 A 
ATOM     28  C   UNL     1      -0.394  10.812  18.910  0.00  0.00    +0.000 A 
ENDBRANCH  22  23
ENDBRANCH  21  22
BRANCH  21  29
ATOM     29  C   UNL     1      -0.664  15.734  19.633  0.00  0.00    +0.000 C 
BRANCH  29  30
ATOM     30  C   UNL     1      -0.032  16.700  18.656  0.00  0.00    +0.000 A 
ATOM     31  C   UNL     1      -0.814  17.596  17.914  0.00  0.00    +0.000 A 
ATOM     32  C   UNL     1      -0.229  18.388  16.924  0.00  0.00    +0.000 A 
ATOM     33  C   UNL     1       1.140  18.297  16.672  0.00  0.00    +0.000 A 
ATOM     34  C   UNL     1       1.933  17.440  17.429  0.00  0.00    +0.000 A 
ATOM     35  C   UNL     1       1.353  16.657  18.428  0.00  0.00    +0.000 A 
ENDBRANCH  29  30
ENDBRANCH  21  29
ENDBRANCH   1  21
TORSDOF 11
ENDMDL
MODEL 7
REMARK VINA RESULT:      -6.3      2.469      4.486
REMARK  Name = 
REMARK  13 active torsions:
REMARK  status: ('A' for Active; 'I' for Inactive)
REMARK    1  A    between atoms: C_1  and  C_2
REMARK    2  A    between atoms: C_2  and  O_3
REMARK    3  A    between atoms: O_3  and  C_4
REMARK    4  A    between atoms: C_6  and  S_7
REMARK    5  A    between atoms: S_7  and  N_10
REMARK    6  A    between atoms: N_10  and  C_11
REMARK    7  A    between atoms: N_10  and  C_18
REMARK    8  A    between atoms: C_11  and  C_12
REMARK    9  A    between atoms: C_18  and  C_19
REMARK   10  A    between atoms: C_25  and  O_26
REMARK   11  A    between atoms: O_26  and  C_27
REMARK   12  A    between atoms: C_27  and  C_28
REMARK   13  A    between atoms: C_30  and  N_31
REMARK                            x       y       z     vdW  Elec       q    Type
REMARK                         _______ _______ _______ _____ _____    ______ ____
ROOT
ATOM      1  S   UNL     1       0.633  14.258  21.552  0.00  0.00    +0.000 S 
ATOM      2  O   UNL     1       1.133  15.560  21.943  0.00  0.00    +0.000 OA
ATOM      3  O   UNL     1       1.525  13.122  21.655  0.00  0.00    +0.000 OA
ENDROOT
BRANCH   1   6
ATOM      4  C   UNL     1      -3.040  14.509  23.222  0.00  0.00    +0.000 A 
ATOM      5  C   UNL     1      -1.734  14.818  22.816  0.00  0.00    +0.000 A 
ATOM      6  C   UNL     1      -0.784  13.805  22.561  0.00  0.00    +0.000 A 
ATOM      7  C   UNL     1      -1.096  12.471  22.829  0.00  0.00    +0.000 A 
ATOM      8  C   UNL     1      -2.416  12.156  23.183  0.00  0.00    +0.000 A 
ATOM      9  C   UNL     1      -3.406  13.162  23.272  0.00  0.00    +0.000 A 
BRANCH   9  10
ATOM     10  N   UNL     1      -4.759  12.749  23.248  0.00  0.00    +0.000 N 
ATOM     11  C   UNL     1      -5.653  12.758  22.204  0.00  0.00    +0.000 A 
ATOM     12  N   UNL     1      -6.829  12.369  22.637  0.00  0.00    +0.000 NA
ATOM     13  N   UNL     1      -6.643  12.028  23.951  0.00  0.00    +0.000 NA
ATOM     14  N   UNL     1      -5.378  12.194  24.315  0.00  0.00    +0.000 NA
ENDBRANCH   9  10
BRANCH   4  15
ATOM     15  O   UNL     1      -3.830  15.600  23.483  0.00  0.00    +0.000 OA
BRANCH  15  17
ATOM     16  C   UNL     1      -3.318  17.212  25.242  0.00  0.00    +0.000 C 
ATOM     17  C   UNL     1      -3.193  16.856  23.775  0.00  0.00    +0.000 C 
ENDBRANCH  15  17
ENDBRANCH   4  15
BRANCH   7  18
ATOM     18  O   UNL     1      -0.139  11.524  22.616  0.00  0.00    +0.000 OA
BRANCH  18  19
ATOM     19  C   UNL     1      -0.461  10.168  22.926  0.00  0.00    +0.000 C 
ATOM     20  C   UNL     1       0.042   9.302  21.784  0.00  0.00    +0.000 C 
ENDBRANCH  18  19
ENDBRANCH   7  18
ENDBRANCH   1   6
BRANCH   1  21
ATOM     21  N   UNL     1       0.000  14.395  19.936  0.00  0.00    +0.000 NA
BRANCH  21  22
ATOM     22  C   UNL     1      -0.942  13.256  19.648  0.00  0.00    +0.000 C 
BRANCH  22  23
ATOM     23  C   UNL     1      -0.344  12.012  19.009  0.00  0.00    +0.000 A 
ATOM     24  C   UNL     1       1.040  11.862  18.882  0.00  0.00    +0.000 A 
ATOM     25  C   UNL     1       1.577  10.683  18.355  0.00  0.00    +0.000 A 
ATOM     26  C   UNL     1       0.739   9.645  17.949  0.00  0.00    +0.000 A 
ATOM     27  C   UNL     1      -0.641   9.788  18.058  0.00  0.00    +0.000 A 
ATOM     28  C   UNL     1      -1.181  10.964  18.586  0.00  0.00    +0.000 A 
ENDBRANCH  22  23
ENDBRANCH  21  22
BRANCH  21  29
ATOM     29  C   UNL     1      -0.646  15.720  19.658  0.00  0.00    +0.000 C 
BRANCH  29  30
ATOM     30  C   UNL     1       0.037  16.541  18.586  0.00  0.00    +0.000 A 
ATOM     31  C   UNL     1       1.430  16.508  18.427  0.00  0.00    +0.000 A 
ATOM     32  C   UNL     1       2.054  17.369  17.522  0.00  0.00    +0.000 A 
ATOM     33  C   UNL     1       1.295  18.262  16.765  0.00  0.00    +0.000 A 
ATOM     34  C   UNL     1      -0.092  18.275  16.887  0.00  0.00    +0.000 A 
ATOM     35  C   UNL     1      -0.720  17.407  17.781  0.00  0.00    +0.000 A 
ENDBRANCH  29  30
ENDBRANCH  21  29
ENDBRANCH   1  21
TORSDOF 11
ENDMDL
MODEL 8
REMARK VINA RESULT:      -6.2      1.129      3.906
REMARK  Name = 
REMARK  13 active torsions:
REMARK  status: ('A' for Active; 'I' for Inactive)
REMARK    1  A    between atoms: C_1  and  C_2
REMARK    2  A    between atoms: C_2  and  O_3
REMARK    3  A    between atoms: O_3  and  C_4
REMARK    4  A    between atoms: C_6  and  S_7
REMARK    5  A    between atoms: S_7  and  N_10
REMARK    6  A    between atoms: N_10  and  C_11
REMARK    7  A    between atoms: N_10  and  C_18
REMARK    8  A    between atoms: C_11  and  C_12
REMARK    9  A    between atoms: C_18  and  C_19
REMARK   10  A    between atoms: C_25  and  O_26
REMARK   11  A    between atoms: O_26  and  C_27
REMARK   12  A    between atoms: C_27  and  C_28
REMARK   13  A    between atoms: C_30  and  N_31
REMARK                            x       y       z     vdW  Elec       q    Type
REMARK                         _______ _______ _______ _____ _____    ______ ____
ROOT
ATOM      1  S   UNL     1       0.291  12.429  20.221  0.00  0.00    +0.000 S 
ATOM      2  O   UNL     1       0.556  13.368  19.150  0.00  0.00    +0.000 OA
ATOM      3  O   UNL     1       1.375  12.089  21.118  0.00  0.00    +0.000 OA
ENDROOT
BRANCH   1   6
ATOM      4  C   UNL     1      -3.122  14.293  21.326  0.00  0.00    +0.000 A 
ATOM      5  C   UNL     1      -1.869  14.030  20.754  0.00  0.00    +0.000 A 
ATOM      6  C   UNL     1      -0.999  13.062  21.301  0.00  0.00    +0.000 A 
ATOM      7  C   UNL     1      -1.322  12.432  22.503  0.00  0.00    +0.000 A 
ATOM      8  C   UNL     1      -2.596  12.653  23.048  0.00  0.00    +0.000 A 
ATOM      9  C   UNL     1      -3.528  13.497  22.400  0.00  0.00    +0.000 A 
BRANCH   9  10
ATOM     10  N   UNL     1      -4.887  13.374  22.775  0.00  0.00    +0.000 N 
ATOM     11  C   UNL     1      -5.940  14.220  22.517  0.00  0.00    +0.000 A 
ATOM     12  N   UNL     1      -7.014  13.771  23.123  0.00  0.00    +0.000 NA
ATOM     13  N   UNL     1      -6.645  12.581  23.694  0.00  0.00    +0.000 NA
ATOM     14  N   UNL     1      -5.374  12.300  23.436  0.00  0.00    +0.000 NA
ENDBRANCH   9  10
BRANCH   4  15
ATOM     15  O   UNL     1      -3.831  15.295  20.715  0.00  0.00    +0.000 OA
BRANCH  15  17
ATOM     16  C   UNL     1      -3.386  17.076  22.324  0.00  0.00    +0.000 C 
ATOM     17  C   UNL     1      -3.377  16.651  20.870  0.00  0.00    +0.000 C 
ENDBRANCH  15  17
ENDBRANCH   4  15
BRANCH   7  18
ATOM     18  O   UNL     1      -0.437  11.537  23.027  0.00  0.00    +0.000 OA
BRANCH  18  19
ATOM     19  C   UNL     1      -0.890  10.203  23.253  0.00  0.00    +0.000 C 
ATOM     20  C   UNL     1       0.326   9.350  23.568  0.00  0.00    +0.000 C 
ENDBRANCH  18  19
ENDBRANCH   7  18
ENDBRANCH   1   6
BRANCH   1  21
ATOM     21  N   UNL     1      -0.391  10.993  19.512  0.00  0.00    +0.000 NA
BRANCH  21  22
ATOM     22  C   UNL     1       0.159   9.766  20.191  0.00  0.00    +0.000 C 
BRANCH  22  23
ATOM     23  C   UNL     1       1.155   8.931  19.402  0.00  0.00    +0.000 A 
ATOM     24  C   UNL     1       1.547   9.305  18.113  0.00  0.00    +0.000 A 
ATOM     25  C   UNL     1       2.516   8.565  17.427  0.00  0.00    +0.000 A 
ATOM     26  C   UNL     1       3.102   7.448  18.020  0.00  0.00    +0.000 A 
ATOM     27  C   UNL     1       2.711   7.058  19.298  0.00  0.00    +0.000 A 
ATOM     28  C   UNL     1       1.745   7.795  19.986  0.00  0.00    +0.000 A 
ENDBRANCH  22  23
ENDBRANCH  21  22
BRANCH  21  29
ATOM     29  C   UNL     1      -1.892  10.984  19.505  0.00  0.00    +0.000 C 
BRANCH  29  30
ATOM     30  C   UNL     1      -2.513  10.784  18.141  0.00  0.00    +0.000 A 
ATOM     31  C   UNL     1      -1.879  10.003  17.164  0.00  0.00    +0.000 A 
ATOM     32  C   UNL     1      -2.401   9.935  15.870  0.00  0.00    +0.000 A 
ATOM     33  C   UNL     1      -3.560  10.640  15.543  0.00  0.00    +0.000 A 
ATOM     34  C   UNL     1      -4.219  11.386  16.516  0.00  0.00    +0.000 A 
ATOM     35  C   UNL     1      -3.708  11.446  17.812  0.00  0.00    +0.000 A 
ENDBRANCH  29  30
ENDBRANCH  21  29
ENDBRANCH   1  21
TORSDOF 11
ENDMDL
MODEL 9
REMARK VINA RESULT:      -6.2      2.167      4.929
REMARK  Name = 
REMARK  13 active torsions:
REMARK  status: ('A' for Active; 'I' for Inactive)
REMARK    1  A    between atoms: C_1  and  C_2
REMARK    2  A    between atoms: C_2  and  O_3
REMARK    3  A    between atoms: O_3  and  C_4
REMARK    4  A    between atoms: C_6  and  S_7
REMARK    5  A    between atoms: S_7  and  N_10
REMARK    6  A    between atoms: N_10  and  C_11
REMARK    7  A    between atoms: N_10  and  C_18
REMARK    8  A    between atoms: C_11  and  C_12
REMARK    9  A    between atoms: C_18  and  C_19
REMARK   10  A    between atoms: C_25  and  O_26
REMARK   11  A    between atoms: O_26  and  C_27
REMARK   12  A    between atoms: C_27  and  C_28
REMARK   13  A    between atoms: C_30  and  N_31
REMARK                            x       y       z     vdW  Elec       q    Type
REMARK                         _______ _______ _______ _____ _____    ______ ____
ROOT
ATOM      1  S   UNL     1      -0.744  11.958  21.350  0.00  0.00    +0.000 S 
ATOM      2  O   UNL     1       0.433  12.733  21.687  0.00  0.00    +0.000 OA
ATOM      3  O   UNL     1      -1.061  10.805  22.167  0.00  0.00    +0.000 OA
ENDROOT
BRANCH   1   6
ATOM      4  C   UNL     1      -4.190  13.490  22.807  0.00  0.00    +0.000 A 
ATOM      5  C   UNL     1      -3.216  12.590  22.353  0.00  0.00    +0.000 A 
ATOM      6  C   UNL     1      -2.215  12.986  21.439  0.00  0.00    +0.000 A 
ATOM      7  C   UNL     1      -2.253  14.261  20.872  0.00  0.00    +0.000 A 
ATOM      8  C   UNL     1      -3.192  15.180  21.364  0.00  0.00    +0.000 A 
ATOM      9  C   UNL     1      -4.083  14.824  22.403  0.00  0.00    +0.000 A 
BRANCH   9  10
ATOM     10  N   UNL     1      -4.719  15.875  23.104  0.00  0.00    +0.000 N 
ATOM     11  C   UNL     1      -4.620  16.221  24.431  0.00  0.00    +0.000 A 
ATOM     12  N   UNL     1      -5.446  17.208  24.684  0.00  0.00    +0.000 NA
ATOM     13  N   UNL     1      -6.004  17.541  23.477  0.00  0.00    +0.000 NA
ATOM     14  N   UNL     1      -5.523  16.781  22.502  0.00  0.00    +0.000 NA
ENDBRANCH   9  10
BRANCH   4  15
ATOM     15  O   UNL     1      -5.124  12.945  23.649  0.00  0.00    +0.000 OA
BRANCH  15  17
ATOM     16  C   UNL     1      -7.465  13.359  24.202  0.00  0.00    +0.000 C 
ATOM     17  C   UNL     1      -6.480  12.822  23.185  0.00  0.00    +0.000 C 
ENDBRANCH  15  17
ENDBRANCH   4  15
BRANCH   7  18
ATOM     18  O   UNL     1      -1.298  14.595  19.958  0.00  0.00    +0.000 OA
BRANCH  18  19
ATOM     19  C   UNL     1      -0.879  15.958  19.897  0.00  0.00    +0.000 C 
ATOM     20  C   UNL     1       0.614  15.994  20.172  0.00  0.00    +0.000 C 
ENDBRANCH  18  19
ENDBRANCH   7  18
ENDBRANCH   1   6
BRANCH   1  21
ATOM     21  N   UNL     1      -0.620  11.506  19.674  0.00  0.00    +0.000 NA
BRANCH  21  22
ATOM     22  C   UNL     1       0.824  11.326  19.288  0.00  0.00    +0.000 C 
BRANCH  22  23
ATOM     23  C   UNL     1       1.317   9.898  19.110  0.00  0.00    +0.000 A 
ATOM     24  C   UNL     1       1.795   9.450  17.875  0.00  0.00    +0.000 A 
ATOM     25  C   UNL     1       2.308   8.155  17.744  0.00  0.00    +0.000 A 
ATOM     26  C   UNL     1       2.348   7.298  18.843  0.00  0.00    +0.000 A 
ATOM     27  C   UNL     1       1.863   7.728  20.074  0.00  0.00    +0.000 A 
ATOM     28  C   UNL     1       1.351   9.021  20.209  0.00  0.00    +0.000 A 
ENDBRANCH  22  23
ENDBRANCH  21  22
BRANCH  21  29
ATOM     29  C   UNL     1      -1.433  10.295  19.320  0.00  0.00    +0.000 C 
BRANCH  29  30
ATOM     30  C   UNL     1      -2.309  10.460  18.098  0.00  0.00    +0.000 A 
ATOM     31  C   UNL     1      -1.958   9.877  16.871  0.00  0.00    +0.000 A 
ATOM     32  C   UNL     1      -2.708  10.148  15.725  0.00  0.00    +0.000 A 
ATOM     33  C   UNL     1      -3.814  10.994  15.793  0.00  0.00    +0.000 A 
ATOM     34  C   UNL     1      -4.194  11.546  17.013  0.00  0.00    +0.000 A 
ATOM     35  C   UNL     1      -3.455  11.268  18.163  0.00  0.00    +0.000 A 
ENDBRANCH  29  30
ENDBRANCH  21  29
ENDBRANCH   1  21
TORSDOF 11
ENDMDL
