MODEL 1
REMARK VINA RESULT:      -7.6      0.000      0.000
REMARK  Name = 
REMARK  6 active torsions:
REMARK  status: ('A' for Active; 'I' for Inactive)
REMARK    1  A    between atoms: C_1  and  C_2
REMARK    2  A    between atoms: C_4  and  O_5
REMARK    3  A    between atoms: C_8  and  C_9
REMARK    4  A    between atoms: C_9  and  C_10
REMARK    5  A    between atoms: C_10  and  C_11
REMARK    6  A    between atoms: C_17  and  O_18
REMARK                            x       y       z     vdW  Elec       q    Type
REMARK                         _______ _______ _______ _____ _____    ______ ____
ROOT
ATOM      1  C   UNL     1       3.115   4.581  19.127  0.00  0.00    +0.000 C 
ATOM      2  C   UNL     1       2.635   4.436  20.586  0.00  0.00    +0.000 C 
ATOM      3  C   UNL     1       1.880   5.708  20.994  0.00  0.00    +0.000 C 
ATOM      4  C   UNL     1       2.315   6.727  20.011  0.00  0.00    +0.000 A 
ATOM      5  C   UNL     1       1.622   7.933  19.829  0.00  0.00    +0.000 A 
ATOM      6  C   UNL     1       1.754   8.587  18.613  0.00  0.00    +0.000 A 
ATOM      7  C   UNL     1       2.626   8.098  17.640  0.00  0.00    +0.000 A 
ATOM      8  C   UNL     1       3.386   6.924  17.863  0.00  0.00    +0.000 A 
ATOM      9  C   UNL     1       3.202   6.185  19.055  0.00  0.00    +0.000 A 
ENDROOT
BRANCH   1  10
ATOM     10  C   UNL     1       2.023   4.551  18.070  0.00  0.00    +0.000 C 
ATOM     11  N   UNL     1       1.118   4.527  17.192  0.00  0.00    +0.000 NA
ENDBRANCH   1  10
BRANCH   6  12
ATOM     12  O   UNL     1       0.955   9.651  18.295  0.00  0.00    +0.000 OA
ATOM     13  H   UNL     1       0.345   9.823  19.032  0.00  0.00    +0.000 HD
ENDBRANCH   6  12
BRANCH   1  14
ATOM     14  C   UNL     1       4.316   3.682  18.770  0.00  0.00    +0.000 C 
BRANCH  14  21
ATOM     15  C   UNL     1       6.834   5.432  19.275  0.00  0.00    +0.000 C 
ATOM     16  C   UNL     1       6.410   4.977  17.906  0.00  0.00    +0.000 A 
ATOM     17  C   UNL     1       7.227   5.395  16.833  0.00  0.00    +0.000 A 
ATOM     18  C   UNL     1       6.959   5.006  15.530  0.00  0.00    +0.000 A 
ATOM     19  C   UNL     1       5.864   4.197  15.270  0.00  0.00    +0.000 A 
ATOM     20  C   UNL     1       5.017   3.801  16.318  0.00  0.00    +0.000 A 
ATOM     21  C   UNL     1       5.260   4.183  17.660  0.00  0.00    +0.000 A 
BRANCH  18  22
ATOM     22  O   UNL     1       7.759   5.388  14.493  0.00  0.00    +0.000 OA
ATOM     23  H   UNL     1       7.235   5.386  13.674  0.00  0.00    +0.000 HD
ENDBRANCH  18  22
ENDBRANCH  14  21
ENDBRANCH   1  14
TORSDOF 5
ENDMDL
MODEL 2
REMARK VINA RESULT:      -7.2      2.932      4.283
REMARK  Name = 
REMARK  6 active torsions:
REMARK  status: ('A' for Active; 'I' for Inactive)
REMARK    1  A    between atoms: C_1  and  C_2
REMARK    2  A    between atoms: C_4  and  O_5
REMARK    3  A    between atoms: C_8  and  C_9
REMARK    4  A    between atoms: C_9  and  C_10
REMARK    5  A    between atoms: C_10  and  C_11
REMARK    6  A    between atoms: C_17  and  O_18
REMARK                            x       y       z     vdW  Elec       q    Type
REMARK                         _______ _______ _______ _____ _____    ______ ____
ROOT
ATOM      1  C   UNL     1       3.567   3.989  17.942  0.00  0.00    +0.000 C 
ATOM      2  C   UNL     1       2.374   3.813  16.979  0.00  0.00    +0.000 C 
ATOM      3  C   UNL     1       1.155   3.329  17.776  0.00  0.00    +0.000 C 
ATOM      4  C   UNL     1       1.725   2.784  19.029  0.00  0.00    +0.000 A 
ATOM      5  C   UNL     1       0.938   2.537  20.163  0.00  0.00    +0.000 A 
ATOM      6  C   UNL     1       1.561   2.516  21.402  0.00  0.00    +0.000 A 
ATOM      7  C   UNL     1       2.947   2.648  21.497  0.00  0.00    +0.000 A 
ATOM      8  C   UNL     1       3.746   2.815  20.340  0.00  0.00    +0.000 A 
ATOM      9  C   UNL     1       3.130   2.932  19.072  0.00  0.00    +0.000 A 
ENDROOT
BRANCH   1  10
ATOM     10  C   UNL     1       3.456   5.146  18.922  0.00  0.00    +0.000 C 
ATOM     11  N   UNL     1       3.363   6.105  19.735  0.00  0.00    +0.000 NA
ENDBRANCH   1  10
BRANCH   6  12
ATOM     12  O   UNL     1       0.829   2.485  22.558  0.00  0.00    +0.000 OA
ATOM     13  H   UNL     1       1.068   3.250  23.108  0.00  0.00    +0.000 HD
ENDBRANCH   6  12
BRANCH   1  14
ATOM     14  C   UNL     1       4.945   3.922  17.252  0.00  0.00    +0.000 C 
BRANCH  14  21
ATOM     15  C   UNL     1       5.169   6.641  15.763  0.00  0.00    +0.000 C 
ATOM     16  C   UNL     1       6.047   6.265  16.924  0.00  0.00    +0.000 A 
ATOM     17  C   UNL     1       7.004   7.226  17.315  0.00  0.00    +0.000 A 
ATOM     18  C   UNL     1       7.843   7.008  18.397  0.00  0.00    +0.000 A 
ATOM     19  C   UNL     1       7.749   5.822  19.107  0.00  0.00    +0.000 A 
ATOM     20  C   UNL     1       6.829   4.837  18.711  0.00  0.00    +0.000 A 
ATOM     21  C   UNL     1       5.959   5.025  17.609  0.00  0.00    +0.000 A 
BRANCH  18  22
ATOM     22  O   UNL     1       8.754   7.944  18.793  0.00  0.00    +0.000 OA
ATOM     23  H   UNL     1       8.299   8.621  19.323  0.00  0.00    +0.000 HD
ENDBRANCH  18  22
ENDBRANCH  14  21
ENDBRANCH   1  14
TORSDOF 5
ENDMDL
MODEL 3
REMARK VINA RESULT:      -7.0      2.667      5.640
REMARK  Name = 
REMARK  6 active torsions:
REMARK  status: ('A' for Active; 'I' for Inactive)
REMARK    1  A    between atoms: C_1  and  C_2
REMARK    2  A    between atoms: C_4  and  O_5
REMARK    3  A    between atoms: C_8  and  C_9
REMARK    4  A    between atoms: C_9  and  C_10
REMARK    5  A    between atoms: C_10  and  C_11
REMARK    6  A    between atoms: C_17  and  O_18
REMARK                            x       y       z     vdW  Elec       q    Type
REMARK                         _______ _______ _______ _____ _____    ______ ____
ROOT
ATOM      1  C   UNL     1       5.331   5.527  18.621  0.00  0.00    +0.000 C 
ATOM      2  C   UNL     1       6.760   5.746  19.161  0.00  0.00    +0.000 C 
ATOM      3  C   UNL     1       7.764   5.538  18.020  0.00  0.00    +0.000 C 
ATOM      4  C   UNL     1       7.013   4.766  17.003  0.00  0.00    +0.000 A 
ATOM      5  C   UNL     1       7.456   4.647  15.677  0.00  0.00    +0.000 A 
ATOM      6  C   UNL     1       6.518   4.367  14.695  0.00  0.00    +0.000 A 
ATOM      7  C   UNL     1       5.188   4.123  15.039  0.00  0.00    +0.000 A 
ATOM      8  C   UNL     1       4.763   4.164  16.390  0.00  0.00    +0.000 A 
ATOM      9  C   UNL     1       5.677   4.538  17.402  0.00  0.00    +0.000 A 
ENDROOT
BRANCH   1  10
ATOM     10  C   UNL     1       4.820   6.593  17.664  0.00  0.00    +0.000 C 
ATOM     11  N   UNL     1       4.397   7.477  16.871  0.00  0.00    +0.000 NA
ENDBRANCH   1  10
BRANCH   6  12
ATOM     12  O   UNL     1       6.844   4.438  13.368  0.00  0.00    +0.000 OA
ATOM     13  H   UNL     1       6.213   5.023  12.916  0.00  0.00    +0.000 HD
ENDBRANCH   6  12
BRANCH   1  14
ATOM     14  C   UNL     1       4.301   5.156  19.706  0.00  0.00    +0.000 C 
BRANCH  14  21
ATOM     15  C   UNL     1       4.567   2.098  20.188  0.00  0.00    +0.000 C 
ATOM     16  C   UNL     1       3.357   2.728  19.557  0.00  0.00    +0.000 A 
ATOM     17  C   UNL     1       2.323   1.844  19.179  0.00  0.00    +0.000 A 
ATOM     18  C   UNL     1       1.143   2.312  18.623  0.00  0.00    +0.000 A 
ATOM     19  C   UNL     1       0.974   3.673  18.424  0.00  0.00    +0.000 A 
ATOM     20  C   UNL     1       2.005   4.566  18.758  0.00  0.00    +0.000 A 
ATOM     21  C   UNL     1       3.225   4.122  19.325  0.00  0.00    +0.000 A 
BRANCH  18  22
ATOM     22  O   UNL     1       0.131   1.463  18.278  0.00  0.00    +0.000 OA
ATOM     23  H   UNL     1      -0.441   1.904  17.628  0.00  0.00    +0.000 HD
ENDBRANCH  18  22
ENDBRANCH  14  21
ENDBRANCH   1  14
TORSDOF 5
ENDMDL
MODEL 4
REMARK VINA RESULT:      -6.7      3.030      4.254
REMARK  Name = 
REMARK  6 active torsions:
REMARK  status: ('A' for Active; 'I' for Inactive)
REMARK    1  A    between atoms: C_1  and  C_2
REMARK    2  A    between atoms: C_4  and  O_5
REMARK    3  A    between atoms: C_8  and  C_9
REMARK    4  A    between atoms: C_9  and  C_10
REMARK    5  A    between atoms: C_10  and  C_11
REMARK    6  A    between atoms: C_17  and  O_18
REMARK                            x       y       z     vdW  Elec       q    Type
REMARK                         _______ _______ _______ _____ _____    ______ ____
ROOT
ATOM      1  C   UNL     1       4.978   4.290  18.888  0.00  0.00    +0.000 C 
ATOM      2  C   UNL     1       4.520   5.580  19.598  0.00  0.00    +0.000 C 
ATOM      3  C   UNL     1       3.009   5.500  19.857  0.00  0.00    +0.000 C 
ATOM      4  C   UNL     1       2.530   4.455  18.922  0.00  0.00    +0.000 A 
ATOM      5  C   UNL     1       1.273   3.847  19.062  0.00  0.00    +0.000 A 
ATOM      6  C   UNL     1       1.089   2.589  18.510  0.00  0.00    +0.000 A 
ATOM      7  C   UNL     1       2.103   1.993  17.759  0.00  0.00    +0.000 A 
ATOM      8  C   UNL     1       3.341   2.648  17.552  0.00  0.00    +0.000 A 
ATOM      9  C   UNL     1       3.591   3.891  18.180  0.00  0.00    +0.000 A 
ENDROOT
BRANCH   1  10
ATOM     10  C   UNL     1       4.956   3.029  19.737  0.00  0.00    +0.000 C 
ATOM     11  N   UNL     1       4.938   1.983  20.441  0.00  0.00    +0.000 NA
ENDBRANCH   1  10
BRANCH   6  12
ATOM     12  O   UNL     1      -0.036   1.858  18.781  0.00  0.00    +0.000 OA
ATOM     13  H   UNL     1      -0.217   1.895  19.735  0.00  0.00    +0.000 HD
ENDBRANCH   6  12
BRANCH   1  14
ATOM     14  C   UNL     1       6.287   4.446  18.087  0.00  0.00    +0.000 C 
BRANCH  14  21
ATOM     15  C   UNL     1       5.290   6.646  16.131  0.00  0.00    +0.000 C 
ATOM     16  C   UNL     1       6.417   6.860  17.103  0.00  0.00    +0.000 A 
ATOM     17  C   UNL     1       7.019   8.137  17.084  0.00  0.00    +0.000 A 
ATOM     18  C   UNL     1       8.041   8.464  17.961  0.00  0.00    +0.000 A 
ATOM     19  C   UNL     1       8.489   7.520  18.871  0.00  0.00    +0.000 A 
ATOM     20  C   UNL     1       7.930   6.232  18.881  0.00  0.00    +0.000 A 
ATOM     21  C   UNL     1       6.886   5.863  17.997  0.00  0.00    +0.000 A 
BRANCH  18  22
ATOM     22  O   UNL     1       8.610   9.705  17.961  0.00  0.00    +0.000 OA
ATOM     23  H   UNL     1       7.905  10.374  17.921  0.00  0.00    +0.000 HD
ENDBRANCH  18  22
ENDBRANCH  14  21
ENDBRANCH   1  14
TORSDOF 5
ENDMDL
MODEL 5
REMARK VINA RESULT:      -6.6      1.676      5.728
REMARK  Name = 
REMARK  6 active torsions:
REMARK  status: ('A' for Active; 'I' for Inactive)
REMARK    1  A    between atoms: C_1  and  C_2
REMARK    2  A    between atoms: C_4  and  O_5
REMARK    3  A    between atoms: C_8  and  C_9
REMARK    4  A    between atoms: C_9  and  C_10
REMARK    5  A    between atoms: C_10  and  C_11
REMARK    6  A    between atoms: C_17  and  O_18
REMARK                            x       y       z     vdW  Elec       q    Type
REMARK                         _______ _______ _______ _____ _____    ______ ____
ROOT
ATOM      1  C   UNL     1       3.048   4.901  19.058  0.00  0.00    +0.000 C 
ATOM      2  C   UNL     1       2.323   4.484  17.760  0.00  0.00    +0.000 C 
ATOM      3  C   UNL     1       3.368   4.095  16.707  0.00  0.00    +0.000 C 
ATOM      4  C   UNL     1       4.626   4.713  17.187  0.00  0.00    +0.000 A 
ATOM      5  C   UNL     1       5.882   4.334  16.692  0.00  0.00    +0.000 A 
ATOM      6  C   UNL     1       6.995   4.556  17.489  0.00  0.00    +0.000 A 
ATOM      7  C   UNL     1       6.868   5.221  18.709  0.00  0.00    +0.000 A 
ATOM      8  C   UNL     1       5.606   5.675  19.165  0.00  0.00    +0.000 A 
ATOM      9  C   UNL     1       4.442   5.382  18.418  0.00  0.00    +0.000 A 
ENDROOT
BRANCH   1  10
ATOM     10  C   UNL     1       3.735   3.777  19.817  0.00  0.00    +0.000 C 
ATOM     11  N   UNL     1       4.304   2.846  20.447  0.00  0.00    +0.000 NA
ENDBRANCH   1  10
BRANCH   6  12
ATOM     12  O   UNL     1       8.215   4.031  17.158  0.00  0.00    +0.000 OA
ATOM     13  H   UNL     1       8.211   3.784  16.218  0.00  0.00    +0.000 HD
ENDBRANCH   6  12
BRANCH   1  14
ATOM     14  C   UNL     1       2.212   5.817  19.975  0.00  0.00    +0.000 C 
BRANCH  14  21
ATOM     15  C   UNL     1       0.917   8.054  21.701  0.00  0.00    +0.000 C 
ATOM     16  C   UNL     1       1.365   8.266  20.281  0.00  0.00    +0.000 A 
ATOM     17  C   UNL     1       1.162   9.560  19.753  0.00  0.00    +0.000 A 
ATOM     18  C   UNL     1       1.569   9.885  18.469  0.00  0.00    +0.000 A 
ATOM     19  C   UNL     1       2.181   8.924  17.682  0.00  0.00    +0.000 A 
ATOM     20  C   UNL     1       2.359   7.620  18.174  0.00  0.00    +0.000 A 
ATOM     21  C   UNL     1       1.951   7.252  19.480  0.00  0.00    +0.000 A 
BRANCH  18  22
ATOM     22  O   UNL     1       1.396  11.141  17.963  0.00  0.00    +0.000 OA
ATOM     23  H   UNL     1       0.462  11.393  18.060  0.00  0.00    +0.000 HD
ENDBRANCH  18  22
ENDBRANCH  14  21
ENDBRANCH   1  14
TORSDOF 5
ENDMDL
MODEL 6
REMARK VINA RESULT:      -6.6      2.566      3.499
REMARK  Name = 
REMARK  6 active torsions:
REMARK  status: ('A' for Active; 'I' for Inactive)
REMARK    1  A    between atoms: C_1  and  C_2
REMARK    2  A    between atoms: C_4  and  O_5
REMARK    3  A    between atoms: C_8  and  C_9
REMARK    4  A    between atoms: C_9  and  C_10
REMARK    5  A    between atoms: C_10  and  C_11
REMARK    6  A    between atoms: C_17  and  O_18
REMARK                            x       y       z     vdW  Elec       q    Type
REMARK                         _______ _______ _______ _____ _____    ______ ____
ROOT
ATOM      1  C   UNL     1       3.695   5.901  18.644  0.00  0.00    +0.000 C 
ATOM      2  C   UNL     1       2.928   6.648  19.755  0.00  0.00    +0.000 C 
ATOM      3  C   UNL     1       1.870   5.709  20.351  0.00  0.00    +0.000 C 
ATOM      4  C   UNL     1       1.696   4.653  19.327  0.00  0.00    +0.000 A 
ATOM      5  C   UNL     1       1.065   3.433  19.612  0.00  0.00    +0.000 A 
ATOM      6  C   UNL     1       1.365   2.337  18.816  0.00  0.00    +0.000 A 
ATOM      7  C   UNL     1       2.203   2.479  17.709  0.00  0.00    +0.000 A 
ATOM      8  C   UNL     1       2.772   3.732  17.379  0.00  0.00    +0.000 A 
ATOM      9  C   UNL     1       2.558   4.846  18.225  0.00  0.00    +0.000 A 
ENDROOT
BRANCH   1  10
ATOM     10  C   UNL     1       4.615   4.787  19.116  0.00  0.00    +0.000 C 
ATOM     11  N   UNL     1       5.378   3.862  19.507  0.00  0.00    +0.000 NA
ENDBRANCH   1  10
BRANCH   6  12
ATOM     12  O   UNL     1       0.946   1.081  19.159  0.00  0.00    +0.000 OA
ATOM     13  H   UNL     1       0.175   0.843  18.618  0.00  0.00    +0.000 HD
ENDBRANCH   6  12
BRANCH   1  14
ATOM     14  C   UNL     1       4.366   6.831  17.613  0.00  0.00    +0.000 C 
BRANCH  14  21
ATOM     15  C   UNL     1       7.459   6.710  17.886  0.00  0.00    +0.000 C 
ATOM     16  C   UNL     1       6.713   6.118  16.722  0.00  0.00    +0.000 A 
ATOM     17  C   UNL     1       7.502   5.492  15.733  0.00  0.00    +0.000 A 
ATOM     18  C   UNL     1       6.923   4.877  14.633  0.00  0.00    +0.000 A 
ATOM     19  C   UNL     1       5.545   4.881  14.495  0.00  0.00    +0.000 A 
ATOM     20  C   UNL     1       4.744   5.531  15.449  0.00  0.00    +0.000 A 
ATOM     21  C   UNL     1       5.302   6.172  16.582  0.00  0.00    +0.000 A 
BRANCH  18  22
ATOM     22  O   UNL     1       7.681   4.251  13.686  0.00  0.00    +0.000 OA
ATOM     23  H   UNL     1       7.360   4.509  12.806  0.00  0.00    +0.000 HD
ENDBRANCH  18  22
ENDBRANCH  14  21
ENDBRANCH   1  14
TORSDOF 5
ENDMDL
MODEL 7
REMARK VINA RESULT:      -6.6      2.595      4.009
REMARK  Name = 
REMARK  6 active torsions:
REMARK  status: ('A' for Active; 'I' for Inactive)
REMARK    1  A    between atoms: C_1  and  C_2
REMARK    2  A    between atoms: C_4  and  O_5
REMARK    3  A    between atoms: C_8  and  C_9
REMARK    4  A    between atoms: C_9  and  C_10
REMARK    5  A    between atoms: C_10  and  C_11
REMARK    6  A    between atoms: C_17  and  O_18
REMARK                            x       y       z     vdW  Elec       q    Type
REMARK                         _______ _______ _______ _____ _____    ______ ____
ROOT
ATOM      1  C   UNL     1       3.739   3.360  17.390  0.00  0.00    +0.000 C 
ATOM      2  C   UNL     1       4.084   1.858  17.299  0.00  0.00    +0.000 C 
ATOM      3  C   UNL     1       3.673   1.170  18.607  0.00  0.00    +0.000 C 
ATOM      4  C   UNL     1       3.551   2.276  19.584  0.00  0.00    +0.000 A 
ATOM      5  C   UNL     1       2.884   2.122  20.809  0.00  0.00    +0.000 A 
ATOM      6  C   UNL     1       2.377   3.255  21.427  0.00  0.00    +0.000 A 
ATOM      7  C   UNL     1       2.608   4.519  20.882  0.00  0.00    +0.000 A 
ATOM      8  C   UNL     1       3.353   4.674  19.687  0.00  0.00    +0.000 A 
ATOM      9  C   UNL     1       3.803   3.531  18.987  0.00  0.00    +0.000 A 
ENDROOT
BRANCH   1  10
ATOM     10  C   UNL     1       2.256   3.695  17.371  0.00  0.00    +0.000 C 
ATOM     11  N   UNL     1       1.026   3.972  17.356  0.00  0.00    +0.000 NA
ENDBRANCH   1  10
BRANCH   6  12
ATOM     12  O   UNL     1       1.546   3.155  22.510  0.00  0.00    +0.000 OA
ATOM     13  H   UNL     1       1.796   2.375  23.032  0.00  0.00    +0.000 HD
ENDBRANCH   6  12
BRANCH   1  14
ATOM     14  C   UNL     1       4.564   4.251  16.439  0.00  0.00    +0.000 C 
BRANCH  14  21
ATOM     15  C   UNL     1       4.262   7.323  16.797  0.00  0.00    +0.000 C 
ATOM     16  C   UNL     1       5.477   6.559  17.244  0.00  0.00    +0.000 A 
ATOM     17  C   UNL     1       6.502   7.321  17.846  0.00  0.00    +0.000 A 
ATOM     18  C   UNL     1       7.653   6.721  18.333  0.00  0.00    +0.000 A 
ATOM     19  C   UNL     1       7.808   5.349  18.222  0.00  0.00    +0.000 A 
ATOM     20  C   UNL     1       6.817   4.578  17.593  0.00  0.00    +0.000 A 
ATOM     21  C   UNL     1       5.631   5.158  17.081  0.00  0.00    +0.000 A 
BRANCH  18  22
ATOM     22  O   UNL     1       8.636   7.451  18.937  0.00  0.00    +0.000 OA
ATOM     23  H   UNL     1       8.289   8.336  19.142  0.00  0.00    +0.000 HD
ENDBRANCH  18  22
ENDBRANCH  14  21
ENDBRANCH   1  14
TORSDOF 5
ENDMDL
MODEL 8
REMARK VINA RESULT:      -6.6      2.420      5.644
REMARK  Name = 
REMARK  6 active torsions:
REMARK  status: ('A' for Active; 'I' for Inactive)
REMARK    1  A    between atoms: C_1  and  C_2
REMARK    2  A    between atoms: C_4  and  O_5
REMARK    3  A    between atoms: C_8  and  C_9
REMARK    4  A    between atoms: C_9  and  C_10
REMARK    5  A    between atoms: C_10  and  C_11
REMARK    6  A    between atoms: C_17  and  O_18
REMARK                            x       y       z     vdW  Elec       q    Type
REMARK                         _______ _______ _______ _____ _____    ______ ____
ROOT
ATOM      1  C   UNL     1       5.539   5.170  18.858  0.00  0.00    +0.000 C 
ATOM      2  C   UNL     1       6.902   5.732  19.312  0.00  0.00    +0.000 C 
ATOM      3  C   UNL     1       7.820   5.870  18.090  0.00  0.00    +0.000 C 
ATOM      4  C   UNL     1       7.210   4.988  17.069  0.00  0.00    +0.000 A 
ATOM      5  C   UNL     1       7.548   5.072  15.710  0.00  0.00    +0.000 A 
ATOM      6  C   UNL     1       6.632   4.610  14.776  0.00  0.00    +0.000 A 
ATOM      7  C   UNL     1       5.449   3.998  15.192  0.00  0.00    +0.000 A 
ATOM      8  C   UNL     1       5.152   3.841  16.568  0.00  0.00    +0.000 A 
ATOM      9  C   UNL     1       6.023   4.385  17.541  0.00  0.00    +0.000 A 
ENDROOT
BRANCH   1  10
ATOM     10  C   UNL     1       4.682   6.115  18.030  0.00  0.00    +0.000 C 
ATOM     11  N   UNL     1       3.971   6.898  17.344  0.00  0.00    +0.000 NA
ENDBRANCH   1  10
BRANCH   6  12
ATOM     12  O   UNL     1       6.808   4.846  13.440  0.00  0.00    +0.000 OA
ATOM     13  H   UNL     1       7.541   4.298  13.113  0.00  0.00    +0.000 HD
ENDBRANCH   6  12
BRANCH   1  14
ATOM     14  C   UNL     1       4.744   4.471  19.979  0.00  0.00    +0.000 C 
BRANCH  14  21
ATOM     15  C   UNL     1       1.892   5.631  20.406  0.00  0.00    +0.000 C 
ATOM     16  C   UNL     1       2.149   4.295  19.765  0.00  0.00    +0.000 A 
ATOM     17  C   UNL     1       1.006   3.572  19.360  0.00  0.00    +0.000 A 
ATOM     18  C   UNL     1       1.119   2.346  18.723  0.00  0.00    +0.000 A 
ATOM     19  C   UNL     1       2.375   1.812  18.485  0.00  0.00    +0.000 A 
ATOM     20  C   UNL     1       3.524   2.498  18.914  0.00  0.00    +0.000 A 
ATOM     21  C   UNL     1       3.445   3.751  19.570  0.00  0.00    +0.000 A 
BRANCH  18  22
ATOM     22  O   UNL     1       0.018   1.654  18.308  0.00  0.00    +0.000 OA
ATOM     23  H   UNL     1      -0.242   1.975  17.429  0.00  0.00    +0.000 HD
ENDBRANCH  18  22
ENDBRANCH  14  21
ENDBRANCH   1  14
TORSDOF 5
ENDMDL
MODEL 9
REMARK VINA RESULT:      -6.5      2.964      6.608
REMARK  Name = 
REMARK  6 active torsions:
REMARK  status: ('A' for Active; 'I' for Inactive)
REMARK    1  A    between atoms: C_1  and  C_2
REMARK    2  A    between atoms: C_4  and  O_5
REMARK    3  A    between atoms: C_8  and  C_9
REMARK    4  A    between atoms: C_9  and  C_10
REMARK    5  A    between atoms: C_10  and  C_11
REMARK    6  A    between atoms: C_17  and  O_18
REMARK                            x       y       z     vdW  Elec       q    Type
REMARK                         _______ _______ _______ _____ _____    ______ ____
ROOT
ATOM      1  C   UNL     1       2.532   5.819  19.468  0.00  0.00    +0.000 C 
ATOM      2  C   UNL     1       1.715   5.447  20.723  0.00  0.00    +0.000 C 
ATOM      3  C   UNL     1       1.733   3.923  20.898  0.00  0.00    +0.000 C 
ATOM      4  C   UNL     1       2.115   3.402  19.566  0.00  0.00    +0.000 A 
ATOM      5  C   UNL     1       2.560   2.085  19.377  0.00  0.00    +0.000 A 
ATOM      6  C   UNL     1       3.350   1.812  18.271  0.00  0.00    +0.000 A 
ATOM      7  C   UNL     1       3.614   2.807  17.329  0.00  0.00    +0.000 A 
ATOM      8  C   UNL     1       3.093   4.115  17.483  0.00  0.00    +0.000 A 
ATOM      9  C   UNL     1       2.362   4.447  18.648  0.00  0.00    +0.000 A 
ENDROOT
BRANCH   1  10
ATOM     10  C   UNL     1       4.034   5.617  19.578  0.00  0.00    +0.000 C 
ATOM     11  N   UNL     1       5.281   5.449  19.669  0.00  0.00    +0.000 NA
ENDBRANCH   1  10
BRANCH   6  12
ATOM     12  O   UNL     1       3.981   0.605  18.136  0.00  0.00    +0.000 OA
ATOM     13  H   UNL     1       4.529   0.442  18.922  0.00  0.00    +0.000 HD
ENDBRANCH   6  12
BRANCH   1  14
ATOM     14  C   UNL     1       2.157   7.186  18.859  0.00  0.00    +0.000 C 
BRANCH  14  21
ATOM     15  C   UNL     1       0.740   9.798  17.948  0.00  0.00    +0.000 C 
ATOM     16  C   UNL     1       0.950   9.437  19.393  0.00  0.00    +0.000 A 
ATOM     17  C   UNL     1       0.465  10.365  20.341  0.00  0.00    +0.000 A 
ATOM     18  C   UNL     1       0.567  10.122  21.702  0.00  0.00    +0.000 A 
ATOM     19  C   UNL     1       1.162   8.953  22.145  0.00  0.00    +0.000 A 
ATOM     20  C   UNL     1       1.684   8.034  21.220  0.00  0.00    +0.000 A 
ATOM     21  C   UNL     1       1.601   8.252  19.822  0.00  0.00    +0.000 A 
BRANCH  18  22
ATOM     22  O   UNL     1       0.078  11.005  22.621  0.00  0.00    +0.000 OA
ATOM     23  H   UNL     1      -0.887  10.898  22.678  0.00  0.00    +0.000 HD
ENDBRANCH  18  22
ENDBRANCH  14  21
ENDBRANCH   1  14
TORSDOF 5
ENDMDL
