MODEL 1
REMARK VINA RESULT:      -8.7      0.000      0.000
REMARK  Name = 
REMARK  13 active torsions:
REMARK  status: ('A' for Active; 'I' for Inactive)
REMARK    1  A    between atoms: C_1  and  O_2
REMARK    2  A    between atoms: O_2  and  C_3
REMARK    3  A    between atoms: C_6  and  C_7
REMARK    4  A    between atoms: C_7  and  C_8
REMARK    5  A    between atoms: C_8  and  O_9
REMARK    6  A    between atoms: C_8  and  C_26
REMARK    7  A    between atoms: O_9  and  C_10
REMARK    8  A    between atoms: C_10  and  C_12
REMARK    9  A    between atoms: C_13  and  C_14
REMARK   10  A    between atoms: C_17  and  C_18
REMARK   11  A    between atoms: N_28  and  O_29
REMARK   12  A    between atoms: C_31  and  O_32
REMARK   13  A    between atoms: O_32  and  C_33
REMARK                            x       y       z     vdW  Elec       q    Type
REMARK                         _______ _______ _______ _____ _____    ______ ____
ROOT
ATOM      1  C   UNL     1       2.962   3.066  18.790  0.00  0.00    +0.000 C 
ENDROOT
BRANCH   1   2
ATOM      2  C   UNL     1       3.874   1.859  19.047  0.00  0.00    +0.000 C 
ATOM      3  O   UNL     1       3.832   0.809  18.406  0.00  0.00    +0.000 OA
ATOM      4  N   UNL     1       4.750   2.000  20.097  0.00  0.00    +0.000 N 
ATOM      5  H   UNL     1       4.765   2.764  20.765  0.00  0.00    +0.000 HD
BRANCH   4   6
ATOM      6  O   UNL     1       5.563   0.882  20.383  0.00  0.00    +0.000 OA
ATOM      7  H   UNL     1       6.019   0.728  19.524  0.00  0.00    +0.000 HD
ENDBRANCH   4   6
ENDBRANCH   1   2
BRANCH   1   8
ATOM      8  C   UNL     1       3.061   3.507  17.315  0.00  0.00    +0.000 C 
BRANCH   8  12
ATOM      9  C   UNL     1       6.248   6.357  16.851  0.00  0.00    +0.000 A 
ATOM     10  C   UNL     1       5.513   6.296  18.047  0.00  0.00    +0.000 A 
ATOM     11  C   UNL     1       4.450   5.410  18.190  0.00  0.00    +0.000 A 
ATOM     12  C   UNL     1       4.071   4.605  17.120  0.00  0.00    +0.000 A 
ATOM     13  C   UNL     1       4.694   4.788  15.881  0.00  0.00    +0.000 A 
ATOM     14  C   UNL     1       5.793   5.647  15.732  0.00  0.00    +0.000 A 
BRANCH   9  16
ATOM     15  C   UNL     1       7.944   7.452  18.059  0.00  0.00    +0.000 C 
ATOM     16  O   UNL     1       7.393   7.106  16.783  0.00  0.00    +0.000 OA
ENDBRANCH   9  16
BRANCH  14  17
ATOM     17  O   UNL     1       6.286   5.611  14.457  0.00  0.00    +0.000 OA
ATOM     18  C   UNL     1       7.368   4.751  14.148  0.00  0.00    +0.000 C 
ENDBRANCH  14  17
ENDBRANCH   8  12
ENDBRANCH   1   8
BRANCH   1  19
ATOM     19  O   UNL     1       1.648   2.793  19.329  0.00  0.00    +0.000 OA
BRANCH  19  20
ATOM     20  C   UNL     1       1.357   3.220  20.580  0.00  0.00    +0.000 C 
ATOM     21  O   UNL     1       1.504   2.593  21.613  0.00  0.00    +0.000 OA
BRANCH  20  22
ATOM     22  C   UNL     1       0.957   4.642  20.502  0.00  0.00    +0.000 C 
ATOM     23  C   UNL     1       1.853   5.597  20.798  0.00  0.00    +0.000 C 
BRANCH  23  24
ATOM     24  C   UNL     1       1.700   7.006  20.410  0.00  0.00    +0.000 A 
ATOM     25  C   UNL     1       2.023   7.414  19.116  0.00  0.00    +0.000 A 
ATOM     26  C   UNL     1       1.717   8.713  18.678  0.00  0.00    +0.000 A 
ATOM     27  C   UNL     1       1.049   9.637  19.506  0.00  0.00    +0.000 A 
ATOM     28  C   UNL     1       0.749   9.211  20.811  0.00  0.00    +0.000 A 
ATOM     29  C   UNL     1       1.068   7.922  21.257  0.00  0.00    +0.000 A 
BRANCH  27  30
ATOM     30  C   UNL     1       0.639  10.980  19.017  0.00  0.00    +0.000 A 
ATOM     31  C   UNL     1      -0.704  11.273  18.715  0.00  0.00    +0.000 A 
ATOM     32  C   UNL     1      -1.097  12.541  18.272  0.00  0.00    +0.000 A 
ATOM     33  C   UNL     1      -0.153  13.554  18.135  0.00  0.00    +0.000 A 
ATOM     34  C   UNL     1       1.177  13.296  18.427  0.00  0.00    +0.000 A 
ATOM     35  C   UNL     1       1.571  12.026  18.862  0.00  0.00    +0.000 A 
ENDBRANCH  27  30
ENDBRANCH  23  24
ENDBRANCH  20  22
ENDBRANCH  19  20
ENDBRANCH   1  19
TORSDOF 11
ENDMDL
MODEL 2
REMARK VINA RESULT:      -8.3      0.829      1.461
REMARK  Name = 
REMARK  13 active torsions:
REMARK  status: ('A' for Active; 'I' for Inactive)
REMARK    1  A    between atoms: C_1  and  O_2
REMARK    2  A    between atoms: O_2  and  C_3
REMARK    3  A    between atoms: C_6  and  C_7
REMARK    4  A    between atoms: C_7  and  C_8
REMARK    5  A    between atoms: C_8  and  O_9
REMARK    6  A    between atoms: C_8  and  C_26
REMARK    7  A    between atoms: O_9  and  C_10
REMARK    8  A    between atoms: C_10  and  C_12
REMARK    9  A    between atoms: C_13  and  C_14
REMARK   10  A    between atoms: C_17  and  C_18
REMARK   11  A    between atoms: N_28  and  O_29
REMARK   12  A    between atoms: C_31  and  O_32
REMARK   13  A    between atoms: O_32  and  C_33
REMARK                            x       y       z     vdW  Elec       q    Type
REMARK                         _______ _______ _______ _____ _____    ______ ____
ROOT
ATOM      1  C   UNL     1       3.032   3.523  18.880  0.00  0.00    +0.000 C 
ENDROOT
BRANCH   1   2
ATOM      2  C   UNL     1       4.125   2.496  19.204  0.00  0.00    +0.000 C 
ATOM      3  O   UNL     1       5.174   2.761  19.791  0.00  0.00    +0.000 OA
ATOM      4  N   UNL     1       3.881   1.220  18.753  0.00  0.00    +0.000 N 
ATOM      5  H   UNL     1       3.119   0.935  18.147  0.00  0.00    +0.000 HD
BRANCH   4   6
ATOM      6  O   UNL     1       4.897   0.271  18.996  0.00  0.00    +0.000 OA
ATOM      7  H   UNL     1       5.523   0.436  18.255  0.00  0.00    +0.000 HD
ENDBRANCH   4   6
ENDBRANCH   1   2
BRANCH   1   8
ATOM      8  C   UNL     1       3.084   3.906  17.386  0.00  0.00    +0.000 C 
BRANCH   8  12
ATOM      9  C   UNL     1       6.490   6.448  16.731  0.00  0.00    +0.000 A 
ATOM     10  C   UNL     1       5.640   6.662  17.829  0.00  0.00    +0.000 A 
ATOM     11  C   UNL     1       4.510   5.875  18.023  0.00  0.00    +0.000 A 
ATOM     12  C   UNL     1       4.182   4.893  17.095  0.00  0.00    +0.000 A 
ATOM     13  C   UNL     1       4.933   4.796  15.919  0.00  0.00    +0.000 A 
ATOM     14  C   UNL     1       6.098   5.553  15.727  0.00  0.00    +0.000 A 
BRANCH   9  16
ATOM     15  C   UNL     1       7.996   7.911  17.792  0.00  0.00    +0.000 C 
ATOM     16  O   UNL     1       7.686   7.113  16.644  0.00  0.00    +0.000 OA
ENDBRANCH   9  16
BRANCH  14  17
ATOM     17  O   UNL     1       6.709   5.240  14.544  0.00  0.00    +0.000 OA
ATOM     18  C   UNL     1       6.517   3.957  13.975  0.00  0.00    +0.000 C 
ENDBRANCH  14  17
ENDBRANCH   8  12
ENDBRANCH   1   8
BRANCH   1  19
ATOM     19  O   UNL     1       1.772   3.063  19.418  0.00  0.00    +0.000 OA
BRANCH  19  20
ATOM     20  C   UNL     1       1.390   3.495  20.643  0.00  0.00    +0.000 C 
ATOM     21  O   UNL     1       1.545   2.908  21.699  0.00  0.00    +0.000 OA
BRANCH  20  22
ATOM     22  C   UNL     1       0.876   4.874  20.508  0.00  0.00    +0.000 C 
ATOM     23  C   UNL     1       1.694   5.911  20.747  0.00  0.00    +0.000 C 
BRANCH  23  24
ATOM     24  C   UNL     1       1.422   7.283  20.298  0.00  0.00    +0.000 A 
ATOM     25  C   UNL     1       0.902   8.221  21.189  0.00  0.00    +0.000 A 
ATOM     26  C   UNL     1       0.803   9.575  20.828  0.00  0.00    +0.000 A 
ATOM     27  C   UNL     1       1.251  10.043  19.577  0.00  0.00    +0.000 A 
ATOM     28  C   UNL     1       1.756   9.079  18.688  0.00  0.00    +0.000 A 
ATOM     29  C   UNL     1       1.840   7.726  19.038  0.00  0.00    +0.000 A 
BRANCH  27  30
ATOM     30  C   UNL     1       1.236  11.487  19.225  0.00  0.00    +0.000 A 
ATOM     31  C   UNL     1       2.251  12.062  18.437  0.00  0.00    +0.000 A 
ATOM     32  C   UNL     1       2.231  13.417  18.089  0.00  0.00    +0.000 A 
ATOM     33  C   UNL     1       1.182  14.229  18.510  0.00  0.00    +0.000 A 
ATOM     34  C   UNL     1       0.167  13.691  19.285  0.00  0.00    +0.000 A 
ATOM     35  C   UNL     1       0.192  12.338  19.640  0.00  0.00    +0.000 A 
ENDBRANCH  27  30
ENDBRANCH  23  24
ENDBRANCH  20  22
ENDBRANCH  19  20
ENDBRANCH   1  19
TORSDOF 11
ENDMDL
MODEL 3
REMARK VINA RESULT:      -8.2      0.861      1.216
REMARK  Name = 
REMARK  13 active torsions:
REMARK  status: ('A' for Active; 'I' for Inactive)
REMARK    1  A    between atoms: C_1  and  O_2
REMARK    2  A    between atoms: O_2  and  C_3
REMARK    3  A    between atoms: C_6  and  C_7
REMARK    4  A    between atoms: C_7  and  C_8
REMARK    5  A    between atoms: C_8  and  O_9
REMARK    6  A    between atoms: C_8  and  C_26
REMARK    7  A    between atoms: O_9  and  C_10
REMARK    8  A    between atoms: C_10  and  C_12
REMARK    9  A    between atoms: C_13  and  C_14
REMARK   10  A    between atoms: C_17  and  C_18
REMARK   11  A    between atoms: N_28  and  O_29
REMARK   12  A    between atoms: C_31  and  O_32
REMARK   13  A    between atoms: O_32  and  C_33
REMARK                            x       y       z     vdW  Elec       q    Type
REMARK                         _______ _______ _______ _____ _____    ______ ____
ROOT
ATOM      1  C   UNL     1       2.970   3.509  18.770  0.00  0.00    +0.000 C 
ENDROOT
BRANCH   1   2
ATOM      2  C   UNL     1       4.010   2.469  19.206  0.00  0.00    +0.000 C 
ATOM      3  O   UNL     1       4.997   2.722  19.898  0.00  0.00    +0.000 OA
ATOM      4  N   UNL     1       3.798   1.195  18.734  0.00  0.00    +0.000 N 
ATOM      5  H   UNL     1       3.099   0.918  18.052  0.00  0.00    +0.000 HD
BRANCH   4   6
ATOM      6  O   UNL     1       4.772   0.233  19.082  0.00  0.00    +0.000 OA
ATOM      7  H   UNL     1       5.345   0.730  19.709  0.00  0.00    +0.000 HD
ENDBRANCH   4   6
ENDBRANCH   1   2
BRANCH   1   8
ATOM      8  C   UNL     1       3.123   3.819  17.266  0.00  0.00    +0.000 C 
BRANCH   8  12
ATOM      9  C   UNL     1       6.117   6.883  16.885  0.00  0.00    +0.000 A 
ATOM     10  C   UNL     1       4.912   7.142  17.558  0.00  0.00    +0.000 A 
ATOM     11  C   UNL     1       3.918   6.173  17.646  0.00  0.00    +0.000 A 
ATOM     12  C   UNL     1       4.091   4.945  17.018  0.00  0.00    +0.000 A 
ATOM     13  C   UNL     1       5.216   4.751  16.209  0.00  0.00    +0.000 A 
ATOM     14  C   UNL     1       6.245   5.700  16.143  0.00  0.00    +0.000 A 
BRANCH   9  16
ATOM     15  C   UNL     1       8.003   7.607  18.090  0.00  0.00    +0.000 C 
ATOM     16  O   UNL     1       7.152   7.779  16.951  0.00  0.00    +0.000 OA
ENDBRANCH   9  16
BRANCH  14  17
ATOM     17  O   UNL     1       7.275   5.268  15.353  0.00  0.00    +0.000 OA
ATOM     18  C   UNL     1       6.994   4.702  14.086  0.00  0.00    +0.000 C 
ENDBRANCH  14  17
ENDBRANCH   8  12
ENDBRANCH   1   8
BRANCH   1  19
ATOM     19  O   UNL     1       1.667   3.108  19.250  0.00  0.00    +0.000 OA
BRANCH  19  20
ATOM     20  C   UNL     1       1.243   3.575  20.448  0.00  0.00    +0.000 C 
ATOM     21  O   UNL     1       1.272   2.978  21.510  0.00  0.00    +0.000 OA
BRANCH  20  22
ATOM     22  C   UNL     1       0.866   4.995  20.285  0.00  0.00    +0.000 C 
ATOM     23  C   UNL     1       1.521   5.937  20.981  0.00  0.00    +0.000 C 
BRANCH  23  24
ATOM     24  C   UNL     1       1.498   7.366  20.640  0.00  0.00    +0.000 A 
ATOM     25  C   UNL     1       1.604   7.770  19.310  0.00  0.00    +0.000 A 
ATOM     26  C   UNL     1       1.407   9.114  18.951  0.00  0.00    +0.000 A 
ATOM     27  C   UNL     1       1.065  10.093  19.905  0.00  0.00    +0.000 A 
ATOM     28  C   UNL     1       0.980   9.668  21.241  0.00  0.00    +0.000 A 
ATOM     29  C   UNL     1       1.194   8.332  21.605  0.00  0.00    +0.000 A 
BRANCH  27  30
ATOM     30  C   UNL     1       0.763  11.496  19.518  0.00  0.00    +0.000 A 
ATOM     31  C   UNL     1       1.698  12.285  18.823  0.00  0.00    +0.000 A 
ATOM     32  C   UNL     1       1.411  13.600  18.442  0.00  0.00    +0.000 A 
ATOM     33  C   UNL     1       0.169  14.155  18.735  0.00  0.00    +0.000 A 
ATOM     34  C   UNL     1      -0.774  13.402  19.417  0.00  0.00    +0.000 A 
ATOM     35  C   UNL     1      -0.483  12.090  19.805  0.00  0.00    +0.000 A 
ENDBRANCH  27  30
ENDBRANCH  23  24
ENDBRANCH  20  22
ENDBRANCH  19  20
ENDBRANCH   1  19
TORSDOF 11
ENDMDL
MODEL 4
REMARK VINA RESULT:      -8.2      2.189      5.343
REMARK  Name = 
REMARK  13 active torsions:
REMARK  status: ('A' for Active; 'I' for Inactive)
REMARK    1  A    between atoms: C_1  and  O_2
REMARK    2  A    between atoms: O_2  and  C_3
REMARK    3  A    between atoms: C_6  and  C_7
REMARK    4  A    between atoms: C_7  and  C_8
REMARK    5  A    between atoms: C_8  and  O_9
REMARK    6  A    between atoms: C_8  and  C_26
REMARK    7  A    between atoms: O_9  and  C_10
REMARK    8  A    between atoms: C_10  and  C_12
REMARK    9  A    between atoms: C_13  and  C_14
REMARK   10  A    between atoms: C_17  and  C_18
REMARK   11  A    between atoms: N_28  and  O_29
REMARK   12  A    between atoms: C_31  and  O_32
REMARK   13  A    between atoms: O_32  and  C_33
REMARK                            x       y       z     vdW  Elec       q    Type
REMARK                         _______ _______ _______ _____ _____    ______ ____
ROOT
ATOM      1  C   UNL     1       5.368   4.680  15.153  0.00  0.00    +0.000 C 
ENDROOT
BRANCH   1   2
ATOM      2  C   UNL     1       6.334   4.420  13.990  0.00  0.00    +0.000 C 
ATOM      3  O   UNL     1       6.326   3.404  13.294  0.00  0.00    +0.000 OA
ATOM      4  N   UNL     1       7.275   5.402  13.780  0.00  0.00    +0.000 N 
ATOM      5  H   UNL     1       7.449   6.201  14.379  0.00  0.00    +0.000 HD
BRANCH   4   6
ATOM      6  O   UNL     1       8.206   5.158  12.747  0.00  0.00    +0.000 OA
ATOM      7  H   UNL     1       8.136   5.975  12.202  0.00  0.00    +0.000 HD
ENDBRANCH   4   6
ENDBRANCH   1   2
BRANCH   1   8
ATOM      8  C   UNL     1       5.531   3.593  16.236  0.00  0.00    +0.000 C 
BRANCH   8  12
ATOM      9  C   UNL     1       2.171   3.167  18.886  0.00  0.00    +0.000 A 
ATOM     10  C   UNL     1       2.022   3.800  17.641  0.00  0.00    +0.000 A 
ATOM     11  C   UNL     1       3.112   3.985  16.797  0.00  0.00    +0.000 A 
ATOM     12  C   UNL     1       4.380   3.585  17.206  0.00  0.00    +0.000 A 
ATOM     13  C   UNL     1       4.552   3.111  18.510  0.00  0.00    +0.000 A 
ATOM     14  C   UNL     1       3.459   2.880  19.358  0.00  0.00    +0.000 A 
BRANCH   9  16
ATOM     15  C   UNL     1       0.794   3.746  20.703  0.00  0.00    +0.000 C 
ATOM     16  O   UNL     1       1.068   2.839  19.630  0.00  0.00    +0.000 OA
ENDBRANCH   9  16
BRANCH  14  17
ATOM     17  O   UNL     1       3.857   2.348  20.553  0.00  0.00    +0.000 OA
ATOM     18  C   UNL     1       5.083   1.643  20.632  0.00  0.00    +0.000 C 
ENDBRANCH  14  17
ENDBRANCH   8  12
ENDBRANCH   1   8
BRANCH   1  19
ATOM     19  O   UNL     1       5.474   6.063  15.559  0.00  0.00    +0.000 OA
BRANCH  19  20
ATOM     20  C   UNL     1       6.075   6.351  16.737  0.00  0.00    +0.000 C 
ATOM     21  O   UNL     1       7.209   6.049  17.065  0.00  0.00    +0.000 OA
BRANCH  20  22
ATOM     22  C   UNL     1       5.172   7.224  17.517  0.00  0.00    +0.000 C 
ATOM     23  C   UNL     1       3.870   7.281  17.197  0.00  0.00    +0.000 C 
BRANCH  23  24
ATOM     24  C   UNL     1       2.832   7.801  18.098  0.00  0.00    +0.000 A 
ATOM     25  C   UNL     1       2.615   7.199  19.337  0.00  0.00    +0.000 A 
ATOM     26  C   UNL     1       1.754   7.788  20.278  0.00  0.00    +0.000 A 
ATOM     27  C   UNL     1       1.108   9.014  20.026  0.00  0.00    +0.000 A 
ATOM     28  C   UNL     1       1.327   9.595  18.766  0.00  0.00    +0.000 A 
ATOM     29  C   UNL     1       2.170   9.001  17.818  0.00  0.00    +0.000 A 
BRANCH  27  30
ATOM     30  C   UNL     1       0.271   9.689  21.054  0.00  0.00    +0.000 A 
ATOM     31  C   UNL     1       0.146   9.170  22.356  0.00  0.00    +0.000 A 
ATOM     32  C   UNL     1      -0.626   9.810  23.331  0.00  0.00    +0.000 A 
ATOM     33  C   UNL     1      -1.281  11.001  23.030  0.00  0.00    +0.000 A 
ATOM     34  C   UNL     1      -1.174  11.538  21.757  0.00  0.00    +0.000 A 
ATOM     35  C   UNL     1      -0.409  10.892  20.780  0.00  0.00    +0.000 A 
ENDBRANCH  27  30
ENDBRANCH  23  24
ENDBRANCH  20  22
ENDBRANCH  19  20
ENDBRANCH   1  19
TORSDOF 11
ENDMDL
MODEL 5
REMARK VINA RESULT:      -7.9      2.301      5.117
REMARK  Name = 
REMARK  13 active torsions:
REMARK  status: ('A' for Active; 'I' for Inactive)
REMARK    1  A    between atoms: C_1  and  O_2
REMARK    2  A    between atoms: O_2  and  C_3
REMARK    3  A    between atoms: C_6  and  C_7
REMARK    4  A    between atoms: C_7  and  C_8
REMARK    5  A    between atoms: C_8  and  O_9
REMARK    6  A    between atoms: C_8  and  C_26
REMARK    7  A    between atoms: O_9  and  C_10
REMARK    8  A    between atoms: C_10  and  C_12
REMARK    9  A    between atoms: C_13  and  C_14
REMARK   10  A    between atoms: C_17  and  C_18
REMARK   11  A    between atoms: N_28  and  O_29
REMARK   12  A    between atoms: C_31  and  O_32
REMARK   13  A    between atoms: O_32  and  C_33
REMARK                            x       y       z     vdW  Elec       q    Type
REMARK                         _______ _______ _______ _____ _____    ______ ____
ROOT
ATOM      1  C   UNL     1       6.550   5.785  17.638  0.00  0.00    +0.000 C 
ENDROOT
BRANCH   1   2
ATOM      2  C   UNL     1       7.547   6.061  18.772  0.00  0.00    +0.000 C 
ATOM      3  O   UNL     1       8.368   6.978  18.765  0.00  0.00    +0.000 OA
ATOM      4  N   UNL     1       7.501   5.173  19.821  0.00  0.00    +0.000 N 
ATOM      5  H   UNL     1       6.961   4.315  19.855  0.00  0.00    +0.000 HD
BRANCH   4   6
ATOM      6  O   UNL     1       8.445   5.380  20.850  0.00  0.00    +0.000 OA
ATOM      7  H   UNL     1       7.898   5.787  21.560  0.00  0.00    +0.000 HD
ENDBRANCH   4   6
ENDBRANCH   1   2
BRANCH   1   8
ATOM      8  C   UNL     1       6.360   4.265  17.453  0.00  0.00    +0.000 C 
BRANCH   8  12
ATOM      9  C   UNL     1       2.523   2.594  18.441  0.00  0.00    +0.000 A 
ATOM     10  C   UNL     1       2.768   3.108  17.157  0.00  0.00    +0.000 A 
ATOM     11  C   UNL     1       3.990   3.693  16.841  0.00  0.00    +0.000 A 
ATOM     12  C   UNL     1       4.970   3.821  17.820  0.00  0.00    +0.000 A 
ATOM     13  C   UNL     1       4.662   3.463  19.137  0.00  0.00    +0.000 A 
ATOM     14  C   UNL     1       3.451   2.834  19.463  0.00  0.00    +0.000 A 
BRANCH   9  16
ATOM     15  C   UNL     1       0.233   2.671  18.975  0.00  0.00    +0.000 C 
ATOM     16  O   UNL     1       1.386   1.870  18.689  0.00  0.00    +0.000 OA
ENDBRANCH   9  16
BRANCH  14  17
ATOM     17  O   UNL     1       3.398   2.509  20.790  0.00  0.00    +0.000 OA
ATOM     18  C   UNL     1       2.500   3.196  21.643  0.00  0.00    +0.000 C 
ENDBRANCH  14  17
ENDBRANCH   8  12
ENDBRANCH   1   8
BRANCH   1  19
ATOM     19  O   UNL     1       5.370   6.597  17.834  0.00  0.00    +0.000 OA
BRANCH  19  20
ATOM     20  C   UNL     1       4.757   7.126  16.750  0.00  0.00    +0.000 C 
ATOM     21  O   UNL     1       4.971   6.842  15.585  0.00  0.00    +0.000 OA
BRANCH  20  22
ATOM     22  C   UNL     1       3.672   8.015  17.219  0.00  0.00    +0.000 C 
ATOM     23  C   UNL     1       2.716   7.522  18.022  0.00  0.00    +0.000 C 
BRANCH  23  24
ATOM     24  C   UNL     1       1.823   8.360  18.834  0.00  0.00    +0.000 A 
ATOM     25  C   UNL     1       1.692   8.122  20.202  0.00  0.00    +0.000 A 
ATOM     26  C   UNL     1       0.985   9.019  21.020  0.00  0.00    +0.000 A 
ATOM     27  C   UNL     1       0.413  10.199  20.505  0.00  0.00    +0.000 A 
ATOM     28  C   UNL     1       0.542  10.410  19.123  0.00  0.00    +0.000 A 
ATOM     29  C   UNL     1       1.231   9.510  18.301  0.00  0.00    +0.000 A 
BRANCH  27  30
ATOM     30  C   UNL     1      -0.254  11.197  21.382  0.00  0.00    +0.000 A 
ATOM     31  C   UNL     1      -1.059  10.802  22.467  0.00  0.00    +0.000 A 
ATOM     32  C   UNL     1      -1.674  11.738  23.305  0.00  0.00    +0.000 A 
ATOM     33  C   UNL     1      -1.486  13.099  23.086  0.00  0.00    +0.000 A 
ATOM     34  C   UNL     1      -0.697  13.519  22.026  0.00  0.00    +0.000 A 
ATOM     35  C   UNL     1      -0.089  12.583  21.184  0.00  0.00    +0.000 A 
ENDBRANCH  27  30
ENDBRANCH  23  24
ENDBRANCH  20  22
ENDBRANCH  19  20
ENDBRANCH   1  19
TORSDOF 11
ENDMDL
MODEL 6
REMARK VINA RESULT:      -7.9      3.987      7.185
REMARK  Name = 
REMARK  13 active torsions:
REMARK  status: ('A' for Active; 'I' for Inactive)
REMARK    1  A    between atoms: C_1  and  O_2
REMARK    2  A    between atoms: O_2  and  C_3
REMARK    3  A    between atoms: C_6  and  C_7
REMARK    4  A    between atoms: C_7  and  C_8
REMARK    5  A    between atoms: C_8  and  O_9
REMARK    6  A    between atoms: C_8  and  C_26
REMARK    7  A    between atoms: O_9  and  C_10
REMARK    8  A    between atoms: C_10  and  C_12
REMARK    9  A    between atoms: C_13  and  C_14
REMARK   10  A    between atoms: C_17  and  C_18
REMARK   11  A    between atoms: N_28  and  O_29
REMARK   12  A    between atoms: C_31  and  O_32
REMARK   13  A    between atoms: O_32  and  C_33
REMARK                            x       y       z     vdW  Elec       q    Type
REMARK                         _______ _______ _______ _____ _____    ______ ____
ROOT
ATOM      1  C   UNL     1       6.573   4.807  15.599  0.00  0.00    +0.000 C 
ENDROOT
BRANCH   1   2
ATOM      2  C   UNL     1       7.076   4.790  14.149  0.00  0.00    +0.000 C 
ATOM      3  O   UNL     1       7.906   5.577  13.694  0.00  0.00    +0.000 OA
ATOM      4  N   UNL     1       6.501   3.837  13.341  0.00  0.00    +0.000 N 
ATOM      5  H   UNL     1       5.718   3.240  13.584  0.00  0.00    +0.000 HD
BRANCH   4   6
ATOM      6  O   UNL     1       6.914   3.838  11.991  0.00  0.00    +0.000 OA
ATOM      7  H   UNL     1       7.795   3.401  12.038  0.00  0.00    +0.000 HD
ENDBRANCH   4   6
ENDBRANCH   1   2
BRANCH   1   8
ATOM      8  C   UNL     1       5.509   3.709  15.807  0.00  0.00    +0.000 C 
BRANCH   8  12
ATOM      9  C   UNL     1       3.232   4.672  19.327  0.00  0.00    +0.000 A 
ATOM     10  C   UNL     1       3.440   3.333  18.955  0.00  0.00    +0.000 A 
ATOM     11  C   UNL     1       4.135   3.012  17.794  0.00  0.00    +0.000 A 
ATOM     12  C   UNL     1       4.589   4.026  16.956  0.00  0.00    +0.000 A 
ATOM     13  C   UNL     1       4.234   5.349  17.240  0.00  0.00    +0.000 A 
ATOM     14  C   UNL     1       3.571   5.692  18.427  0.00  0.00    +0.000 A 
BRANCH   9  16
ATOM     15  C   UNL     1       1.268   4.947  20.592  0.00  0.00    +0.000 C 
ATOM     16  O   UNL     1       2.700   4.973  20.553  0.00  0.00    +0.000 OA
ENDBRANCH   9  16
BRANCH  14  17
ATOM     17  O   UNL     1       3.395   7.044  18.528  0.00  0.00    +0.000 OA
ATOM     18  C   UNL     1       2.201   7.632  18.042  0.00  0.00    +0.000 C 
ENDBRANCH  14  17
ENDBRANCH   8  12
ENDBRANCH   1   8
BRANCH   1  19
ATOM     19  O   UNL     1       7.706   4.831  16.496  0.00  0.00    +0.000 OA
BRANCH  19  20
ATOM     20  C   UNL     1       7.556   5.394  17.718  0.00  0.00    +0.000 C 
ATOM     21  O   UNL     1       7.516   4.809  18.786  0.00  0.00    +0.000 OA
BRANCH  20  22
ATOM     22  C   UNL     1       7.592   6.864  17.558  0.00  0.00    +0.000 C 
ATOM     23  C   UNL     1       8.069   7.625  18.556  0.00  0.00    +0.000 C 
BRANCH  23  24
ATOM     24  C   UNL     1       8.494   9.021  18.384  0.00  0.00    +0.000 A 
ATOM     25  C   UNL     1       7.848   9.840  17.459  0.00  0.00    +0.000 A 
ATOM     26  C   UNL     1       8.122  11.217  17.408  0.00  0.00    +0.000 A 
ATOM     27  C   UNL     1       9.027  11.827  18.300  0.00  0.00    +0.000 A 
ATOM     28  C   UNL     1       9.679  10.980  19.211  0.00  0.00    +0.000 A 
ATOM     29  C   UNL     1       9.422   9.604  19.254  0.00  0.00    +0.000 A 
BRANCH  27  30
ATOM     30  C   UNL     1       9.250  13.297  18.312  0.00  0.00    +0.000 A 
ATOM     31  C   UNL     1      10.531  13.844  18.518  0.00  0.00    +0.000 A 
ATOM     32  C   UNL     1      10.749  15.225  18.513  0.00  0.00    +0.000 A 
ATOM     33  C   UNL     1       9.688  16.097  18.285  0.00  0.00    +0.000 A 
ATOM     34  C   UNL     1       8.416  15.588  18.077  0.00  0.00    +0.000 A 
ATOM     35  C   UNL     1       8.197  14.206  18.091  0.00  0.00    +0.000 A 
ENDBRANCH  27  30
ENDBRANCH  23  24
ENDBRANCH  20  22
ENDBRANCH  19  20
ENDBRANCH   1  19
TORSDOF 11
ENDMDL
MODEL 7
REMARK VINA RESULT:      -7.8      1.526      1.724
REMARK  Name = 
REMARK  13 active torsions:
REMARK  status: ('A' for Active; 'I' for Inactive)
REMARK    1  A    between atoms: C_1  and  O_2
REMARK    2  A    between atoms: O_2  and  C_3
REMARK    3  A    between atoms: C_6  and  C_7
REMARK    4  A    between atoms: C_7  and  C_8
REMARK    5  A    between atoms: C_8  and  O_9
REMARK    6  A    between atoms: C_8  and  C_26
REMARK    7  A    between atoms: O_9  and  C_10
REMARK    8  A    between atoms: C_10  and  C_12
REMARK    9  A    between atoms: C_13  and  C_14
REMARK   10  A    between atoms: C_17  and  C_18
REMARK   11  A    between atoms: N_28  and  O_29
REMARK   12  A    between atoms: C_31  and  O_32
REMARK   13  A    between atoms: O_32  and  C_33
REMARK                            x       y       z     vdW  Elec       q    Type
REMARK                         _______ _______ _______ _____ _____    ______ ____
ROOT
ATOM      1  C   UNL     1       3.786   3.317  19.338  0.00  0.00    +0.000 C 
ENDROOT
BRANCH   1   2
ATOM      2  C   UNL     1       4.207   1.845  19.244  0.00  0.00    +0.000 C 
ATOM      3  O   UNL     1       3.697   1.024  18.481  0.00  0.00    +0.000 OA
ATOM      4  N   UNL     1       5.197   1.462  20.119  0.00  0.00    +0.000 N 
ATOM      5  H   UNL     1       5.579   2.023  20.873  0.00  0.00    +0.000 HD
BRANCH   4   6
ATOM      6  O   UNL     1       5.563   0.099  20.084  0.00  0.00    +0.000 OA
ATOM      7  H   UNL     1       5.454  -0.125  19.132  0.00  0.00    +0.000 HD
ENDBRANCH   4   6
ENDBRANCH   1   2
BRANCH   1   8
ATOM      8  C   UNL     1       3.402   3.853  17.943  0.00  0.00    +0.000 C 
BRANCH   8  12
ATOM      9  C   UNL     1       6.378   6.779  16.903  0.00  0.00    +0.000 A 
ATOM     10  C   UNL     1       5.226   7.153  17.616  0.00  0.00    +0.000 A 
ATOM     11  C   UNL     1       4.236   6.224  17.917  0.00  0.00    +0.000 A 
ATOM     12  C   UNL     1       4.355   4.914  17.464  0.00  0.00    +0.000 A 
ATOM     13  C   UNL     1       5.416   4.586  16.613  0.00  0.00    +0.000 A 
ATOM     14  C   UNL     1       6.444   5.499  16.335  0.00  0.00    +0.000 A 
BRANCH   9  16
ATOM     15  C   UNL     1       8.038   8.033  17.999  0.00  0.00    +0.000 C 
ATOM     16  O   UNL     1       7.419   7.658  16.763  0.00  0.00    +0.000 OA
ENDBRANCH   9  16
BRANCH  14  17
ATOM     17  O   UNL     1       7.409   4.940  15.545  0.00  0.00    +0.000 OA
ATOM     18  C   UNL     1       7.105   4.598  14.204  0.00  0.00    +0.000 C 
ENDBRANCH  14  17
ENDBRANCH   8  12
ENDBRANCH   1   8
BRANCH   1  19
ATOM     19  O   UNL     1       2.829   3.470  20.410  0.00  0.00    +0.000 OA
BRANCH  19  20
ATOM     20  C   UNL     1       1.544   3.761  20.099  0.00  0.00    +0.000 C 
ATOM     21  O   UNL     1       0.764   3.045  19.497  0.00  0.00    +0.000 OA
BRANCH  20  22
ATOM     22  C   UNL     1       1.193   5.048  20.738  0.00  0.00    +0.000 C 
ATOM     23  C   UNL     1       1.825   6.169  20.357  0.00  0.00    +0.000 C 
BRANCH  23  24
ATOM     24  C   UNL     1       1.322   7.522  20.635  0.00  0.00    +0.000 A 
ATOM     25  C   UNL     1       1.559   8.556  19.731  0.00  0.00    +0.000 A 
ATOM     26  C   UNL     1       0.938   9.806  19.894  0.00  0.00    +0.000 A 
ATOM     27  C   UNL     1       0.036  10.054  20.947  0.00  0.00    +0.000 A 
ATOM     28  C   UNL     1      -0.175   9.004  21.856  0.00  0.00    +0.000 A 
ATOM     29  C   UNL     1       0.456   7.762  21.707  0.00  0.00    +0.000 A 
BRANCH  27  30
ATOM     30  C   UNL     1      -0.695  11.342  21.070  0.00  0.00    +0.000 A 
ATOM     31  C   UNL     1      -1.515  11.825  20.032  0.00  0.00    +0.000 A 
ATOM     32  C   UNL     1      -2.219  13.028  20.151  0.00  0.00    +0.000 A 
ATOM     33  C   UNL     1      -2.131  13.773  21.323  0.00  0.00    +0.000 A 
ATOM     34  C   UNL     1      -1.334  13.323  22.363  0.00  0.00    +0.000 A 
ATOM     35  C   UNL     1      -0.624  12.123  22.241  0.00  0.00    +0.000 A 
ENDBRANCH  27  30
ENDBRANCH  23  24
ENDBRANCH  20  22
ENDBRANCH  19  20
ENDBRANCH   1  19
TORSDOF 11
ENDMDL
MODEL 8
REMARK VINA RESULT:      -7.8      1.365      2.310
REMARK  Name = 
REMARK  13 active torsions:
REMARK  status: ('A' for Active; 'I' for Inactive)
REMARK    1  A    between atoms: C_1  and  O_2
REMARK    2  A    between atoms: O_2  and  C_3
REMARK    3  A    between atoms: C_6  and  C_7
REMARK    4  A    between atoms: C_7  and  C_8
REMARK    5  A    between atoms: C_8  and  O_9
REMARK    6  A    between atoms: C_8  and  C_26
REMARK    7  A    between atoms: O_9  and  C_10
REMARK    8  A    between atoms: C_10  and  C_12
REMARK    9  A    between atoms: C_13  and  C_14
REMARK   10  A    between atoms: C_17  and  C_18
REMARK   11  A    between atoms: N_28  and  O_29
REMARK   12  A    between atoms: C_31  and  O_32
REMARK   13  A    between atoms: O_32  and  C_33
REMARK                            x       y       z     vdW  Elec       q    Type
REMARK                         _______ _______ _______ _____ _____    ______ ____
ROOT
ATOM      1  C   UNL     1       3.388   3.738  18.696  0.00  0.00    +0.000 C 
ENDROOT
BRANCH   1   2
ATOM      2  C   UNL     1       3.972   2.343  18.960  0.00  0.00    +0.000 C 
ATOM      3  O   UNL     1       3.604   1.318  18.387  0.00  0.00    +0.000 OA
ATOM      4  N   UNL     1       4.938   2.289  19.937  0.00  0.00    +0.000 N 
ATOM      5  H   UNL     1       5.207   3.047  20.555  0.00  0.00    +0.000 HD
BRANCH   4   6
ATOM      6  O   UNL     1       5.452   1.007  20.231  0.00  0.00    +0.000 OA
ATOM      7  H   UNL     1       4.634   0.467  20.322  0.00  0.00    +0.000 HD
ENDBRANCH   4   6
ENDBRANCH   1   2
BRANCH   1   8
ATOM      8  C   UNL     1       3.300   4.002  17.179  0.00  0.00    +0.000 C 
BRANCH   8  12
ATOM      9  C   UNL     1       6.956   5.090  15.191  0.00  0.00    +0.000 A 
ATOM     10  C   UNL     1       6.289   3.898  14.859  0.00  0.00    +0.000 A 
ATOM     11  C   UNL     1       5.132   3.514  15.529  0.00  0.00    +0.000 A 
ATOM     12  C   UNL     1       4.650   4.290  16.577  0.00  0.00    +0.000 A 
ATOM     13  C   UNL     1       5.406   5.382  17.016  0.00  0.00    +0.000 A 
ATOM     14  C   UNL     1       6.551   5.805  16.326  0.00  0.00    +0.000 A 
BRANCH   9  16
ATOM     15  C   UNL     1       7.853   5.237  13.022  0.00  0.00    +0.000 C 
ATOM     16  O   UNL     1       7.991   5.541  14.415  0.00  0.00    +0.000 OA
ENDBRANCH   9  16
BRANCH  14  17
ATOM     17  O   UNL     1       7.085   6.933  16.888  0.00  0.00    +0.000 OA
ATOM     18  C   UNL     1       7.690   6.858  18.166  0.00  0.00    +0.000 C 
ENDBRANCH  14  17
ENDBRANCH   8  12
ENDBRANCH   1   8
BRANCH   1  19
ATOM     19  O   UNL     1       2.188   3.907  19.484  0.00  0.00    +0.000 OA
BRANCH  19  20
ATOM     20  C   UNL     1       2.230   4.718  20.568  0.00  0.00    +0.000 C 
ATOM     21  O   UNL     1       2.495   4.388  21.710  0.00  0.00    +0.000 OA
BRANCH  20  22
ATOM     22  C   UNL     1       2.039   6.112  20.112  0.00  0.00    +0.000 C 
ATOM     23  C   UNL     1       1.188   6.912  20.773  0.00  0.00    +0.000 C 
BRANCH  23  24
ATOM     24  C   UNL     1       1.190   8.376  20.656  0.00  0.00    +0.000 A 
ATOM     25  C   UNL     1       1.314   8.978  19.404  0.00  0.00    +0.000 A 
ATOM     26  C   UNL     1       1.141  10.364  19.256  0.00  0.00    +0.000 A 
ATOM     27  C   UNL     1       0.806  11.190  20.346  0.00  0.00    +0.000 A 
ATOM     28  C   UNL     1       0.702  10.567  21.600  0.00  0.00    +0.000 A 
ATOM     29  C   UNL     1       0.892   9.188  21.756  0.00  0.00    +0.000 A 
BRANCH  27  30
ATOM     30  C   UNL     1       0.528  12.642  20.178  0.00  0.00    +0.000 A 
ATOM     31  C   UNL     1       0.175  13.183  18.928  0.00  0.00    +0.000 A 
ATOM     32  C   UNL     1      -0.103  14.544  18.769  0.00  0.00    +0.000 A 
ATOM     33  C   UNL     1      -0.051  15.399  19.866  0.00  0.00    +0.000 A 
ATOM     34  C   UNL     1       0.291  14.895  21.111  0.00  0.00    +0.000 A 
ATOM     35  C   UNL     1       0.578  13.534  21.267  0.00  0.00    +0.000 A 
ENDBRANCH  27  30
ENDBRANCH  23  24
ENDBRANCH  20  22
ENDBRANCH  19  20
ENDBRANCH   1  19
TORSDOF 11
ENDMDL
MODEL 9
REMARK VINA RESULT:      -7.7      2.211      3.132
REMARK  Name = 
REMARK  13 active torsions:
REMARK  status: ('A' for Active; 'I' for Inactive)
REMARK    1  A    between atoms: C_1  and  O_2
REMARK    2  A    between atoms: O_2  and  C_3
REMARK    3  A    between atoms: C_6  and  C_7
REMARK    4  A    between atoms: C_7  and  C_8
REMARK    5  A    between atoms: C_8  and  O_9
REMARK    6  A    between atoms: C_8  and  C_26
REMARK    7  A    between atoms: O_9  and  C_10
REMARK    8  A    between atoms: C_10  and  C_12
REMARK    9  A    between atoms: C_13  and  C_14
REMARK   10  A    between atoms: C_17  and  C_18
REMARK   11  A    between atoms: N_28  and  O_29
REMARK   12  A    between atoms: C_31  and  O_32
REMARK   13  A    between atoms: O_32  and  C_33
REMARK                            x       y       z     vdW  Elec       q    Type
REMARK                         _______ _______ _______ _____ _____    ______ ____
ROOT
ATOM      1  C   UNL     1       3.958   4.412  19.562  0.00  0.00    +0.000 C 
ENDROOT
BRANCH   1   2
ATOM      2  C   UNL     1       4.112   2.889  19.445  0.00  0.00    +0.000 C 
ATOM      3  O   UNL     1       5.047   2.248  19.923  0.00  0.00    +0.000 OA
ATOM      4  N   UNL     1       3.133   2.257  18.714  0.00  0.00    +0.000 N 
ATOM      5  H   UNL     1       2.406   2.709  18.170  0.00  0.00    +0.000 HD
BRANCH   4   6
ATOM      6  O   UNL     1       3.283   0.863  18.551  0.00  0.00    +0.000 OA
ATOM      7  H   UNL     1       3.603   0.791  17.623  0.00  0.00    +0.000 HD
ENDBRANCH   4   6
ENDBRANCH   1   2
BRANCH   1   8
ATOM      8  C   UNL     1       3.651   5.026  18.180  0.00  0.00    +0.000 C 
BRANCH   8  12
ATOM      9  C   UNL     1       6.866   5.177  15.328  0.00  0.00    +0.000 A 
ATOM     10  C   UNL     1       5.860   4.203  15.218  0.00  0.00    +0.000 A 
ATOM     11  C   UNL     1       4.842   4.116  16.161  0.00  0.00    +0.000 A 
ATOM     12  C   UNL     1       4.841   4.969  17.260  0.00  0.00    +0.000 A 
ATOM     13  C   UNL     1       5.933   5.822  17.456  0.00  0.00    +0.000 A 
ATOM     14  C   UNL     1       6.945   5.951  16.493  0.00  0.00    +0.000 A 
BRANCH   9  16
ATOM     15  C   UNL     1       7.323   4.849  13.044  0.00  0.00    +0.000 C 
ATOM     16  O   UNL     1       7.761   5.363  14.306  0.00  0.00    +0.000 OA
ENDBRANCH   9  16
BRANCH  14  17
ATOM     17  O   UNL     1       7.867   6.892  16.861  0.00  0.00    +0.000 OA
ATOM     18  C   UNL     1       7.443   8.055  17.549  0.00  0.00    +0.000 C 
ENDBRANCH  14  17
ENDBRANCH   8  12
ENDBRANCH   1   8
BRANCH   1  19
ATOM     19  O   UNL     1       3.061   4.717  20.653  0.00  0.00    +0.000 OA
BRANCH  19  20
ATOM     20  C   UNL     1       1.784   5.064  20.368  0.00  0.00    +0.000 C 
ATOM     21  O   UNL     1       0.960   4.382  19.784  0.00  0.00    +0.000 OA
BRANCH  20  22
ATOM     22  C   UNL     1       1.503   6.366  21.012  0.00  0.00    +0.000 C 
ATOM     23  C   UNL     1       1.589   7.492  20.287  0.00  0.00    +0.000 C 
BRANCH  23  24
ATOM     24  C   UNL     1       0.990   8.771  20.695  0.00  0.00    +0.000 A 
ATOM     25  C   UNL     1       0.566   9.684  19.731  0.00  0.00    +0.000 A 
ATOM     26  C   UNL     1      -0.166  10.826  20.100  0.00  0.00    +0.000 A 
ATOM     27  C   UNL     1      -0.526  11.075  21.438  0.00  0.00    +0.000 A 
ATOM     28  C   UNL     1      -0.074  10.151  22.395  0.00  0.00    +0.000 A 
ATOM     29  C   UNL     1       0.671   9.022  22.034  0.00  0.00    +0.000 A 
BRANCH  27  30
ATOM     30  C   UNL     1      -1.380  12.231  21.822  0.00  0.00    +0.000 A 
ATOM     31  C   UNL     1      -2.273  12.820  20.907  0.00  0.00    +0.000 A 
ATOM     32  C   UNL     1      -3.091  13.896  21.269  0.00  0.00    +0.000 A 
ATOM     33  C   UNL     1      -3.046  14.400  22.565  0.00  0.00    +0.000 A 
ATOM     34  C   UNL     1      -2.178  13.839  23.488  0.00  0.00    +0.000 A 
ATOM     35  C   UNL     1      -1.354  12.769  23.124  0.00  0.00    +0.000 A 
ENDBRANCH  27  30
ENDBRANCH  23  24
ENDBRANCH  20  22
ENDBRANCH  19  20
ENDBRANCH   1  19
TORSDOF 11
ENDMDL
