MODEL 1
REMARK VINA RESULT:      -9.2      0.000      0.000
REMARK  Name = 
REMARK  9 active torsions:
REMARK  status: ('A' for Active; 'I' for Inactive)
REMARK    1  A    between atoms: C_1  and  C_2
REMARK    2  A    between atoms: C_5  and  N_6
REMARK    3  A    between atoms: C_10  and  N_11
REMARK    4  A    between atoms: C_12  and  C_14
REMARK    5  A    between atoms: C_14  and  C_16
REMARK    6  A    between atoms: C_16  and  C_17
REMARK    7  A    between atoms: C_22  and  C_23
REMARK    8  A    between atoms: C_23  and  C_25
REMARK    9  A    between atoms: C_34  and  O_35
REMARK                            x       y       z     vdW  Elec       q    Type
REMARK                         _______ _______ _______ _____ _____    ______ ____
ROOT
ATOM      1  C   UNL     1       4.297   3.217  19.581  0.00  0.00    +0.000 A 
ATOM      2  N   UNL     1       5.274   4.117  19.290  0.00  0.00    +0.000 NA
ATOM      3  C   UNL     1       5.643   4.233  18.000  0.00  0.00    +0.000 A 
ATOM      4  C   UNL     1       6.597   5.168  17.626  0.00  0.00    +0.000 A 
ATOM      5  C   UNL     1       6.979   5.327  16.290  0.00  0.00    +0.000 A 
ATOM      6  C   UNL     1       6.415   4.505  15.313  0.00  0.00    +0.000 A 
ATOM      7  C   UNL     1       5.450   3.566  15.674  0.00  0.00    +0.000 A 
ATOM      8  C   UNL     1       5.051   3.425  16.993  0.00  0.00    +0.000 A 
ATOM      9  N   UNL     1       4.098   2.530  17.280  0.00  0.00    +0.000 NA
ATOM     10  C   UNL     1       3.735   2.453  18.571  0.00  0.00    +0.000 A 
ENDROOT
BRANCH   6  11
ATOM     11  C   UNL     1       6.774   4.607  13.875  0.00  0.00    +0.000 C 
ATOM     12  O   UNL     1       7.582   5.462  13.521  0.00  0.00    +0.000 OA
BRANCH  11  13
ATOM     13  C   UNL     1       6.158   3.730  12.852  0.00  0.00    +0.000 A 
ATOM     14  C   UNL     1       6.953   2.757  12.237  0.00  0.00    +0.000 A 
ATOM     15  C   UNL     1       6.423   1.974  11.212  0.00  0.00    +0.000 A 
ATOM     16  C   UNL     1       5.099   2.158  10.808  0.00  0.00    +0.000 A 
ATOM     17  C   UNL     1       4.302   3.118  11.429  0.00  0.00    +0.000 A 
ATOM     18  C   UNL     1       4.834   3.915  12.441  0.00  0.00    +0.000 A 
ENDBRANCH  11  13
ENDBRANCH   6  11
BRANCH  10  19
ATOM     19  O   UNL     1       2.703   1.600  18.762  0.00  0.00    +0.000 OA
ATOM     20  H   UNL     1       2.635   1.653  19.737  0.00  0.00    +0.000 HD
ENDBRANCH  10  19
BRANCH   1  21
ATOM     21  C   UNL     1       3.780   3.176  20.989  0.00  0.00    +0.000 C 
BRANCH  21  22
ATOM     22  C   UNL     1       2.274   3.187  21.139  0.00  0.00    +0.000 C 
ATOM     23  O   UNL     1       1.573   2.311  21.630  0.00  0.00    +0.000 OA
BRANCH  22  25
ATOM     24  N   UNL     1       2.412   5.587  20.597  0.00  0.00    +0.000 N 
ATOM     25  C   UNL     1       1.600   4.456  20.608  0.00  0.00    +0.000 C 
ATOM     26  O   UNL     1       0.437   4.361  20.246  0.00  0.00    +0.000 OA
ATOM     27  H   UNL     1       3.353   5.439  20.951  0.00  0.00    +0.000 HD
BRANCH  24  34
ATOM     28  C   UNL     1       3.066   6.445  17.821  0.00  0.00    +0.000 C 
ATOM     29  C   UNL     1       2.358   7.310  18.831  0.00  0.00    +0.000 A 
ATOM     30  C   UNL     1       1.991   8.607  18.407  0.00  0.00    +0.000 A 
ATOM     31  C   UNL     1       1.336   9.491  19.259  0.00  0.00    +0.000 A 
ATOM     32  C   UNL     1       1.038   9.079  20.555  0.00  0.00    +0.000 A 
ATOM     33  C   UNL     1       1.389   7.795  20.996  0.00  0.00    +0.000 A 
ATOM     34  C   UNL     1       2.053   6.890  20.150  0.00  0.00    +0.000 A 
BRANCH  32  35
ATOM     35  N   UNL     1       0.348  10.000  21.468  0.00  0.00    +0.000 N 
ATOM     36  O   UNL     1      -0.092  11.058  20.994  0.00  0.00    +0.000 OA
ATOM     37  O   UNL     1       0.243   9.670  22.657  0.00  0.00    +0.000 OA
ENDBRANCH  32  35
ENDBRANCH  24  34
ENDBRANCH  22  25
ENDBRANCH  21  22
ENDBRANCH   1  21
TORSDOF 8
ENDMDL
MODEL 2
REMARK VINA RESULT:      -9.1      0.903      1.309
REMARK  Name = 
REMARK  9 active torsions:
REMARK  status: ('A' for Active; 'I' for Inactive)
REMARK    1  A    between atoms: C_1  and  C_2
REMARK    2  A    between atoms: C_5  and  N_6
REMARK    3  A    between atoms: C_10  and  N_11
REMARK    4  A    between atoms: C_12  and  C_14
REMARK    5  A    between atoms: C_14  and  C_16
REMARK    6  A    between atoms: C_16  and  C_17
REMARK    7  A    between atoms: C_22  and  C_23
REMARK    8  A    between atoms: C_23  and  C_25
REMARK    9  A    between atoms: C_34  and  O_35
REMARK                            x       y       z     vdW  Elec       q    Type
REMARK                         _______ _______ _______ _____ _____    ______ ____
ROOT
ATOM      1  C   UNL     1       3.164   2.830  19.391  0.00  0.00    +0.000 A 
ATOM      2  N   UNL     1       4.440   3.302  19.386  0.00  0.00    +0.000 NA
ATOM      3  C   UNL     1       4.978   3.617  18.192  0.00  0.00    +0.000 A 
ATOM      4  C   UNL     1       6.256   4.151  18.118  0.00  0.00    +0.000 A 
ATOM      5  C   UNL     1       6.827   4.511  16.894  0.00  0.00    +0.000 A 
ATOM      6  C   UNL     1       6.112   4.297  15.714  0.00  0.00    +0.000 A 
ATOM      7  C   UNL     1       4.824   3.768  15.774  0.00  0.00    +0.000 A 
ATOM      8  C   UNL     1       4.246   3.435  16.988  0.00  0.00    +0.000 A 
ATOM      9  N   UNL     1       2.995   2.960  16.990  0.00  0.00    +0.000 NA
ATOM     10  C   UNL     1       2.477   2.676  18.197  0.00  0.00    +0.000 A 
ENDROOT
BRANCH   6  11
ATOM     11  C   UNL     1       6.653   4.646  14.375  0.00  0.00    +0.000 C 
ATOM     12  O   UNL     1       7.428   5.594  14.273  0.00  0.00    +0.000 OA
BRANCH  11  13
ATOM     13  C   UNL     1       6.258   3.905  13.155  0.00  0.00    +0.000 A 
ATOM     14  C   UNL     1       4.916   3.930  12.761  0.00  0.00    +0.000 A 
ATOM     15  C   UNL     1       4.501   3.174  11.665  0.00  0.00    +0.000 A 
ATOM     16  C   UNL     1       5.426   2.402  10.960  0.00  0.00    +0.000 A 
ATOM     17  C   UNL     1       6.766   2.388  11.344  0.00  0.00    +0.000 A 
ATOM     18  C   UNL     1       7.182   3.127  12.449  0.00  0.00    +0.000 A 
ENDBRANCH  11  13
ENDBRANCH   6  11
BRANCH  10  19
ATOM     19  O   UNL     1       1.182   2.296  18.121  0.00  0.00    +0.000 OA
ATOM     20  H   UNL     1       0.983   2.602  17.213  0.00  0.00    +0.000 HD
ENDBRANCH  10  19
BRANCH   1  21
ATOM     21  C   UNL     1       2.505   2.607  20.720  0.00  0.00    +0.000 C 
BRANCH  21  22
ATOM     22  C   UNL     1       2.266   3.847  21.554  0.00  0.00    +0.000 C 
ATOM     23  O   UNL     1       2.553   4.011  22.734  0.00  0.00    +0.000 OA
BRANCH  22  25
ATOM     24  N   UNL     1       2.316   6.186  20.781  0.00  0.00    +0.000 N 
ATOM     25  C   UNL     1       1.596   4.995  20.794  0.00  0.00    +0.000 C 
ATOM     26  O   UNL     1       0.514   4.765  20.275  0.00  0.00    +0.000 OA
ATOM     27  H   UNL     1       3.199   6.156  21.285  0.00  0.00    +0.000 HD
BRANCH  24  34
ATOM     28  C   UNL     1       3.118   6.708  17.960  0.00  0.00    +0.000 C 
ATOM     29  C   UNL     1       2.315   7.663  18.804  0.00  0.00    +0.000 A 
ATOM     30  C   UNL     1       1.930   8.877  18.192  0.00  0.00    +0.000 A 
ATOM     31  C   UNL     1       1.189   9.834  18.880  0.00  0.00    +0.000 A 
ATOM     32  C   UNL     1       0.823   9.579  20.199  0.00  0.00    +0.000 A 
ATOM     33  C   UNL     1       1.191   8.380  20.825  0.00  0.00    +0.000 A 
ATOM     34  C   UNL     1       1.940   7.404  20.146  0.00  0.00    +0.000 A 
BRANCH  32  35
ATOM     35  N   UNL     1       0.042  10.578  20.940  0.00  0.00    +0.000 N 
ATOM     36  O   UNL     1       0.450  10.910  22.064  0.00  0.00    +0.000 OA
ATOM     37  O   UNL     1      -0.977  11.033  20.404  0.00  0.00    +0.000 OA
ENDBRANCH  32  35
ENDBRANCH  24  34
ENDBRANCH  22  25
ENDBRANCH  21  22
ENDBRANCH   1  21
TORSDOF 8
ENDMDL
MODEL 3
REMARK VINA RESULT:      -9.0      4.615      8.149
REMARK  Name = 
REMARK  9 active torsions:
REMARK  status: ('A' for Active; 'I' for Inactive)
REMARK    1  A    between atoms: C_1  and  C_2
REMARK    2  A    between atoms: C_5  and  N_6
REMARK    3  A    between atoms: C_10  and  N_11
REMARK    4  A    between atoms: C_12  and  C_14
REMARK    5  A    between atoms: C_14  and  C_16
REMARK    6  A    between atoms: C_16  and  C_17
REMARK    7  A    between atoms: C_22  and  C_23
REMARK    8  A    between atoms: C_23  and  C_25
REMARK    9  A    between atoms: C_34  and  O_35
REMARK                            x       y       z     vdW  Elec       q    Type
REMARK                         _______ _______ _______ _____ _____    ______ ____
ROOT
ATOM      1  C   UNL     1       0.314  10.768  21.668  0.00  0.00    +0.000 A 
ATOM      2  N   UNL     1       0.578  10.765  20.333  0.00  0.00    +0.000 NA
ATOM      3  C   UNL     1       1.151   9.660  19.818  0.00  0.00    +0.000 A 
ATOM      4  C   UNL     1       1.400   9.570  18.456  0.00  0.00    +0.000 A 
ATOM      5  C   UNL     1       1.970   8.423  17.893  0.00  0.00    +0.000 A 
ATOM      6  C   UNL     1       2.329   7.358  18.721  0.00  0.00    +0.000 A 
ATOM      7  C   UNL     1       2.078   7.433  20.090  0.00  0.00    +0.000 A 
ATOM      8  C   UNL     1       1.490   8.557  20.647  0.00  0.00    +0.000 A 
ATOM      9  N   UNL     1       1.242   8.563  21.962  0.00  0.00    +0.000 NA
ATOM     10  C   UNL     1       0.649   9.669  22.442  0.00  0.00    +0.000 A 
ENDROOT
BRANCH   6  11
ATOM     11  C   UNL     1       2.946   6.111  18.200  0.00  0.00    +0.000 C 
ATOM     12  O   UNL     1       3.803   6.191  17.323  0.00  0.00    +0.000 OA
BRANCH  11  13
ATOM     13  C   UNL     1       2.531   4.774  18.682  0.00  0.00    +0.000 A 
ATOM     14  C   UNL     1       3.277   4.166  19.697  0.00  0.00    +0.000 A 
ATOM     15  C   UNL     1       2.959   2.873  20.112  0.00  0.00    +0.000 A 
ATOM     16  C   UNL     1       1.894   2.192  19.520  0.00  0.00    +0.000 A 
ATOM     17  C   UNL     1       1.141   2.803  18.518  0.00  0.00    +0.000 A 
ATOM     18  C   UNL     1       1.466   4.087  18.087  0.00  0.00    +0.000 A 
ENDBRANCH  11  13
ENDBRANCH   6  11
BRANCH  10  19
ATOM     19  O   UNL     1       0.345   9.557  23.755  0.00  0.00    +0.000 OA
ATOM     20  H   UNL     1      -0.630   9.517  23.686  0.00  0.00    +0.000 HD
ENDBRANCH  10  19
BRANCH   1  21
ATOM     21  C   UNL     1      -0.448  11.931  22.228  0.00  0.00    +0.000 C 
BRANCH  21  22
ATOM     22  C   UNL     1      -0.384  13.211  21.423  0.00  0.00    +0.000 C 
ATOM     23  O   UNL     1       0.240  14.228  21.699  0.00  0.00    +0.000 OA
BRANCH  22  25
ATOM     24  N   UNL     1      -2.256  12.271  20.126  0.00  0.00    +0.000 N 
ATOM     25  C   UNL     1      -1.201  13.179  20.128  0.00  0.00    +0.000 C 
ATOM     26  O   UNL     1      -0.862  13.940  19.235  0.00  0.00    +0.000 OA
ATOM     27  H   UNL     1      -2.355  11.730  20.981  0.00  0.00    +0.000 HD
BRANCH  24  34
ATOM     28  C   UNL     1      -5.095  13.127  20.407  0.00  0.00    +0.000 C 
ATOM     29  C   UNL     1      -4.532  12.443  19.188  0.00  0.00    +0.000 A 
ATOM     30  C   UNL     1      -5.432  12.204  18.125  0.00  0.00    +0.000 A 
ATOM     31  C   UNL     1      -5.021  11.574  16.954  0.00  0.00    +0.000 A 
ATOM     32  C   UNL     1      -3.692  11.177  16.836  0.00  0.00    +0.000 A 
ATOM     33  C   UNL     1      -2.781  11.407  17.877  0.00  0.00    +0.000 A 
ATOM     34  C   UNL     1      -3.180  12.039  19.067  0.00  0.00    +0.000 A 
BRANCH  32  35
ATOM     35  N   UNL     1      -3.242  10.511  15.607  0.00  0.00    +0.000 N 
ATOM     36  O   UNL     1      -2.506   9.519  15.726  0.00  0.00    +0.000 OA
ATOM     37  O   UNL     1      -3.619  10.975  14.523  0.00  0.00    +0.000 OA
ENDBRANCH  32  35
ENDBRANCH  24  34
ENDBRANCH  22  25
ENDBRANCH  21  22
ENDBRANCH   1  21
TORSDOF 8
ENDMDL
MODEL 4
REMARK VINA RESULT:      -8.8      4.426      7.706
REMARK  Name = 
REMARK  9 active torsions:
REMARK  status: ('A' for Active; 'I' for Inactive)
REMARK    1  A    between atoms: C_1  and  C_2
REMARK    2  A    between atoms: C_5  and  N_6
REMARK    3  A    between atoms: C_10  and  N_11
REMARK    4  A    between atoms: C_12  and  C_14
REMARK    5  A    between atoms: C_14  and  C_16
REMARK    6  A    between atoms: C_16  and  C_17
REMARK    7  A    between atoms: C_22  and  C_23
REMARK    8  A    between atoms: C_23  and  C_25
REMARK    9  A    between atoms: C_34  and  O_35
REMARK                            x       y       z     vdW  Elec       q    Type
REMARK                         _______ _______ _______ _____ _____    ______ ____
ROOT
ATOM      1  C   UNL     1       1.157  10.664  19.530  0.00  0.00    +0.000 A 
ATOM      2  N   UNL     1       1.012   9.539  20.282  0.00  0.00    +0.000 NA
ATOM      3  C   UNL     1       1.555   8.402  19.805  0.00  0.00    +0.000 A 
ATOM      4  C   UNL     1       1.490   7.230  20.543  0.00  0.00    +0.000 A 
ATOM      5  C   UNL     1       2.069   6.043  20.083  0.00  0.00    +0.000 A 
ATOM      6  C   UNL     1       2.698   6.026  18.837  0.00  0.00    +0.000 A 
ATOM      7  C   UNL     1       2.778   7.198  18.087  0.00  0.00    +0.000 A 
ATOM      8  C   UNL     1       2.228   8.381  18.553  0.00  0.00    +0.000 A 
ATOM      9  N   UNL     1       2.361   9.484  17.807  0.00  0.00    +0.000 NA
ATOM     10  C   UNL     1       1.828  10.606  18.320  0.00  0.00    +0.000 A 
ENDROOT
BRANCH   6  11
ATOM     11  C   UNL     1       3.330   4.804  18.276  0.00  0.00    +0.000 C 
ATOM     12  O   UNL     1       2.686   3.757  18.252  0.00  0.00    +0.000 OA
BRANCH  11  13
ATOM     13  C   UNL     1       4.724   4.803  17.776  0.00  0.00    +0.000 A 
ATOM     14  C   UNL     1       4.988   4.235  16.526  0.00  0.00    +0.000 A 
ATOM     15  C   UNL     1       6.302   4.147  16.067  0.00  0.00    +0.000 A 
ATOM     16  C   UNL     1       7.348   4.632  16.853  0.00  0.00    +0.000 A 
ATOM     17  C   UNL     1       7.085   5.211  18.094  0.00  0.00    +0.000 A 
ATOM     18  C   UNL     1       5.775   5.285  18.564  0.00  0.00    +0.000 A 
ENDBRANCH  11  13
ENDBRANCH   6  11
BRANCH  10  19
ATOM     19  O   UNL     1       2.089  11.691  17.556  0.00  0.00    +0.000 OA
ATOM     20  H   UNL     1       2.403  11.239  16.745  0.00  0.00    +0.000 HD
ENDBRANCH  10  19
BRANCH   1  21
ATOM     21  C   UNL     1       0.679  11.960  20.113  0.00  0.00    +0.000 C 
BRANCH  21  22
ATOM     22  C   UNL     1      -0.445  12.644  19.366  0.00  0.00    +0.000 C 
ATOM     23  O   UNL     1      -0.343  13.422  18.425  0.00  0.00    +0.000 OA
BRANCH  22  25
ATOM     24  N   UNL     1      -2.868  12.473  18.950  0.00  0.00    +0.000 N 
ATOM     25  C   UNL     1      -1.845  12.288  19.875  0.00  0.00    +0.000 C 
ATOM     26  O   UNL     1      -1.934  11.878  21.022  0.00  0.00    +0.000 OA
ATOM     27  H   UNL     1      -2.567  12.832  18.047  0.00  0.00    +0.000 HD
BRANCH  24  34
ATOM     28  C   UNL     1      -4.440  11.071  16.843  0.00  0.00    +0.000 C 
ATOM     29  C   UNL     1      -5.012  11.548  18.153  0.00  0.00    +0.000 A 
ATOM     30  C   UNL     1      -6.387  11.300  18.369  0.00  0.00    +0.000 A 
ATOM     31  C   UNL     1      -7.021  11.700  19.542  0.00  0.00    +0.000 A 
ATOM     32  C   UNL     1      -6.275  12.356  20.518  0.00  0.00    +0.000 A 
ATOM     33  C   UNL     1      -4.910  12.610  20.326  0.00  0.00    +0.000 A 
ATOM     34  C   UNL     1      -4.254  12.215  19.147  0.00  0.00    +0.000 A 
BRANCH  32  35
ATOM     35  N   UNL     1      -6.928  12.786  21.762  0.00  0.00    +0.000 N 
ATOM     36  O   UNL     1      -7.035  11.952  22.674  0.00  0.00    +0.000 OA
ATOM     37  O   UNL     1      -7.336  13.953  21.830  0.00  0.00    +0.000 OA
ENDBRANCH  32  35
ENDBRANCH  24  34
ENDBRANCH  22  25
ENDBRANCH  21  22
ENDBRANCH   1  21
TORSDOF 8
ENDMDL
MODEL 5
REMARK VINA RESULT:      -8.8      4.520      8.362
REMARK  Name = 
REMARK  9 active torsions:
REMARK  status: ('A' for Active; 'I' for Inactive)
REMARK    1  A    between atoms: C_1  and  C_2
REMARK    2  A    between atoms: C_5  and  N_6
REMARK    3  A    between atoms: C_10  and  N_11
REMARK    4  A    between atoms: C_12  and  C_14
REMARK    5  A    between atoms: C_14  and  C_16
REMARK    6  A    between atoms: C_16  and  C_17
REMARK    7  A    between atoms: C_22  and  C_23
REMARK    8  A    between atoms: C_23  and  C_25
REMARK    9  A    between atoms: C_34  and  O_35
REMARK                            x       y       z     vdW  Elec       q    Type
REMARK                         _______ _______ _______ _____ _____    ______ ____
ROOT
ATOM      1  C   UNL     1      -0.219  10.530  20.831  0.00  0.00    +0.000 A 
ATOM      2  N   UNL     1       0.360  10.482  19.601  0.00  0.00    +0.000 NA
ATOM      3  C   UNL     1       1.113   9.402  19.314  0.00  0.00    +0.000 A 
ATOM      4  C   UNL     1       1.691   9.264  18.060  0.00  0.00    +0.000 A 
ATOM      5  C   UNL     1       2.454   8.140  17.728  0.00  0.00    +0.000 A 
ATOM      6  C   UNL     1       2.671   7.150  18.688  0.00  0.00    +0.000 A 
ATOM      7  C   UNL     1       2.091   7.273  19.950  0.00  0.00    +0.000 A 
ATOM      8  C   UNL     1       1.312   8.373  20.272  0.00  0.00    +0.000 A 
ATOM      9  N   UNL     1       0.753   8.424  21.487  0.00  0.00    +0.000 NA
ATOM     10  C   UNL     1      -0.010   9.502  21.736  0.00  0.00    +0.000 A 
ENDROOT
BRANCH   6  11
ATOM     11  C   UNL     1       3.477   5.932  18.415  0.00  0.00    +0.000 C 
ATOM     12  O   UNL     1       4.592   6.055  17.914  0.00  0.00    +0.000 OA
BRANCH  11  13
ATOM     13  C   UNL     1       2.960   4.574  18.698  0.00  0.00    +0.000 A 
ATOM     14  C   UNL     1       1.793   4.152  18.051  0.00  0.00    +0.000 A 
ATOM     15  C   UNL     1       1.239   2.911  18.360  0.00  0.00    +0.000 A 
ATOM     16  C   UNL     1       1.851   2.090  19.308  0.00  0.00    +0.000 A 
ATOM     17  C   UNL     1       3.022   2.503  19.944  0.00  0.00    +0.000 A 
ATOM     18  C   UNL     1       3.569   3.750  19.651  0.00  0.00    +0.000 A 
ENDBRANCH  11  13
ENDBRANCH   6  11
BRANCH  10  19
ATOM     19  O   UNL     1      -0.616   9.432  22.943  0.00  0.00    +0.000 OA
ATOM     20  H   UNL     1      -1.534   9.633  22.669  0.00  0.00    +0.000 HD
ENDBRANCH  10  19
BRANCH   1  21
ATOM     21  C   UNL     1      -1.169  11.655  21.113  0.00  0.00    +0.000 C 
BRANCH  21  22
ATOM     22  C   UNL     1      -0.728  12.641  22.174  0.00  0.00    +0.000 C 
ATOM     23  O   UNL     1      -0.944  12.577  23.378  0.00  0.00    +0.000 OA
BRANCH  22  25
ATOM     24  N   UNL     1      -0.382  14.339  20.422  0.00  0.00    +0.000 N 
ATOM     25  C   UNL     1       0.076  13.827  21.633  0.00  0.00    +0.000 C 
ATOM     26  O   UNL     1       1.023  14.210  22.302  0.00  0.00    +0.000 OA
ATOM     27  H   UNL     1      -1.191  13.860  20.035  0.00  0.00    +0.000 HD
BRANCH  24  34
ATOM     28  C   UNL     1      -1.999  16.807  20.013  0.00  0.00    +0.000 C 
ATOM     29  C   UNL     1      -0.595  16.618  19.500  0.00  0.00    +0.000 A 
ATOM     30  C   UNL     1      -0.034  17.698  18.781  0.00  0.00    +0.000 A 
ATOM     31  C   UNL     1       1.255  17.630  18.258  0.00  0.00    +0.000 A 
ATOM     32  C   UNL     1       1.999  16.470  18.455  0.00  0.00    +0.000 A 
ATOM     33  C   UNL     1       1.463  15.388  19.167  0.00  0.00    +0.000 A 
ATOM     34  C   UNL     1       0.164  15.438  19.700  0.00  0.00    +0.000 A 
BRANCH  32  35
ATOM     35  N   UNL     1       3.360  16.382  17.909  0.00  0.00    +0.000 N 
ATOM     36  O   UNL     1       3.575  15.530  17.033  0.00  0.00    +0.000 OA
ATOM     37  O   UNL     1       4.215  17.160  18.352  0.00  0.00    +0.000 OA
ENDBRANCH  32  35
ENDBRANCH  24  34
ENDBRANCH  22  25
ENDBRANCH  21  22
ENDBRANCH   1  21
TORSDOF 8
ENDMDL
MODEL 6
REMARK VINA RESULT:      -8.7      4.190      7.502
REMARK  Name = 
REMARK  9 active torsions:
REMARK  status: ('A' for Active; 'I' for Inactive)
REMARK    1  A    between atoms: C_1  and  C_2
REMARK    2  A    between atoms: C_5  and  N_6
REMARK    3  A    between atoms: C_10  and  N_11
REMARK    4  A    between atoms: C_12  and  C_14
REMARK    5  A    between atoms: C_14  and  C_16
REMARK    6  A    between atoms: C_16  and  C_17
REMARK    7  A    between atoms: C_22  and  C_23
REMARK    8  A    between atoms: C_23  and  C_25
REMARK    9  A    between atoms: C_34  and  O_35
REMARK                            x       y       z     vdW  Elec       q    Type
REMARK                         _______ _______ _______ _____ _____    ______ ____
ROOT
ATOM      1  C   UNL     1       1.047  10.161  19.261  0.00  0.00    +0.000 A 
ATOM      2  N   UNL     1       0.886   9.108  20.107  0.00  0.00    +0.000 NA
ATOM      3  C   UNL     1       1.572   7.981  19.830  0.00  0.00    +0.000 A 
ATOM      4  C   UNL     1       1.494   6.887  20.679  0.00  0.00    +0.000 A 
ATOM      5  C   UNL     1       2.217   5.716  20.428  0.00  0.00    +0.000 A 
ATOM      6  C   UNL     1       3.007   5.630  19.281  0.00  0.00    +0.000 A 
ATOM      7  C   UNL     1       3.100   6.725  18.423  0.00  0.00    +0.000 A 
ATOM      8  C   UNL     1       2.406   7.895  18.683  0.00  0.00    +0.000 A 
ATOM      9  N   UNL     1       2.556   8.927  17.843  0.00  0.00    +0.000 NA
ATOM     10  C   UNL     1       1.877  10.043  18.158  0.00  0.00    +0.000 A 
ENDROOT
BRANCH   6  11
ATOM     11  C   UNL     1       3.798   4.419  18.941  0.00  0.00    +0.000 C 
ATOM     12  O   UNL     1       3.538   3.360  19.507  0.00  0.00    +0.000 OA
BRANCH  11  13
ATOM     13  C   UNL     1       4.911   4.460  17.966  0.00  0.00    +0.000 A 
ATOM     14  C   UNL     1       4.668   4.046  16.652  0.00  0.00    +0.000 A 
ATOM     15  C   UNL     1       5.717   3.997  15.735  0.00  0.00    +0.000 A 
ATOM     16  C   UNL     1       7.004   4.366  16.127  0.00  0.00    +0.000 A 
ATOM     17  C   UNL     1       7.245   4.793  17.433  0.00  0.00    +0.000 A 
ATOM     18  C   UNL     1       6.204   4.827  18.357  0.00  0.00    +0.000 A 
ENDBRANCH  11  13
ENDBRANCH   6  11
BRANCH  10  19
ATOM     19  O   UNL     1       2.158  11.065  17.318  0.00  0.00    +0.000 OA
ATOM     20  H   UNL     1       2.363  10.552  16.511  0.00  0.00    +0.000 HD
ENDBRANCH  10  19
BRANCH   1  21
ATOM     21  C   UNL     1       0.400  11.462  19.632  0.00  0.00    +0.000 C 
BRANCH  21  22
ATOM     22  C   UNL     1       0.785  12.029  20.982  0.00  0.00    +0.000 C 
ATOM     23  O   UNL     1       1.888  12.437  21.325  0.00  0.00    +0.000 OA
BRANCH  22  25
ATOM     24  N   UNL     1      -1.312  13.071  21.748  0.00  0.00    +0.000 N 
ATOM     25  C   UNL     1      -0.365  12.081  21.992  0.00  0.00    +0.000 C 
ATOM     26  O   UNL     1      -0.350  11.262  22.898  0.00  0.00    +0.000 OA
ATOM     27  H   UNL     1      -1.123  13.650  20.933  0.00  0.00    +0.000 HD
BRANCH  24  34
ATOM     28  C   UNL     1      -1.192  14.964  24.044  0.00  0.00    +0.000 C 
ATOM     29  C   UNL     1      -2.438  14.239  23.607  0.00  0.00    +0.000 A 
ATOM     30  C   UNL     1      -3.612  14.493  24.353  0.00  0.00    +0.000 A 
ATOM     31  C   UNL     1      -4.819  13.874  24.039  0.00  0.00    +0.000 A 
ATOM     32  C   UNL     1      -4.861  12.990  22.965  0.00  0.00    +0.000 A 
ATOM     33  C   UNL     1      -3.709  12.726  22.209  0.00  0.00    +0.000 A 
ATOM     34  C   UNL     1      -2.482  13.340  22.513  0.00  0.00    +0.000 A 
BRANCH  32  35
ATOM     35  N   UNL     1      -6.126  12.328  22.621  0.00  0.00    +0.000 N 
ATOM     36  O   UNL     1      -6.286  11.966  21.445  0.00  0.00    +0.000 OA
ATOM     37  O   UNL     1      -6.961  12.168  23.521  0.00  0.00    +0.000 OA
ENDBRANCH  32  35
ENDBRANCH  24  34
ENDBRANCH  22  25
ENDBRANCH  21  22
ENDBRANCH   1  21
TORSDOF 8
ENDMDL
MODEL 7
REMARK VINA RESULT:      -8.7      4.044      7.583
REMARK  Name = 
REMARK  9 active torsions:
REMARK  status: ('A' for Active; 'I' for Inactive)
REMARK    1  A    between atoms: C_1  and  C_2
REMARK    2  A    between atoms: C_5  and  N_6
REMARK    3  A    between atoms: C_10  and  N_11
REMARK    4  A    between atoms: C_12  and  C_14
REMARK    5  A    between atoms: C_14  and  C_16
REMARK    6  A    between atoms: C_16  and  C_17
REMARK    7  A    between atoms: C_22  and  C_23
REMARK    8  A    between atoms: C_23  and  C_25
REMARK    9  A    between atoms: C_34  and  O_35
REMARK                            x       y       z     vdW  Elec       q    Type
REMARK                         _______ _______ _______ _____ _____    ______ ____
ROOT
ATOM      1  C   UNL     1       0.228  10.082  20.594  0.00  0.00    +0.000 A 
ATOM      2  N   UNL     1       0.972   9.904  19.469  0.00  0.00    +0.000 NA
ATOM      3  C   UNL     1       1.618   8.729  19.334  0.00  0.00    +0.000 A 
ATOM      4  C   UNL     1       2.352   8.460  18.189  0.00  0.00    +0.000 A 
ATOM      5  C   UNL     1       3.009   7.238  18.013  0.00  0.00    +0.000 A 
ATOM      6  C   UNL     1       2.955   6.278  19.025  0.00  0.00    +0.000 A 
ATOM      7  C   UNL     1       2.215   6.532  20.179  0.00  0.00    +0.000 A 
ATOM      8  C   UNL     1       1.541   7.732  20.344  0.00  0.00    +0.000 A 
ATOM      9  N   UNL     1       0.819   7.911  21.456  0.00  0.00    +0.000 NA
ATOM     10  C   UNL     1       0.170   9.083  21.551  0.00  0.00    +0.000 A 
ENDROOT
BRANCH   6  11
ATOM     11  C   UNL     1       3.632   4.960  18.917  0.00  0.00    +0.000 C 
ATOM     12  O   UNL     1       3.224   4.023  19.598  0.00  0.00    +0.000 OA
BRANCH  11  13
ATOM     13  C   UNL     1       4.806   4.755  18.038  0.00  0.00    +0.000 A 
ATOM     14  C   UNL     1       6.075   5.085  18.525  0.00  0.00    +0.000 A 
ATOM     15  C   UNL     1       7.188   4.979  17.691  0.00  0.00    +0.000 A 
ATOM     16  C   UNL     1       7.033   4.539  16.376  0.00  0.00    +0.000 A 
ATOM     17  C   UNL     1       5.771   4.196  15.893  0.00  0.00    +0.000 A 
ATOM     18  C   UNL     1       4.654   4.317  16.718  0.00  0.00    +0.000 A 
ENDBRANCH  11  13
ENDBRANCH   6  11
BRANCH  10  19
ATOM     19  O   UNL     1      -0.612   9.146  22.653  0.00  0.00    +0.000 OA
ATOM     20  H   UNL     1      -1.387   9.605  22.269  0.00  0.00    +0.000 HD
ENDBRANCH  10  19
BRANCH   1  21
ATOM     21  C   UNL     1      -0.604  11.326  20.692  0.00  0.00    +0.000 C 
BRANCH  21  22
ATOM     22  C   UNL     1      -0.249  12.271  21.820  0.00  0.00    +0.000 C 
ATOM     23  O   UNL     1      -0.579  12.176  22.995  0.00  0.00    +0.000 OA
BRANCH  22  25
ATOM     24  N   UNL     1       0.856  13.548  20.025  0.00  0.00    +0.000 N 
ATOM     25  C   UNL     1       0.626  13.454  21.394  0.00  0.00    +0.000 C 
ATOM     26  O   UNL     1       1.028  14.197  22.277  0.00  0.00    +0.000 OA
ATOM     27  H   UNL     1       0.425  12.813  19.469  0.00  0.00    +0.000 HD
BRANCH  24  34
ATOM     28  C   UNL     1      -0.484  15.989  18.969  0.00  0.00    +0.000 C 
ATOM     29  C   UNL     1       0.993  15.712  18.848  0.00  0.00    +0.000 A 
ATOM     30  C   UNL     1       1.768  16.692  18.187  0.00  0.00    +0.000 A 
ATOM     31  C   UNL     1       3.141  16.537  18.015  0.00  0.00    +0.000 A 
ATOM     32  C   UNL     1       3.754  15.390  18.512  0.00  0.00    +0.000 A 
ATOM     33  C   UNL     1       3.005  14.407  19.174  0.00  0.00    +0.000 A 
ATOM     34  C   UNL     1       1.618  14.546  19.354  0.00  0.00    +0.000 A 
BRANCH  32  35
ATOM     35  N   UNL     1       5.202  15.210  18.339  0.00  0.00    +0.000 N 
ATOM     36  O   UNL     1       5.952  16.050  18.859  0.00  0.00    +0.000 OA
ATOM     37  O   UNL     1       5.592  14.234  17.685  0.00  0.00    +0.000 OA
ENDBRANCH  32  35
ENDBRANCH  24  34
ENDBRANCH  22  25
ENDBRANCH  21  22
ENDBRANCH   1  21
TORSDOF 8
ENDMDL
MODEL 8
REMARK VINA RESULT:      -8.7      4.545      8.310
REMARK  Name = 
REMARK  9 active torsions:
REMARK  status: ('A' for Active; 'I' for Inactive)
REMARK    1  A    between atoms: C_1  and  C_2
REMARK    2  A    between atoms: C_5  and  N_6
REMARK    3  A    between atoms: C_10  and  N_11
REMARK    4  A    between atoms: C_12  and  C_14
REMARK    5  A    between atoms: C_14  and  C_16
REMARK    6  A    between atoms: C_16  and  C_17
REMARK    7  A    between atoms: C_22  and  C_23
REMARK    8  A    between atoms: C_23  and  C_25
REMARK    9  A    between atoms: C_34  and  O_35
REMARK                            x       y       z     vdW  Elec       q    Type
REMARK                         _______ _______ _______ _____ _____    ______ ____
ROOT
ATOM      1  C   UNL     1      -0.173  10.485  20.758  0.00  0.00    +0.000 A 
ATOM      2  N   UNL     1       0.403  10.516  19.526  0.00  0.00    +0.000 NA
ATOM      3  C   UNL     1       1.161   9.460  19.170  0.00  0.00    +0.000 A 
ATOM      4  C   UNL     1       1.735   9.403  17.909  0.00  0.00    +0.000 A 
ATOM      5  C   UNL     1       2.503   8.306  17.506  0.00  0.00    +0.000 A 
ATOM      6  C   UNL     1       2.728   7.259  18.402  0.00  0.00    +0.000 A 
ATOM      7  C   UNL     1       2.150   7.300  19.670  0.00  0.00    +0.000 A 
ATOM      8  C   UNL     1       1.367   8.374  20.062  0.00  0.00    +0.000 A 
ATOM      9  N   UNL     1       0.811   8.347  21.279  0.00  0.00    +0.000 NA
ATOM     10  C   UNL     1       0.044   9.404  21.596  0.00  0.00    +0.000 A 
ENDROOT
BRANCH   6  11
ATOM     11  C   UNL     1       3.538   6.064  18.052  0.00  0.00    +0.000 C 
ATOM     12  O   UNL     1       2.964   5.038  17.696  0.00  0.00    +0.000 OA
BRANCH  11  13
ATOM     13  C   UNL     1       5.015   6.065  18.153  0.00  0.00    +0.000 A 
ATOM     14  C   UNL     1       5.613   5.423  19.243  0.00  0.00    +0.000 A 
ATOM     15  C   UNL     1       6.997   5.479  19.407  0.00  0.00    +0.000 A 
ATOM     16  C   UNL     1       7.782   6.168  18.481  0.00  0.00    +0.000 A 
ATOM     17  C   UNL     1       7.188   6.796  17.387  0.00  0.00    +0.000 A 
ATOM     18  C   UNL     1       5.804   6.758  17.229  0.00  0.00    +0.000 A 
ENDBRANCH  11  13
ENDBRANCH   6  11
BRANCH  10  19
ATOM     19  O   UNL     1      -0.558   9.255  22.798  0.00  0.00    +0.000 OA
ATOM     20  H   UNL     1      -1.246   9.947  22.715  0.00  0.00    +0.000 HD
ENDBRANCH  10  19
BRANCH   1  21
ATOM     21  C   UNL     1      -1.127  11.586  21.112  0.00  0.00    +0.000 C 
BRANCH  21  22
ATOM     22  C   UNL     1      -0.664  12.539  22.193  0.00  0.00    +0.000 C 
ATOM     23  O   UNL     1      -0.735  12.373  23.404  0.00  0.00    +0.000 OA
BRANCH  22  25
ATOM     24  N   UNL     1      -0.600  14.309  20.480  0.00  0.00    +0.000 N 
ATOM     25  C   UNL     1      -0.041  13.833  21.663  0.00  0.00    +0.000 C 
ATOM     26  O   UNL     1       0.867  14.324  22.316  0.00  0.00    +0.000 OA
ATOM     27  H   UNL     1      -1.350  13.735  20.102  0.00  0.00    +0.000 HD
BRANCH  24  34
ATOM     28  C   UNL     1      -2.463  16.630  20.361  0.00  0.00    +0.000 C 
ATOM     29  C   UNL     1      -1.104  16.599  19.711  0.00  0.00    +0.000 A 
ATOM     30  C   UNL     1      -0.714  17.760  19.005  0.00  0.00    +0.000 A 
ATOM     31  C   UNL     1       0.518  17.839  18.363  0.00  0.00    +0.000 A 
ATOM     32  C   UNL     1       1.379  16.746  18.424  0.00  0.00    +0.000 A 
ATOM     33  C   UNL     1       1.014  15.585  19.121  0.00  0.00    +0.000 A 
ATOM     34  C   UNL     1      -0.227  15.487  19.773  0.00  0.00    +0.000 A 
BRANCH  32  35
ATOM     35  N   UNL     1       2.683  16.812  17.751  0.00  0.00    +0.000 N 
ATOM     36  O   UNL     1       3.633  16.211  18.276  0.00  0.00    +0.000 OA
ATOM     37  O   UNL     1       2.762  17.463  16.701  0.00  0.00    +0.000 OA
ENDBRANCH  32  35
ENDBRANCH  24  34
ENDBRANCH  22  25
ENDBRANCH  21  22
ENDBRANCH   1  21
TORSDOF 8
ENDMDL
MODEL 9
REMARK VINA RESULT:      -8.6      4.293      7.845
REMARK  Name = 
REMARK  9 active torsions:
REMARK  status: ('A' for Active; 'I' for Inactive)
REMARK    1  A    between atoms: C_1  and  C_2
REMARK    2  A    between atoms: C_5  and  N_6
REMARK    3  A    between atoms: C_10  and  N_11
REMARK    4  A    between atoms: C_12  and  C_14
REMARK    5  A    between atoms: C_14  and  C_16
REMARK    6  A    between atoms: C_16  and  C_17
REMARK    7  A    between atoms: C_22  and  C_23
REMARK    8  A    between atoms: C_23  and  C_25
REMARK    9  A    between atoms: C_34  and  O_35
REMARK                            x       y       z     vdW  Elec       q    Type
REMARK                         _______ _______ _______ _____ _____    ______ ____
ROOT
ATOM      1  C   UNL     1       0.081  10.122  20.583  0.00  0.00    +0.000 A 
ATOM      2  N   UNL     1       0.707  10.181  19.376  0.00  0.00    +0.000 NA
ATOM      3  C   UNL     1       1.500   9.145  19.040  0.00  0.00    +0.000 A 
ATOM      4  C   UNL     1       2.128   9.116  17.803  0.00  0.00    +0.000 A 
ATOM      5  C   UNL     1       2.934   8.040  17.419  0.00  0.00    +0.000 A 
ATOM      6  C   UNL     1       3.142   6.986  18.311  0.00  0.00    +0.000 A 
ATOM      7  C   UNL     1       2.511   6.999  19.554  0.00  0.00    +0.000 A 
ATOM      8  C   UNL     1       1.691   8.051  19.926  0.00  0.00    +0.000 A 
ATOM      9  N   UNL     1       1.085   7.998  21.119  0.00  0.00    +0.000 NA
ATOM     10  C   UNL     1       0.284   9.034  21.417  0.00  0.00    +0.000 A 
ENDROOT
BRANCH   6  11
ATOM     11  C   UNL     1       3.990   5.812  17.980  0.00  0.00    +0.000 C 
ATOM     12  O   UNL     1       5.066   5.994  17.417  0.00  0.00    +0.000 OA
BRANCH  11  13
ATOM     13  C   UNL     1       3.558   4.427  18.279  0.00  0.00    +0.000 A 
ATOM     14  C   UNL     1       4.292   3.682  19.207  0.00  0.00    +0.000 A 
ATOM     15  C   UNL     1       3.959   2.349  19.446  0.00  0.00    +0.000 A 
ATOM     16  C   UNL     1       2.890   1.765  18.764  0.00  0.00    +0.000 A 
ATOM     17  C   UNL     1       2.149   2.510  17.848  0.00  0.00    +0.000 A 
ATOM     18  C   UNL     1       2.491   3.837  17.593  0.00  0.00    +0.000 A 
ENDBRANCH  11  13
ENDBRANCH   6  11
BRANCH  10  19
ATOM     19  O   UNL     1      -0.364   8.858  22.590  0.00  0.00    +0.000 OA
ATOM     20  H   UNL     1       0.117   8.071  22.918  0.00  0.00    +0.000 HD
ENDBRANCH  10  19
BRANCH   1  21
ATOM     21  C   UNL     1      -0.910  11.200  20.910  0.00  0.00    +0.000 C 
BRANCH  21  22
ATOM     22  C   UNL     1      -0.559  12.082  22.089  0.00  0.00    +0.000 C 
ATOM     23  O   UNL     1      -0.663  11.805  23.277  0.00  0.00    +0.000 OA
BRANCH  22  25
ATOM     24  N   UNL     1      -0.096  13.759  20.343  0.00  0.00    +0.000 N 
ATOM     25  C   UNL     1      -0.014  13.460  21.701  0.00  0.00    +0.000 C 
ATOM     26  O   UNL     1       0.428  14.159  22.599  0.00  0.00    +0.000 OA
ATOM     27  H   UNL     1      -0.498  13.023  19.768  0.00  0.00    +0.000 HD
BRANCH  24  34
ATOM     28  C   UNL     1      -1.920  16.111  20.255  0.00  0.00    +0.000 C 
ATOM     29  C   UNL     1      -0.536  16.088  19.661  0.00  0.00    +0.000 A 
ATOM     30  C   UNL     1      -0.101  17.274  19.026  0.00  0.00    +0.000 A 
ATOM     31  C   UNL     1       1.159  17.364  18.440  0.00  0.00    +0.000 A 
ATOM     32  C   UNL     1       2.001  16.256  18.486  0.00  0.00    +0.000 A 
ATOM     33  C   UNL     1       1.591  15.071  19.113  0.00  0.00    +0.000 A 
ATOM     34  C   UNL     1       0.323  14.962  19.708  0.00  0.00    +0.000 A 
BRANCH  32  35
ATOM     35  N   UNL     1       3.333  16.333  17.872  0.00  0.00    +0.000 N 
ATOM     36  O   UNL     1       4.121  17.186  18.310  0.00  0.00    +0.000 OA
ATOM     37  O   UNL     1       3.596  15.545  16.954  0.00  0.00    +0.000 OA
ENDBRANCH  32  35
ENDBRANCH  24  34
ENDBRANCH  22  25
ENDBRANCH  21  22
ENDBRANCH   1  21
TORSDOF 8
ENDMDL
