MODEL 1
REMARK VINA RESULT:      -8.7      0.000      0.000
REMARK  Name = 
REMARK  8 active torsions:
REMARK  status: ('A' for Active; 'I' for Inactive)
REMARK    1  A    between atoms: C_1  and  O_2
REMARK    2  A    between atoms: O_2  and  C_3
REMARK    3  A    between atoms: C_7  and  C_8
REMARK    4  A    between atoms: C_8  and  C_9
REMARK    5  A    between atoms: C_11  and  C_12
REMARK    6  A    between atoms: N_14  and  C_15
REMARK    7  A    between atoms: C_15  and  C_16
REMARK    8  A    between atoms: N_18  and  C_19
REMARK                            x       y       z     vdW  Elec       q    Type
REMARK                         _______ _______ _______ _____ _____    ______ ____
ROOT
ATOM      1  C   UNL     1       4.660   5.647  16.944  0.00  0.00    +0.000 A 
ATOM      2  C   UNL     1       5.057   5.238  15.737  0.00  0.00    +0.000 A 
ATOM      3  C   UNL     1       6.497   5.312  15.435  0.00  0.00    +0.000 A 
ATOM      4  C   UNL     1       6.963   4.766  14.111  0.00  0.00    +0.000 C 
ATOM      5  N   UNL     1       7.378   5.834  16.225  0.00  0.00    +0.000 NA
ATOM      6  N   UNL     1       6.948   6.286  17.457  0.00  0.00    +0.000 N 
ATOM      7  C   UNL     1       5.674   6.043  17.950  0.00  0.00    +0.000 A 
ATOM      8  O   UNL     1       5.358   6.229  19.126  0.00  0.00    +0.000 OA
ENDROOT
BRANCH   1   9
ATOM      9  C   UNL     1       3.213   5.805  17.335  0.00  0.00    +0.000 C 
BRANCH   9  14
ATOM     10  C   UNL     1       1.559   3.382  19.798  0.00  0.00    +0.000 A 
ATOM     11  C   UNL     1       1.717   2.172  19.122  0.00  0.00    +0.000 A 
ATOM     12  C   UNL     1       2.329   2.131  17.869  0.00  0.00    +0.000 A 
ATOM     13  C   UNL     1       2.804   3.304  17.285  0.00  0.00    +0.000 A 
ATOM     14  C   UNL     1       2.655   4.532  17.945  0.00  0.00    +0.000 A 
ATOM     15  C   UNL     1       2.010   4.560  19.198  0.00  0.00    +0.000 A 
BRANCH  10  17
ATOM     16  C   UNL     1       1.546   2.374  21.959  0.00  0.00    +0.000 C 
ATOM     17  O   UNL     1       0.966   3.279  21.027  0.00  0.00    +0.000 OA
ENDBRANCH  10  17
ENDBRANCH   9  14
ENDBRANCH   1   9
BRANCH   6  18
ATOM     18  C   UNL     1       7.975   6.831  18.338  0.00  0.00    +0.000 C 
BRANCH  18  19
ATOM     19  C   UNL     1       8.128   8.354  18.228  0.00  0.00    +0.000 C 
ATOM     20  O   UNL     1       7.600   8.971  17.300  0.00  0.00    +0.000 OA
ATOM     21  N   UNL     1       9.053   8.915  19.097  0.00  0.00    +0.000 N 
ATOM     22  H   UNL     1       9.723   8.268  19.516  0.00  0.00    +0.000 HD
BRANCH  21  23
ATOM     23  C   UNL     1       9.390  10.280  19.120  0.00  0.00    +0.000 A 
ATOM     24  C   UNL     1       9.939  10.929  18.011  0.00  0.00    +0.000 A 
ATOM     25  C   UNL     1      10.293  12.278  18.086  0.00  0.00    +0.000 A 
ATOM     26  C   UNL     1      10.128  12.975  19.283  0.00  0.00    +0.000 A 
ATOM     27  C   UNL     1       9.570  12.328  20.383  0.00  0.00    +0.000 A 
ATOM     28 BR   UNL     1       9.404  13.251  22.027  0.00  0.00    +0.000 Br
ATOM     29  C   UNL     1       9.166  10.995  20.299  0.00  0.00    +0.000 A 
ENDBRANCH  21  23
ENDBRANCH  18  19
ENDBRANCH   6  18
TORSDOF 6
ENDMDL
MODEL 2
REMARK VINA RESULT:      -8.6      1.739      2.944
REMARK  Name = 
REMARK  8 active torsions:
REMARK  status: ('A' for Active; 'I' for Inactive)
REMARK    1  A    between atoms: C_1  and  O_2
REMARK    2  A    between atoms: O_2  and  C_3
REMARK    3  A    between atoms: C_7  and  C_8
REMARK    4  A    between atoms: C_8  and  C_9
REMARK    5  A    between atoms: C_11  and  C_12
REMARK    6  A    between atoms: N_14  and  C_15
REMARK    7  A    between atoms: C_15  and  C_16
REMARK    8  A    between atoms: N_18  and  C_19
REMARK                            x       y       z     vdW  Elec       q    Type
REMARK                         _______ _______ _______ _____ _____    ______ ____
ROOT
ATOM      1  C   UNL     1       5.058   4.636  17.545  0.00  0.00    +0.000 A 
ATOM      2  C   UNL     1       5.290   4.489  16.239  0.00  0.00    +0.000 A 
ATOM      3  C   UNL     1       6.571   4.995  15.717  0.00  0.00    +0.000 A 
ATOM      4  C   UNL     1       6.881   4.750  14.263  0.00  0.00    +0.000 C 
ATOM      5  N   UNL     1       7.434   5.652  16.422  0.00  0.00    +0.000 NA
ATOM      6  N   UNL     1       7.165   5.827  17.765  0.00  0.00    +0.000 N 
ATOM      7  C   UNL     1       6.121   5.186  18.418  0.00  0.00    +0.000 A 
ATOM      8  O   UNL     1       6.016   5.145  19.645  0.00  0.00    +0.000 OA
ENDROOT
BRANCH   1   9
ATOM      9  C   UNL     1       3.729   4.340  18.193  0.00  0.00    +0.000 C 
BRANCH   9  14
ATOM     10  C   UNL     1       2.392   7.929  18.261  0.00  0.00    +0.000 A 
ATOM     11  C   UNL     1       1.855   7.984  19.547  0.00  0.00    +0.000 A 
ATOM     12  C   UNL     1       1.896   6.869  20.385  0.00  0.00    +0.000 A 
ATOM     13  C   UNL     1       2.491   5.688  19.947  0.00  0.00    +0.000 A 
ATOM     14  C   UNL     1       3.037   5.609  18.658  0.00  0.00    +0.000 A 
ATOM     15  C   UNL     1       2.963   6.736  17.814  0.00  0.00    +0.000 A 
BRANCH  10  17
ATOM     16  C   UNL     1       1.490  10.129  18.092  0.00  0.00    +0.000 C 
ATOM     17  O   UNL     1       2.309   9.098  17.555  0.00  0.00    +0.000 OA
ENDBRANCH  10  17
ENDBRANCH   9  14
ENDBRANCH   1   9
BRANCH   6  18
ATOM     18  C   UNL     1       8.178   6.537  18.539  0.00  0.00    +0.000 C 
BRANCH  18  19
ATOM     19  C   UNL     1       8.157   8.056  18.324  0.00  0.00    +0.000 C 
ATOM     20  O   UNL     1       7.578   8.543  17.350  0.00  0.00    +0.000 OA
ATOM     21  N   UNL     1       8.997   8.779  19.160  0.00  0.00    +0.000 N 
ATOM     22  H   UNL     1       9.729   8.243  19.630  0.00  0.00    +0.000 HD
BRANCH  21  23
ATOM     23  C   UNL     1       9.174  10.172  19.091  0.00  0.00    +0.000 A 
ATOM     24  C   UNL     1       9.407  10.832  17.881  0.00  0.00    +0.000 A 
ATOM     25  C   UNL     1       9.613  12.214  17.860  0.00  0.00    +0.000 A 
ATOM     26  C   UNL     1       9.619  12.934  19.053  0.00  0.00    +0.000 A 
ATOM     27  C   UNL     1       9.376  12.274  20.256  0.00  0.00    +0.000 A 
ATOM     28 BR   UNL     1       9.448  13.238  21.883  0.00  0.00    +0.000 Br
ATOM     29  C   UNL     1       9.118  10.903  20.279  0.00  0.00    +0.000 A 
ENDBRANCH  21  23
ENDBRANCH  18  19
ENDBRANCH   6  18
TORSDOF 6
ENDMDL
MODEL 3
REMARK VINA RESULT:      -8.6      1.877      2.685
REMARK  Name = 
REMARK  8 active torsions:
REMARK  status: ('A' for Active; 'I' for Inactive)
REMARK    1  A    between atoms: C_1  and  O_2
REMARK    2  A    between atoms: O_2  and  C_3
REMARK    3  A    between atoms: C_7  and  C_8
REMARK    4  A    between atoms: C_8  and  C_9
REMARK    5  A    between atoms: C_11  and  C_12
REMARK    6  A    between atoms: N_14  and  C_15
REMARK    7  A    between atoms: C_15  and  C_16
REMARK    8  A    between atoms: N_18  and  C_19
REMARK                            x       y       z     vdW  Elec       q    Type
REMARK                         _______ _______ _______ _____ _____    ______ ____
ROOT
ATOM      1  C   UNL     1       4.917   5.110  17.558  0.00  0.00    +0.000 A 
ATOM      2  C   UNL     1       5.163   4.883  16.266  0.00  0.00    +0.000 A 
ATOM      3  C   UNL     1       6.493   5.258  15.753  0.00  0.00    +0.000 A 
ATOM      4  C   UNL     1       6.810   4.920  14.320  0.00  0.00    +0.000 C 
ATOM      5  N   UNL     1       7.392   5.875  16.449  0.00  0.00    +0.000 NA
ATOM      6  N   UNL     1       7.111   6.134  17.776  0.00  0.00    +0.000 N 
ATOM      7  C   UNL     1       6.004   5.612  18.431  0.00  0.00    +0.000 A 
ATOM      8  O   UNL     1       5.871   5.638  19.655  0.00  0.00    +0.000 OA
ENDROOT
BRANCH   1   9
ATOM      9  C   UNL     1       3.555   4.954  18.186  0.00  0.00    +0.000 C 
BRANCH   9  14
ATOM     10  C   UNL     1       1.709   7.700  20.115  0.00  0.00    +0.000 A 
ATOM     11  C   UNL     1       1.733   8.737  19.182  0.00  0.00    +0.000 A 
ATOM     12  C   UNL     1       2.359   8.570  17.947  0.00  0.00    +0.000 A 
ATOM     13  C   UNL     1       2.958   7.352  17.626  0.00  0.00    +0.000 A 
ATOM     14  C   UNL     1       2.947   6.297  18.548  0.00  0.00    +0.000 A 
ATOM     15  C   UNL     1       2.334   6.491  19.802  0.00  0.00    +0.000 A 
BRANCH  10  17
ATOM     16  C   UNL     1       1.368   9.205  21.932  0.00  0.00    +0.000 C 
ATOM     17  O   UNL     1       1.041   7.987  21.274  0.00  0.00    +0.000 OA
ENDBRANCH  10  17
ENDBRANCH   9  14
ENDBRANCH   1   9
BRANCH   6  18
ATOM     18  C   UNL     1       8.162   6.795  18.540  0.00  0.00    +0.000 C 
BRANCH  18  19
ATOM     19  C   UNL     1       8.152   8.323  18.399  0.00  0.00    +0.000 C 
ATOM     20  O   UNL     1       7.444   8.868  17.550  0.00  0.00    +0.000 OA
ATOM     21  N   UNL     1       9.133   8.986  19.124  0.00  0.00    +0.000 N 
ATOM     22  H   UNL     1       9.913   8.413  19.449  0.00  0.00    +0.000 HD
BRANCH  21  23
ATOM     23  C   UNL     1       9.339  10.377  19.089  0.00  0.00    +0.000 A 
ATOM     24  C   UNL     1       9.721  11.042  17.922  0.00  0.00    +0.000 A 
ATOM     25  C   UNL     1       9.950  12.420  17.937  0.00  0.00    +0.000 A 
ATOM     26  C   UNL     1       9.826  13.132  19.130  0.00  0.00    +0.000 A 
ATOM     27  C   UNL     1       9.434  12.467  20.290  0.00  0.00    +0.000 A 
ATOM     28 BR   UNL     1       9.328  13.417  21.922  0.00  0.00    +0.000 Br
ATOM     29  C   UNL     1       9.154  11.100  20.269  0.00  0.00    +0.000 A 
ENDBRANCH  21  23
ENDBRANCH  18  19
ENDBRANCH   6  18
TORSDOF 6
ENDMDL
MODEL 4
REMARK VINA RESULT:      -8.4      1.548      2.404
REMARK  Name = 
REMARK  8 active torsions:
REMARK  status: ('A' for Active; 'I' for Inactive)
REMARK    1  A    between atoms: C_1  and  O_2
REMARK    2  A    between atoms: O_2  and  C_3
REMARK    3  A    between atoms: C_7  and  C_8
REMARK    4  A    between atoms: C_8  and  C_9
REMARK    5  A    between atoms: C_11  and  C_12
REMARK    6  A    between atoms: N_14  and  C_15
REMARK    7  A    between atoms: C_15  and  C_16
REMARK    8  A    between atoms: N_18  and  C_19
REMARK                            x       y       z     vdW  Elec       q    Type
REMARK                         _______ _______ _______ _____ _____    ______ ____
ROOT
ATOM      1  C   UNL     1       5.213   4.105  17.010  0.00  0.00    +0.000 A 
ATOM      2  C   UNL     1       5.486   4.234  15.710  0.00  0.00    +0.000 A 
ATOM      3  C   UNL     1       6.679   5.015  15.341  0.00  0.00    +0.000 A 
ATOM      4  C   UNL     1       7.046   5.086  13.882  0.00  0.00    +0.000 C 
ATOM      5  N   UNL     1       7.416   5.657  16.188  0.00  0.00    +0.000 NA
ATOM      6  N   UNL     1       7.102   5.544  17.528  0.00  0.00    +0.000 N 
ATOM      7  C   UNL     1       6.163   4.644  18.012  0.00  0.00    +0.000 A 
ATOM      8  O   UNL     1       6.047   4.367  19.206  0.00  0.00    +0.000 OA
ENDROOT
BRANCH   1   9
ATOM      9  C   UNL     1       3.938   3.498  17.537  0.00  0.00    +0.000 C 
BRANCH   9  14
ATOM     10  C   UNL     1       2.445   6.646  19.129  0.00  0.00    +0.000 A 
ATOM     11  C   UNL     1       2.056   6.151  20.373  0.00  0.00    +0.000 A 
ATOM     12  C   UNL     1       2.247   4.808  20.698  0.00  0.00    +0.000 A 
ATOM     13  C   UNL     1       2.845   3.946  19.780  0.00  0.00    +0.000 A 
ATOM     14  C   UNL     1       3.242   4.420  18.522  0.00  0.00    +0.000 A 
ATOM     15  C   UNL     1       3.018   5.774  18.200  0.00  0.00    +0.000 A 
BRANCH  10  17
ATOM     16  C   UNL     1       2.410   8.508  17.640  0.00  0.00    +0.000 C 
ATOM     17  O   UNL     1       2.224   7.984  18.949  0.00  0.00    +0.000 OA
ENDBRANCH  10  17
ENDBRANCH   9  14
ENDBRANCH   1   9
BRANCH   6  18
ATOM     18  C   UNL     1       7.978   6.248  18.457  0.00  0.00    +0.000 C 
BRANCH  18  19
ATOM     19  C   UNL     1       7.983   7.770  18.259  0.00  0.00    +0.000 C 
ATOM     20  O   UNL     1       7.394   8.278  17.301  0.00  0.00    +0.000 OA
ATOM     21  N   UNL     1       8.853   8.467  19.085  0.00  0.00    +0.000 N 
ATOM     22  H   UNL     1       9.584   7.913  19.535  0.00  0.00    +0.000 HD
BRANCH  21  23
ATOM     23  C   UNL     1       9.056   9.858  19.026  0.00  0.00    +0.000 A 
ATOM     24  C   UNL     1       9.245  10.530  17.816  0.00  0.00    +0.000 A 
ATOM     25  C   UNL     1       9.480  11.907  17.803  0.00  0.00    +0.000 A 
ATOM     26  C   UNL     1       9.557  12.611  19.005  0.00  0.00    +0.000 A 
ATOM     27  C   UNL     1       9.357  11.939  20.209  0.00  0.00    +0.000 A 
ATOM     28 BR   UNL     1       9.526  12.876  21.843  0.00  0.00    +0.000 Br
ATOM     29  C   UNL     1       9.071  10.573  20.225  0.00  0.00    +0.000 A 
ENDBRANCH  21  23
ENDBRANCH  18  19
ENDBRANCH   6  18
TORSDOF 6
ENDMDL
MODEL 5
REMARK VINA RESULT:      -8.3      2.156      3.046
REMARK  Name = 
REMARK  8 active torsions:
REMARK  status: ('A' for Active; 'I' for Inactive)
REMARK    1  A    between atoms: C_1  and  O_2
REMARK    2  A    between atoms: O_2  and  C_3
REMARK    3  A    between atoms: C_7  and  C_8
REMARK    4  A    between atoms: C_8  and  C_9
REMARK    5  A    between atoms: C_11  and  C_12
REMARK    6  A    between atoms: N_14  and  C_15
REMARK    7  A    between atoms: C_15  and  C_16
REMARK    8  A    between atoms: N_18  and  C_19
REMARK                            x       y       z     vdW  Elec       q    Type
REMARK                         _______ _______ _______ _____ _____    ______ ____
ROOT
ATOM      1  C   UNL     1       4.948   5.196  17.483  0.00  0.00    +0.000 A 
ATOM      2  C   UNL     1       5.197   5.017  16.185  0.00  0.00    +0.000 A 
ATOM      3  C   UNL     1       6.535   5.389  15.693  0.00  0.00    +0.000 A 
ATOM      4  C   UNL     1       6.855   5.103  14.250  0.00  0.00    +0.000 C 
ATOM      5  N   UNL     1       7.440   5.963  16.418  0.00  0.00    +0.000 NA
ATOM      6  N   UNL     1       7.156   6.174  17.752  0.00  0.00    +0.000 N 
ATOM      7  C   UNL     1       6.038   5.645  18.381  0.00  0.00    +0.000 A 
ATOM      8  O   UNL     1       5.898   5.624  19.605  0.00  0.00    +0.000 OA
ENDROOT
BRANCH   1   9
ATOM      9  C   UNL     1       3.580   5.038  18.098  0.00  0.00    +0.000 C 
BRANCH   9  14
ATOM     10  C   UNL     1       1.825   7.803  20.086  0.00  0.00    +0.000 A 
ATOM     11  C   UNL     1       1.759   8.813  19.126  0.00  0.00    +0.000 A 
ATOM     12  C   UNL     1       2.296   8.624  17.853  0.00  0.00    +0.000 A 
ATOM     13  C   UNL     1       2.893   7.409  17.521  0.00  0.00    +0.000 A 
ATOM     14  C   UNL     1       2.973   6.379  18.469  0.00  0.00    +0.000 A 
ATOM     15  C   UNL     1       2.450   6.597  19.760  0.00  0.00    +0.000 A 
BRANCH  10  17
ATOM     16  C   UNL     1       0.155   9.031  21.264  0.00  0.00    +0.000 C 
ATOM     17  O   UNL     1       1.239   8.110  21.283  0.00  0.00    +0.000 OA
ENDBRANCH  10  17
ENDBRANCH   9  14
ENDBRANCH   1   9
BRANCH   6  18
ATOM     18  C   UNL     1       8.214   6.786  18.548  0.00  0.00    +0.000 C 
BRANCH  18  19
ATOM     19  C   UNL     1       8.231   8.319  18.467  0.00  0.00    +0.000 C 
ATOM     20  O   UNL     1       7.617   8.905  17.572  0.00  0.00    +0.000 OA
ATOM     21  N   UNL     1       9.136   8.942  19.314  0.00  0.00    +0.000 N 
ATOM     22  H   UNL     1       9.875   8.347  19.695  0.00  0.00    +0.000 HD
BRANCH  21  23
ATOM     23  C   UNL     1       9.355  10.330  19.355  0.00  0.00    +0.000 A 
ATOM     24  C   UNL     1       8.904  11.122  20.414  0.00  0.00    +0.000 A 
ATOM     25  C   UNL     1       9.111  12.504  20.401  0.00  0.00    +0.000 A 
ATOM     26  C   UNL     1       9.743  13.101  19.311  0.00  0.00    +0.000 A 
ATOM     27  C   UNL     1      10.201  12.307  18.261  0.00  0.00    +0.000 A 
ATOM     28 BR   UNL     1      10.999  13.121  16.751  0.00  0.00    +0.000 Br
ATOM     29  C   UNL     1      10.043  10.921  18.293  0.00  0.00    +0.000 A 
ENDBRANCH  21  23
ENDBRANCH  18  19
ENDBRANCH   6  18
TORSDOF 6
ENDMDL
MODEL 6
REMARK VINA RESULT:      -8.2      5.981      8.044
REMARK  Name = 
REMARK  8 active torsions:
REMARK  status: ('A' for Active; 'I' for Inactive)
REMARK    1  A    between atoms: C_1  and  O_2
REMARK    2  A    between atoms: O_2  and  C_3
REMARK    3  A    between atoms: C_7  and  C_8
REMARK    4  A    between atoms: C_8  and  C_9
REMARK    5  A    between atoms: C_11  and  C_12
REMARK    6  A    between atoms: N_14  and  C_15
REMARK    7  A    between atoms: C_15  and  C_16
REMARK    8  A    between atoms: N_18  and  C_19
REMARK                            x       y       z     vdW  Elec       q    Type
REMARK                         _______ _______ _______ _____ _____    ______ ____
ROOT
ATOM      1  C   UNL     1       2.629   7.001  18.570  0.00  0.00    +0.000 A 
ATOM      2  C   UNL     1       2.637   8.148  17.887  0.00  0.00    +0.000 A 
ATOM      3  C   UNL     1       1.964   9.307  18.500  0.00  0.00    +0.000 A 
ATOM      4  C   UNL     1       2.048  10.626  17.780  0.00  0.00    +0.000 C 
ATOM      5  N   UNL     1       1.293   9.255  19.605  0.00  0.00    +0.000 NA
ATOM      6  N   UNL     1       1.264   8.053  20.284  0.00  0.00    +0.000 N 
ATOM      7  C   UNL     1       2.059   6.969  19.937  0.00  0.00    +0.000 A 
ATOM      8  O   UNL     1       2.219   5.989  20.666  0.00  0.00    +0.000 OA
ENDROOT
BRANCH   1   9
ATOM      9  C   UNL     1       3.110   5.690  18.001  0.00  0.00    +0.000 C 
BRANCH   9  14
ATOM     10  C   UNL     1       6.674   5.546  16.604  0.00  0.00    +0.000 A 
ATOM     11  C   UNL     1       7.412   5.420  17.781  0.00  0.00    +0.000 A 
ATOM     12  C   UNL     1       6.776   5.405  19.023  0.00  0.00    +0.000 A 
ATOM     13  C   UNL     1       5.387   5.502  19.097  0.00  0.00    +0.000 A 
ATOM     14  C   UNL     1       4.625   5.632  17.928  0.00  0.00    +0.000 A 
ATOM     15  C   UNL     1       5.285   5.672  16.683  0.00  0.00    +0.000 A 
BRANCH  10  17
ATOM     16  C   UNL     1       6.876   4.824  14.341  0.00  0.00    +0.000 C 
ATOM     17  O   UNL     1       7.418   5.522  15.456  0.00  0.00    +0.000 OA
ENDBRANCH  10  17
ENDBRANCH   9  14
ENDBRANCH   1   9
BRANCH   6  18
ATOM     18  C   UNL     1       0.531   8.042  21.545  0.00  0.00    +0.000 C 
BRANCH  18  19
ATOM     19  C   UNL     1       0.443   9.421  22.212  0.00  0.00    +0.000 C 
ATOM     20  O   UNL     1       1.042   9.646  23.266  0.00  0.00    +0.000 OA
ATOM     21  N   UNL     1      -0.506  10.276  21.669  0.00  0.00    +0.000 N 
ATOM     22  H   UNL     1      -1.221   9.838  21.085  0.00  0.00    +0.000 HD
BRANCH  21  23
ATOM     23  C   UNL     1      -0.792  11.559  22.167  0.00  0.00    +0.000 A 
ATOM     24  C   UNL     1      -1.834  11.792  23.068  0.00  0.00    +0.000 A 
ATOM     25  C   UNL     1      -2.107  13.088  23.512  0.00  0.00    +0.000 A 
ATOM     26  C   UNL     1      -1.358  14.160  23.030  0.00  0.00    +0.000 A 
ATOM     27  C   UNL     1      -0.313  13.924  22.140  0.00  0.00    +0.000 A 
ATOM     28 BR   UNL     1       0.663  15.383  21.433  0.00  0.00    +0.000 Br
ATOM     29  C   UNL     1      -0.001  12.626  21.733  0.00  0.00    +0.000 A 
ENDBRANCH  21  23
ENDBRANCH  18  19
ENDBRANCH   6  18
TORSDOF 6
ENDMDL
MODEL 7
REMARK VINA RESULT:      -8.2      5.153      7.020
REMARK  Name = 
REMARK  8 active torsions:
REMARK  status: ('A' for Active; 'I' for Inactive)
REMARK    1  A    between atoms: C_1  and  O_2
REMARK    2  A    between atoms: O_2  and  C_3
REMARK    3  A    between atoms: C_7  and  C_8
REMARK    4  A    between atoms: C_8  and  C_9
REMARK    5  A    between atoms: C_11  and  C_12
REMARK    6  A    between atoms: N_14  and  C_15
REMARK    7  A    between atoms: C_15  and  C_16
REMARK    8  A    between atoms: N_18  and  C_19
REMARK                            x       y       z     vdW  Elec       q    Type
REMARK                         _______ _______ _______ _____ _____    ______ ____
ROOT
ATOM      1  C   UNL     1       3.017   6.335  17.987  0.00  0.00    +0.000 A 
ATOM      2  C   UNL     1       2.223   5.299  18.265  0.00  0.00    +0.000 A 
ATOM      3  C   UNL     1       2.870   4.037  18.662  0.00  0.00    +0.000 A 
ATOM      4  C   UNL     1       1.979   2.891  19.066  0.00  0.00    +0.000 C 
ATOM      5  N   UNL     1       4.149   3.846  18.665  0.00  0.00    +0.000 NA
ATOM      6  N   UNL     1       4.959   4.917  18.342  0.00  0.00    +0.000 N 
ATOM      7  C   UNL     1       4.479   6.211  18.195  0.00  0.00    +0.000 A 
ATOM      8  O   UNL     1       5.211   7.201  18.145  0.00  0.00    +0.000 OA
ENDROOT
BRANCH   1   9
ATOM      9  C   UNL     1       2.521   7.630  17.394  0.00  0.00    +0.000 C 
BRANCH   9  14
ATOM     10  C   UNL     1       1.100   8.868  20.729  0.00  0.00    +0.000 A 
ATOM     11  C   UNL     1       0.313   9.936  20.298  0.00  0.00    +0.000 A 
ATOM     12  C   UNL     1       0.252  10.277  18.946  0.00  0.00    +0.000 A 
ATOM     13  C   UNL     1       0.973   9.540  18.007  0.00  0.00    +0.000 A 
ATOM     14  C   UNL     1       1.772   8.465  18.417  0.00  0.00    +0.000 A 
ATOM     15  C   UNL     1       1.843   8.150  19.789  0.00  0.00    +0.000 A 
BRANCH  10  17
ATOM     16  C   UNL     1       0.259   9.501  22.867  0.00  0.00    +0.000 C 
ATOM     17  O   UNL     1       1.050   8.625  22.074  0.00  0.00    +0.000 OA
ENDBRANCH  10  17
ENDBRANCH   9  14
ENDBRANCH   1   9
BRANCH   6  18
ATOM     18  C   UNL     1       6.396   4.678  18.394  0.00  0.00    +0.000 C 
BRANCH  18  19
ATOM     19  C   UNL     1       7.022   4.414  17.017  0.00  0.00    +0.000 C 
ATOM     20  O   UNL     1       8.223   4.155  16.915  0.00  0.00    +0.000 OA
ATOM     21  N   UNL     1       6.203   4.703  15.935  0.00  0.00    +0.000 N 
ATOM     22  H   UNL     1       5.398   5.301  16.130  0.00  0.00    +0.000 HD
BRANCH  21  23
ATOM     23  C   UNL     1       6.599   4.591  14.591  0.00  0.00    +0.000 A 
ATOM     24  C   UNL     1       7.533   5.458  14.017  0.00  0.00    +0.000 A 
ATOM     25  C   UNL     1       7.874   5.335  12.668  0.00  0.00    +0.000 A 
ATOM     26  C   UNL     1       7.257   4.365  11.880  0.00  0.00    +0.000 A 
ATOM     27  C   UNL     1       6.334   3.495  12.458  0.00  0.00    +0.000 A 
ATOM     28 BR   UNL     1       5.447   2.220  11.379  0.00  0.00    +0.000 Br
ATOM     29  C   UNL     1       6.028   3.579  13.817  0.00  0.00    +0.000 A 
ENDBRANCH  21  23
ENDBRANCH  18  19
ENDBRANCH   6  18
TORSDOF 6
ENDMDL
MODEL 8
REMARK VINA RESULT:      -8.1      5.287      7.292
REMARK  Name = 
REMARK  8 active torsions:
REMARK  status: ('A' for Active; 'I' for Inactive)
REMARK    1  A    between atoms: C_1  and  O_2
REMARK    2  A    between atoms: O_2  and  C_3
REMARK    3  A    between atoms: C_7  and  C_8
REMARK    4  A    between atoms: C_8  and  C_9
REMARK    5  A    between atoms: C_11  and  C_12
REMARK    6  A    between atoms: N_14  and  C_15
REMARK    7  A    between atoms: C_15  and  C_16
REMARK    8  A    between atoms: N_18  and  C_19
REMARK                            x       y       z     vdW  Elec       q    Type
REMARK                         _______ _______ _______ _____ _____    ______ ____
ROOT
ATOM      1  C   UNL     1       2.870   6.396  18.043  0.00  0.00    +0.000 A 
ATOM      2  C   UNL     1       2.039   5.353  18.005  0.00  0.00    +0.000 A 
ATOM      3  C   UNL     1       2.629   4.011  18.147  0.00  0.00    +0.000 A 
ATOM      4  C   UNL     1       1.690   2.835  18.199  0.00  0.00    +0.000 C 
ATOM      5  N   UNL     1       3.901   3.780  18.211  0.00  0.00    +0.000 NA
ATOM      6  N   UNL     1       4.751   4.868  18.214  0.00  0.00    +0.000 N 
ATOM      7  C   UNL     1       4.306   6.177  18.336  0.00  0.00    +0.000 A 
ATOM      8  O   UNL     1       5.054   7.124  18.578  0.00  0.00    +0.000 OA
ENDROOT
BRANCH   1   9
ATOM      9  C   UNL     1       2.446   7.809  17.730  0.00  0.00    +0.000 C 
BRANCH   9  14
ATOM     10  C   UNL     1       0.237  10.196  19.755  0.00  0.00    +0.000 A 
ATOM     11  C   UNL     1       0.389   9.668  21.037  0.00  0.00    +0.000 A 
ATOM     12  C   UNL     1       1.176   8.537  21.254  0.00  0.00    +0.000 A 
ATOM     13  C   UNL     1       1.833   7.928  20.186  0.00  0.00    +0.000 A 
ATOM     14  C   UNL     1       1.694   8.439  18.889  0.00  0.00    +0.000 A 
ATOM     15  C   UNL     1       0.874   9.567  18.682  0.00  0.00    +0.000 A 
BRANCH  10  17
ATOM     16  C   UNL     1      -1.027  11.699  18.404  0.00  0.00    +0.000 C 
ATOM     17  O   UNL     1      -0.539  11.320  19.685  0.00  0.00    +0.000 OA
ENDBRANCH  10  17
ENDBRANCH   9  14
ENDBRANCH   1   9
BRANCH   6  18
ATOM     18  C   UNL     1       6.175   4.573  18.327  0.00  0.00    +0.000 C 
BRANCH  18  19
ATOM     19  C   UNL     1       6.864   4.361  16.972  0.00  0.00    +0.000 C 
ATOM     20  O   UNL     1       8.088   4.223  16.907  0.00  0.00    +0.000 OA
ATOM     21  N   UNL     1       6.051   4.555  15.864  0.00  0.00    +0.000 N 
ATOM     22  H   UNL     1       5.185   5.070  16.029  0.00  0.00    +0.000 HD
BRANCH  21  23
ATOM     23  C   UNL     1       6.496   4.471  14.532  0.00  0.00    +0.000 A 
ATOM     24  C   UNL     1       7.426   5.369  14.002  0.00  0.00    +0.000 A 
ATOM     25  C   UNL     1       7.815   5.274  12.663  0.00  0.00    +0.000 A 
ATOM     26  C   UNL     1       7.251   4.298  11.843  0.00  0.00    +0.000 A 
ATOM     27  C   UNL     1       6.332   3.397  12.379  0.00  0.00    +0.000 A 
ATOM     28 BR   UNL     1       5.516   2.113  11.253  0.00  0.00    +0.000 Br
ATOM     29  C   UNL     1       5.978   3.455  13.727  0.00  0.00    +0.000 A 
ENDBRANCH  21  23
ENDBRANCH  18  19
ENDBRANCH   6  18
TORSDOF 6
ENDMDL
MODEL 9
REMARK VINA RESULT:      -8.1      5.585      8.335
REMARK  Name = 
REMARK  8 active torsions:
REMARK  status: ('A' for Active; 'I' for Inactive)
REMARK    1  A    between atoms: C_1  and  O_2
REMARK    2  A    between atoms: O_2  and  C_3
REMARK    3  A    between atoms: C_7  and  C_8
REMARK    4  A    between atoms: C_8  and  C_9
REMARK    5  A    between atoms: C_11  and  C_12
REMARK    6  A    between atoms: N_14  and  C_15
REMARK    7  A    between atoms: C_15  and  C_16
REMARK    8  A    between atoms: N_18  and  C_19
REMARK                            x       y       z     vdW  Elec       q    Type
REMARK                         _______ _______ _______ _____ _____    ______ ____
ROOT
ATOM      1  C   UNL     1       2.792   6.542  18.286  0.00  0.00    +0.000 A 
ATOM      2  C   UNL     1       2.522   5.276  18.609  0.00  0.00    +0.000 A 
ATOM      3  C   UNL     1       1.842   5.034  19.894  0.00  0.00    +0.000 A 
ATOM      4  C   UNL     1       1.450   3.617  20.222  0.00  0.00    +0.000 C 
ATOM      5  N   UNL     1       1.581   5.957  20.761  0.00  0.00    +0.000 NA
ATOM      6  N   UNL     1       1.897   7.259  20.429  0.00  0.00    +0.000 N 
ATOM      7  C   UNL     1       2.307   7.638  19.158  0.00  0.00    +0.000 A 
ATOM      8  O   UNL     1       2.360   8.811  18.788  0.00  0.00    +0.000 OA
ENDROOT
BRANCH   1   9
ATOM      9  C   UNL     1       3.640   6.937  17.103  0.00  0.00    +0.000 C 
BRANCH   9  14
ATOM     10  C   UNL     1       6.519   4.773  15.799  0.00  0.00    +0.000 A 
ATOM     11  C   UNL     1       7.260   4.591  16.967  0.00  0.00    +0.000 A 
ATOM     12  C   UNL     1       6.855   5.177  18.167  0.00  0.00    +0.000 A 
ATOM     13  C   UNL     1       5.692   5.944  18.211  0.00  0.00    +0.000 A 
ATOM     14  C   UNL     1       4.933   6.143  17.050  0.00  0.00    +0.000 A 
ATOM     15  C   UNL     1       5.370   5.566  15.841  0.00  0.00    +0.000 A 
BRANCH  10  17
ATOM     16  C   UNL     1       6.114   3.889  13.623  0.00  0.00    +0.000 C 
ATOM     17  O   UNL     1       7.012   4.124  14.701  0.00  0.00    +0.000 OA
ENDBRANCH  10  17
ENDBRANCH   9  14
ENDBRANCH   1   9
BRANCH   6  18
ATOM     18  C   UNL     1       1.552   8.278  21.414  0.00  0.00    +0.000 C 
BRANCH  18  19
ATOM     19  C   UNL     1       0.199   8.952  21.147  0.00  0.00    +0.000 C 
ATOM     20  O   UNL     1      -0.850   8.416  21.513  0.00  0.00    +0.000 OA
ATOM     21  N   UNL     1       0.247  10.051  20.301  0.00  0.00    +0.000 N 
ATOM     22  H   UNL     1       1.091  10.142  19.733  0.00  0.00    +0.000 HD
BRANCH  21  23
ATOM     23  C   UNL     1      -0.883  10.774  19.879  0.00  0.00    +0.000 A 
ATOM     24  C   UNL     1      -1.440  11.798  20.649  0.00  0.00    +0.000 A 
ATOM     25  C   UNL     1      -2.584  12.469  20.211  0.00  0.00    +0.000 A 
ATOM     26  C   UNL     1      -3.193  12.096  19.013  0.00  0.00    +0.000 A 
ATOM     27  C   UNL     1      -2.628  11.081  18.242  0.00  0.00    +0.000 A 
ATOM     28 BR   UNL     1      -3.488  10.527  16.651  0.00  0.00    +0.000 Br
ATOM     29  C   UNL     1      -1.456  10.442  18.650  0.00  0.00    +0.000 A 
ENDBRANCH  21  23
ENDBRANCH  18  19
ENDBRANCH   6  18
TORSDOF 6
ENDMDL
