MODEL 1
REMARK VINA RESULT:      -7.2      0.000      0.000
REMARK  Name = 
REMARK  5 active torsions:
REMARK  status: ('A' for Active; 'I' for Inactive)
REMARK    1  A    between atoms: C_4  and  C_5
REMARK    2  A    between atoms: C_7  and  C_8
REMARK    3  A    between atoms: N_14  and  C_15
REMARK    4  A    between atoms: C_15  and  C_16
REMARK    5  A    between atoms: C_19  and  C_20
REMARK                            x       y       z     vdW  Elec       q    Type
REMARK                         _______ _______ _______ _____ _____    ______ ____
ROOT
ATOM      1  C   UNL     1      -1.135  12.739  19.045  0.00  0.00    +0.000 A 
ATOM      2  N   UNL     1      -0.868  13.939  18.450  0.00  0.00    +0.000 N 
ATOM      3  C   UNL     1      -0.119  14.770  19.191  0.00  0.00    +0.000 A 
ATOM      4  N   UNL     1       0.109  14.109  20.358  0.00  0.00    +0.000 N 
ATOM      5  C   UNL     1      -0.478  12.784  20.277  0.00  0.00    +0.000 A 
ATOM      6  H   UNL     1      -1.171  14.170  17.511  0.00  0.00    +0.000 HD
ENDROOT
BRANCH   1  10
ATOM      7  C   UNL     1      -3.525   9.712  17.171  0.00  0.00    +0.000 A 
ATOM      8  C   UNL     1      -4.135  10.722  17.917  0.00  0.00    +0.000 A 
ATOM      9  C   UNL     1      -3.354  11.693  18.554  0.00  0.00    +0.000 A 
ATOM     10  C   UNL     1      -1.963  11.664  18.415  0.00  0.00    +0.000 A 
ATOM     11  C   UNL     1      -1.354  10.636  17.689  0.00  0.00    +0.000 A 
ATOM     12  C   UNL     1      -2.137   9.666  17.063  0.00  0.00    +0.000 A 
ENDBRANCH   1  10
BRANCH   3  13
ATOM     13  C   UNL     1       0.320  16.101  18.616  0.00  0.00    +0.000 A 
ATOM     14  C   UNL     1      -0.671  17.043  18.283  0.00  0.00    +0.000 A 
ATOM     15  C   UNL     1      -0.336  18.237  17.646  0.00  0.00    +0.000 A 
ATOM     16  C   UNL     1       0.997  18.510  17.345  0.00  0.00    +0.000 A 
ATOM     17  C   UNL     1       1.983  17.588  17.689  0.00  0.00    +0.000 A 
ATOM     18  C   UNL     1       1.652  16.378  18.304  0.00  0.00    +0.000 A 
ENDBRANCH   3  13
BRANCH   5  19
ATOM     19  C   UNL     1      -0.298  11.611  21.236  0.00  0.00    +0.000 A 
ATOM     20  C   UNL     1      -1.151  11.403  22.324  0.00  0.00    +0.000 A 
ATOM     21  C   UNL     1      -0.917  10.364  23.232  0.00  0.00    +0.000 A 
ATOM     22  C   UNL     1       0.120   9.465  23.014  0.00  0.00    +0.000 A 
ATOM     23  C   UNL     1       0.938   9.618  21.901  0.00  0.00    +0.000 A 
ATOM     24  C   UNL     1       0.753  10.701  21.036  0.00  0.00    +0.000 A 
ENDBRANCH   5  19
BRANCH   4  25
ATOM     25  C   UNL     1       0.997  14.489  21.474  0.00  0.00    +0.000 C 
BRANCH  25  26
ATOM     26  C   UNL     1       2.479  14.495  21.307  0.00  0.00    +0.000 C 
ATOM     27  C   UNL     1       3.211  15.760  21.734  0.00  0.00    +0.000 C 
ATOM     28  O   UNL     1       3.230  14.573  22.525  0.00  0.00    +0.000 OA
ENDBRANCH  25  26
ENDBRANCH   4  25
TORSDOF 5
ENDMDL
MODEL 2
REMARK VINA RESULT:      -6.8      0.982      1.054
REMARK  Name = 
REMARK  5 active torsions:
REMARK  status: ('A' for Active; 'I' for Inactive)
REMARK    1  A    between atoms: C_4  and  C_5
REMARK    2  A    between atoms: C_7  and  C_8
REMARK    3  A    between atoms: N_14  and  C_15
REMARK    4  A    between atoms: C_15  and  C_16
REMARK    5  A    between atoms: C_19  and  C_20
REMARK                            x       y       z     vdW  Elec       q    Type
REMARK                         _______ _______ _______ _____ _____    ______ ____
ROOT
ATOM      1  C   UNL     1      -1.145  12.720  18.976  0.00  0.00    +0.000 A 
ATOM      2  N   UNL     1      -0.863  13.912  18.373  0.00  0.00    +0.000 N 
ATOM      3  C   UNL     1      -0.128  14.751  19.119  0.00  0.00    +0.000 A 
ATOM      4  N   UNL     1       0.073  14.103  20.300  0.00  0.00    +0.000 N 
ATOM      5  C   UNL     1      -0.516  12.778  20.221  0.00  0.00    +0.000 A 
ATOM      6  H   UNL     1      -1.145  14.133  17.424  0.00  0.00    +0.000 HD
ENDROOT
BRANCH   1  10
ATOM      7  C   UNL     1      -3.502   9.676  17.088  0.00  0.00    +0.000 A 
ATOM      8  C   UNL     1      -4.124  10.681  17.829  0.00  0.00    +0.000 A 
ATOM      9  C   UNL     1      -3.354  11.658  18.472  0.00  0.00    +0.000 A 
ATOM     10  C   UNL     1      -1.962  11.639  18.341  0.00  0.00    +0.000 A 
ATOM     11  C   UNL     1      -1.342  10.615  17.619  0.00  0.00    +0.000 A 
ATOM     12  C   UNL     1      -2.114   9.640  16.989  0.00  0.00    +0.000 A 
ENDBRANCH   1  10
BRANCH   3  13
ATOM     13  C   UNL     1       0.326  16.074  18.539  0.00  0.00    +0.000 A 
ATOM     14  C   UNL     1      -0.656  16.994  18.128  0.00  0.00    +0.000 A 
ATOM     15  C   UNL     1      -0.301  18.177  17.482  0.00  0.00    +0.000 A 
ATOM     16  C   UNL     1       1.044  18.461  17.250  0.00  0.00    +0.000 A 
ATOM     17  C   UNL     1       2.021  17.561  17.670  0.00  0.00    +0.000 A 
ATOM     18  C   UNL     1       1.669  16.362  18.294  0.00  0.00    +0.000 A 
ENDBRANCH   3  13
BRANCH   5  19
ATOM     19  C   UNL     1      -0.359  11.617  21.198  0.00  0.00    +0.000 A 
ATOM     20  C   UNL     1      -1.165  11.486  22.333  0.00  0.00    +0.000 A 
ATOM     21  C   UNL     1      -0.950  10.454  23.253  0.00  0.00    +0.000 A 
ATOM     22  C   UNL     1       0.017   9.486  23.004  0.00  0.00    +0.000 A 
ATOM     23  C   UNL     1       0.784   9.564  21.848  0.00  0.00    +0.000 A 
ATOM     24  C   UNL     1       0.622  10.638  20.967  0.00  0.00    +0.000 A 
ENDBRANCH   5  19
BRANCH   4  25
ATOM     25  C   UNL     1       0.937  14.495  21.430  0.00  0.00    +0.000 C 
BRANCH  25  26
ATOM     26  C   UNL     1       0.453  15.445  22.472  0.00  0.00    +0.000 C 
ATOM     27  C   UNL     1       1.000  16.865  22.411  0.00  0.00    +0.000 C 
ATOM     28  O   UNL     1      -0.323  16.545  21.982  0.00  0.00    +0.000 OA
ENDBRANCH  25  26
ENDBRANCH   4  25
TORSDOF 5
ENDMDL
MODEL 3
REMARK VINA RESULT:      -6.8      0.153      1.614
REMARK  Name = 
REMARK  5 active torsions:
REMARK  status: ('A' for Active; 'I' for Inactive)
REMARK    1  A    between atoms: C_4  and  C_5
REMARK    2  A    between atoms: C_7  and  C_8
REMARK    3  A    between atoms: N_14  and  C_15
REMARK    4  A    between atoms: C_15  and  C_16
REMARK    5  A    between atoms: C_19  and  C_20
REMARK                            x       y       z     vdW  Elec       q    Type
REMARK                         _______ _______ _______ _____ _____    ______ ____
ROOT
ATOM      1  C   UNL     1      -1.194  12.737  18.992  0.00  0.00    +0.000 A 
ATOM      2  N   UNL     1      -0.957  13.937  18.384  0.00  0.00    +0.000 N 
ATOM      3  C   UNL     1      -0.215  14.788  19.108  0.00  0.00    +0.000 A 
ATOM      4  N   UNL     1       0.039  14.142  20.278  0.00  0.00    +0.000 N 
ATOM      5  C   UNL     1      -0.524  12.805  20.215  0.00  0.00    +0.000 A 
ATOM      6  H   UNL     1      -1.276  14.154  17.446  0.00  0.00    +0.000 HD
ENDROOT
BRANCH   1  10
ATOM      7  C   UNL     1      -3.515   9.546  17.313  0.00  0.00    +0.000 A 
ATOM      8  C   UNL     1      -2.126   9.547  17.175  0.00  0.00    +0.000 A 
ATOM      9  C   UNL     1      -1.369  10.603  17.696  0.00  0.00    +0.000 A 
ATOM     10  C   UNL     1      -2.009  11.641  18.381  0.00  0.00    +0.000 A 
ATOM     11  C   UNL     1      -3.402  11.650  18.494  0.00  0.00    +0.000 A 
ATOM     12  C   UNL     1      -4.151  10.598  17.965  0.00  0.00    +0.000 A 
ENDBRANCH   1  10
BRANCH   3  13
ATOM     13  C   UNL     1       0.191  16.122  18.517  0.00  0.00    +0.000 A 
ATOM     14  C   UNL     1       1.556  16.348  18.256  0.00  0.00    +0.000 A 
ATOM     15  C   UNL     1       2.004  17.594  17.821  0.00  0.00    +0.000 A 
ATOM     16  C   UNL     1       1.089  18.628  17.628  0.00  0.00    +0.000 A 
ATOM     17  C   UNL     1      -0.265  18.404  17.868  0.00  0.00    +0.000 A 
ATOM     18  C   UNL     1      -0.716  17.166  18.330  0.00  0.00    +0.000 A 
ENDBRANCH   3  13
BRANCH   5  19
ATOM     19  C   UNL     1      -0.310  11.644  21.182  0.00  0.00    +0.000 A 
ATOM     20  C   UNL     1       0.707  10.703  20.999  0.00  0.00    +0.000 A 
ATOM     21  C   UNL     1       0.833   9.605  21.858  0.00  0.00    +0.000 A 
ATOM     22  C   UNL     1      -0.000   9.483  22.964  0.00  0.00    +0.000 A 
ATOM     23  C   UNL     1      -0.975  10.445  23.198  0.00  0.00    +0.000 A 
ATOM     24  C   UNL     1      -1.152  11.500  22.297  0.00  0.00    +0.000 A 
ENDBRANCH   5  19
BRANCH   4  25
ATOM     25  C   UNL     1       0.933  14.548  21.380  0.00  0.00    +0.000 C 
BRANCH  25  26
ATOM     26  C   UNL     1       2.409  14.359  21.280  0.00  0.00    +0.000 C 
ATOM     27  C   UNL     1       3.273  15.598  21.471  0.00  0.00    +0.000 C 
ATOM     28  O   UNL     1       3.139  14.606  22.488  0.00  0.00    +0.000 OA
ENDBRANCH  25  26
ENDBRANCH   4  25
TORSDOF 5
ENDMDL
MODEL 4
REMARK VINA RESULT:      -6.7      0.735      1.537
REMARK  Name = 
REMARK  5 active torsions:
REMARK  status: ('A' for Active; 'I' for Inactive)
REMARK    1  A    between atoms: C_4  and  C_5
REMARK    2  A    between atoms: C_7  and  C_8
REMARK    3  A    between atoms: N_14  and  C_15
REMARK    4  A    between atoms: C_15  and  C_16
REMARK    5  A    between atoms: C_19  and  C_20
REMARK                            x       y       z     vdW  Elec       q    Type
REMARK                         _______ _______ _______ _____ _____    ______ ____
ROOT
ATOM      1  C   UNL     1      -1.104  12.788  19.011  0.00  0.00    +0.000 A 
ATOM      2  N   UNL     1      -0.823  13.971  18.389  0.00  0.00    +0.000 N 
ATOM      3  C   UNL     1      -0.065  14.810  19.110  0.00  0.00    +0.000 A 
ATOM      4  N   UNL     1       0.156  14.174  20.293  0.00  0.00    +0.000 N 
ATOM      5  C   UNL     1      -0.448  12.853  20.242  0.00  0.00    +0.000 A 
ATOM      6  H   UNL     1      -1.123  14.183  17.444  0.00  0.00    +0.000 HD
ENDROOT
BRANCH   1  10
ATOM      7  C   UNL     1      -3.501   9.644  17.349  0.00  0.00    +0.000 A 
ATOM      8  C   UNL     1      -2.111   9.605  17.223  0.00  0.00    +0.000 A 
ATOM      9  C   UNL     1      -1.329  10.645  17.738  0.00  0.00    +0.000 A 
ATOM     10  C   UNL     1      -1.945  11.708  18.406  0.00  0.00    +0.000 A 
ATOM     11  C   UNL     1      -3.339  11.758  18.506  0.00  0.00    +0.000 A 
ATOM     12  C   UNL     1      -4.113  10.722  17.984  0.00  0.00    +0.000 A 
ENDBRANCH   1  10
BRANCH   3  13
ATOM     13  C   UNL     1       0.390  16.122  18.505  0.00  0.00    +0.000 A 
ATOM     14  C   UNL     1      -0.591  17.056  18.123  0.00  0.00    +0.000 A 
ATOM     15  C   UNL     1      -0.240  18.229  17.457  0.00  0.00    +0.000 A 
ATOM     16  C   UNL     1       1.100  18.489  17.176  0.00  0.00    +0.000 A 
ATOM     17  C   UNL     1       2.076  17.576  17.568  0.00  0.00    +0.000 A 
ATOM     18  C   UNL     1       1.728  16.386  18.211  0.00  0.00    +0.000 A 
ENDBRANCH   3  13
BRANCH   5  19
ATOM     19  C   UNL     1      -0.282  11.701  21.228  0.00  0.00    +0.000 A 
ATOM     20  C   UNL     1       0.721  10.738  21.084  0.00  0.00    +0.000 A 
ATOM     21  C   UNL     1       0.804   9.649  21.959  0.00  0.00    +0.000 A 
ATOM     22  C   UNL     1      -0.061   9.557  23.044  0.00  0.00    +0.000 A 
ATOM     23  C   UNL     1      -1.023  10.541  23.240  0.00  0.00    +0.000 A 
ATOM     24  C   UNL     1      -1.155  11.587  22.322  0.00  0.00    +0.000 A 
ENDBRANCH   5  19
BRANCH   4  25
ATOM     25  C   UNL     1       1.047  14.569  21.400  0.00  0.00    +0.000 C 
BRANCH  25  26
ATOM     26  C   UNL     1       0.869  15.873  22.100  0.00  0.00    +0.000 C 
ATOM     27  C   UNL     1       2.057  16.388  22.901  0.00  0.00    +0.000 C 
ATOM     28  O   UNL     1       1.707  16.936  21.632  0.00  0.00    +0.000 OA
ENDBRANCH  25  26
ENDBRANCH   4  25
TORSDOF 5
ENDMDL
MODEL 5
REMARK VINA RESULT:      -6.6      0.516      1.074
REMARK  Name = 
REMARK  5 active torsions:
REMARK  status: ('A' for Active; 'I' for Inactive)
REMARK    1  A    between atoms: C_4  and  C_5
REMARK    2  A    between atoms: C_7  and  C_8
REMARK    3  A    between atoms: N_14  and  C_15
REMARK    4  A    between atoms: C_15  and  C_16
REMARK    5  A    between atoms: C_19  and  C_20
REMARK                            x       y       z     vdW  Elec       q    Type
REMARK                         _______ _______ _______ _____ _____    ______ ____
ROOT
ATOM      1  C   UNL     1      -1.167  12.814  18.966  0.00  0.00    +0.000 A 
ATOM      2  N   UNL     1      -0.912  14.015  18.369  0.00  0.00    +0.000 N 
ATOM      3  C   UNL     1      -0.143  14.842  19.094  0.00  0.00    +0.000 A 
ATOM      4  N   UNL     1       0.112  14.176  20.253  0.00  0.00    +0.000 N 
ATOM      5  C   UNL     1      -0.481  12.852  20.182  0.00  0.00    +0.000 A 
ATOM      6  H   UNL     1      -1.238  14.250  17.438  0.00  0.00    +0.000 HD
ENDROOT
BRANCH   1  10
ATOM      7  C   UNL     1      -3.576   9.693  17.278  0.00  0.00    +0.000 A 
ATOM      8  C   UNL     1      -2.192   9.685  17.093  0.00  0.00    +0.000 A 
ATOM      9  C   UNL     1      -1.408  10.719  17.618  0.00  0.00    +0.000 A 
ATOM     10  C   UNL     1      -2.014  11.743  18.352  0.00  0.00    +0.000 A 
ATOM     11  C   UNL     1      -3.402  11.762  18.512  0.00  0.00    +0.000 A 
ATOM     12  C   UNL     1      -4.179  10.732  17.980  0.00  0.00    +0.000 A 
ENDBRANCH   1  10
BRANCH   3  13
ATOM     13  C   UNL     1       0.285  16.174  18.514  0.00  0.00    +0.000 A 
ATOM     14  C   UNL     1      -0.708  17.133  18.242  0.00  0.00    +0.000 A 
ATOM     15  C   UNL     1      -0.390  18.330  17.603  0.00  0.00    +0.000 A 
ATOM     16  C   UNL     1       0.930  18.588  17.238  0.00  0.00    +0.000 A 
ATOM     17  C   UNL     1       1.919  17.649  17.520  0.00  0.00    +0.000 A 
ATOM     18  C   UNL     1       1.602  16.437  18.137  0.00  0.00    +0.000 A 
ENDBRANCH   3  13
BRANCH   5  19
ATOM     19  C   UNL     1      -0.280  11.675  21.132  0.00  0.00    +0.000 A 
ATOM     20  C   UNL     1      -1.078  11.490  22.265  0.00  0.00    +0.000 A 
ATOM     21  C   UNL     1      -0.823  10.446  23.161  0.00  0.00    +0.000 A 
ATOM     22  C   UNL     1       0.177   9.520  22.888  0.00  0.00    +0.000 A 
ATOM     23  C   UNL     1       0.938   9.650  21.732  0.00  0.00    +0.000 A 
ATOM     24  C   UNL     1       0.734  10.738  20.877  0.00  0.00    +0.000 A 
ENDBRANCH   5  19
BRANCH   4  25
ATOM     25  C   UNL     1       1.028  14.550  21.348  0.00  0.00    +0.000 C 
BRANCH  25  26
ATOM     26  C   UNL     1       2.409  15.033  21.061  0.00  0.00    +0.000 C 
ATOM     27  C   UNL     1       3.547  14.312  21.771  0.00  0.00    +0.000 C 
ATOM     28  O   UNL     1       3.257  14.092  20.392  0.00  0.00    +0.000 OA
ENDBRANCH  25  26
ENDBRANCH   4  25
TORSDOF 5
ENDMDL
MODEL 6
REMARK VINA RESULT:      -6.4      1.434      2.019
REMARK  Name = 
REMARK  5 active torsions:
REMARK  status: ('A' for Active; 'I' for Inactive)
REMARK    1  A    between atoms: C_4  and  C_5
REMARK    2  A    between atoms: C_7  and  C_8
REMARK    3  A    between atoms: N_14  and  C_15
REMARK    4  A    between atoms: C_15  and  C_16
REMARK    5  A    between atoms: C_19  and  C_20
REMARK                            x       y       z     vdW  Elec       q    Type
REMARK                         _______ _______ _______ _____ _____    ______ ____
ROOT
ATOM      1  C   UNL     1      -0.889  12.452  18.484  0.00  0.00    +0.000 A 
ATOM      2  N   UNL     1      -0.867  13.808  18.332  0.00  0.00    +0.000 N 
ATOM      3  C   UNL     1       0.265  14.394  18.749  0.00  0.00    +0.000 A 
ATOM      4  N   UNL     1       1.039  13.385  19.234  0.00  0.00    +0.000 N 
ATOM      5  C   UNL     1       0.354  12.120  19.028  0.00  0.00    +0.000 A 
ATOM      6  H   UNL     1      -1.623  14.329  17.901  0.00  0.00    +0.000 HD
ENDROOT
BRANCH   1  10
ATOM      7  C   UNL     1      -4.247  10.043  17.337  0.00  0.00    +0.000 A 
ATOM      8  C   UNL     1      -4.417  11.094  18.239  0.00  0.00    +0.000 A 
ATOM      9  C   UNL     1      -3.317  11.863  18.637  0.00  0.00    +0.000 A 
ATOM     10  C   UNL     1      -2.053  11.590  18.105  0.00  0.00    +0.000 A 
ATOM     11  C   UNL     1      -1.882  10.520  17.222  0.00  0.00    +0.000 A 
ATOM     12  C   UNL     1      -2.981   9.753  16.835  0.00  0.00    +0.000 A 
ENDBRANCH   1  10
BRANCH   3  13
ATOM     13  C   UNL     1       0.454  15.885  18.561  0.00  0.00    +0.000 A 
ATOM     14  C   UNL     1      -0.682  16.714  18.618  0.00  0.00    +0.000 A 
ATOM     15  C   UNL     1      -0.587  18.076  18.339  0.00  0.00    +0.000 A 
ATOM     16  C   UNL     1       0.649  18.630  18.011  0.00  0.00    +0.000 A 
ATOM     17  C   UNL     1       1.780  17.817  17.971  0.00  0.00    +0.000 A 
ATOM     18  C   UNL     1       1.686  16.447  18.223  0.00  0.00    +0.000 A 
ENDBRANCH   3  13
BRANCH   5  19
ATOM     19  C   UNL     1       0.907  10.709  19.201  0.00  0.00    +0.000 A 
ATOM     20  C   UNL     1       1.619  10.060  18.188  0.00  0.00    +0.000 A 
ATOM     21  C   UNL     1       2.048   8.738  18.344  0.00  0.00    +0.000 A 
ATOM     22  C   UNL     1       1.849   8.076  19.550  0.00  0.00    +0.000 A 
ATOM     23  C   UNL     1       1.200   8.729  20.592  0.00  0.00    +0.000 A 
ATOM     24  C   UNL     1       0.702  10.022  20.409  0.00  0.00    +0.000 A 
ENDBRANCH   5  19
BRANCH   4  25
ATOM     25  C   UNL     1       2.443  13.434  19.682  0.00  0.00    +0.000 C 
BRANCH  25  26
ATOM     26  C   UNL     1       2.785  13.688  21.111  0.00  0.00    +0.000 C 
ATOM     27  C   UNL     1       2.589  15.110  21.619  0.00  0.00    +0.000 C 
ATOM     28  O   UNL     1       1.680  14.060  21.945  0.00  0.00    +0.000 OA
ENDBRANCH  25  26
ENDBRANCH   4  25
TORSDOF 5
ENDMDL
MODEL 7
REMARK VINA RESULT:      -6.4      0.840      1.602
REMARK  Name = 
REMARK  5 active torsions:
REMARK  status: ('A' for Active; 'I' for Inactive)
REMARK    1  A    between atoms: C_4  and  C_5
REMARK    2  A    between atoms: C_7  and  C_8
REMARK    3  A    between atoms: N_14  and  C_15
REMARK    4  A    between atoms: C_15  and  C_16
REMARK    5  A    between atoms: C_19  and  C_20
REMARK                            x       y       z     vdW  Elec       q    Type
REMARK                         _______ _______ _______ _____ _____    ______ ____
ROOT
ATOM      1  C   UNL     1      -1.200  12.741  18.951  0.00  0.00    +0.000 A 
ATOM      2  N   UNL     1      -0.946  13.940  18.350  0.00  0.00    +0.000 N 
ATOM      3  C   UNL     1      -0.216  14.787  19.091  0.00  0.00    +0.000 A 
ATOM      4  N   UNL     1       0.011  14.139  20.265  0.00  0.00    +0.000 N 
ATOM      5  C   UNL     1      -0.556  12.804  20.189  0.00  0.00    +0.000 A 
ATOM      6  H   UNL     1      -1.244  14.159  17.406  0.00  0.00    +0.000 HD
ENDROOT
BRANCH   1  10
ATOM      7  C   UNL     1      -3.495   9.559  17.218  0.00  0.00    +0.000 A 
ATOM      8  C   UNL     1      -2.108   9.587  17.060  0.00  0.00    +0.000 A 
ATOM      9  C   UNL     1      -1.361  10.641  17.599  0.00  0.00    +0.000 A 
ATOM     10  C   UNL     1      -2.007  11.648  18.322  0.00  0.00    +0.000 A 
ATOM     11  C   UNL     1      -3.398  11.631  18.455  0.00  0.00    +0.000 A 
ATOM     12  C   UNL     1      -4.138  10.582  17.909  0.00  0.00    +0.000 A 
ENDBRANCH   1  10
BRANCH   3  13
ATOM     13  C   UNL     1       0.208  16.120  18.510  0.00  0.00    +0.000 A 
ATOM     14  C   UNL     1       1.584  16.372  18.352  0.00  0.00    +0.000 A 
ATOM     15  C   UNL     1       2.039  17.620  17.932  0.00  0.00    +0.000 A 
ATOM     16  C   UNL     1       1.121  18.631  17.651  0.00  0.00    +0.000 A 
ATOM     17  C   UNL     1      -0.242  18.382  17.789  0.00  0.00    +0.000 A 
ATOM     18  C   UNL     1      -0.703  17.141  18.235  0.00  0.00    +0.000 A 
ENDBRANCH   3  13
BRANCH   5  19
ATOM     19  C   UNL     1      -0.367  11.641  21.158  0.00  0.00    +0.000 A 
ATOM     20  C   UNL     1      -1.173  11.477  22.288  0.00  0.00    +0.000 A 
ATOM     21  C   UNL     1      -0.929  10.446  23.202  0.00  0.00    +0.000 A 
ATOM     22  C   UNL     1       0.069   9.511  22.951  0.00  0.00    +0.000 A 
ATOM     23  C   UNL     1       0.838   9.620  21.798  0.00  0.00    +0.000 A 
ATOM     24  C   UNL     1       0.645  10.695  20.924  0.00  0.00    +0.000 A 
ENDBRANCH   5  19
BRANCH   4  25
ATOM     25  C   UNL     1       0.883  14.540  21.386  0.00  0.00    +0.000 C 
BRANCH  25  26
ATOM     26  C   UNL     1       0.519  15.686  22.268  0.00  0.00    +0.000 C 
ATOM     27  C   UNL     1       1.672  16.476  22.873  0.00  0.00    +0.000 C 
ATOM     28  O   UNL     1       0.904  16.977  21.781  0.00  0.00    +0.000 OA
ENDBRANCH  25  26
ENDBRANCH   4  25
TORSDOF 5
ENDMDL
MODEL 8
REMARK VINA RESULT:      -6.3      1.887      2.517
REMARK  Name = 
REMARK  5 active torsions:
REMARK  status: ('A' for Active; 'I' for Inactive)
REMARK    1  A    between atoms: C_4  and  C_5
REMARK    2  A    between atoms: C_7  and  C_8
REMARK    3  A    between atoms: N_14  and  C_15
REMARK    4  A    between atoms: C_15  and  C_16
REMARK    5  A    between atoms: C_19  and  C_20
REMARK                            x       y       z     vdW  Elec       q    Type
REMARK                         _______ _______ _______ _____ _____    ______ ____
ROOT
ATOM      1  C   UNL     1      -1.998  13.864  20.530  0.00  0.00    +0.000 A 
ATOM      2  N   UNL     1      -1.682  14.997  19.837  0.00  0.00    +0.000 N 
ATOM      3  C   UNL     1      -0.377  15.131  19.559  0.00  0.00    +0.000 A 
ATOM      4  N   UNL     1       0.226  14.046  20.118  0.00  0.00    +0.000 N 
ATOM      5  C   UNL     1      -0.789  13.185  20.699  0.00  0.00    +0.000 A 
ATOM      6  H   UNL     1      -2.378  15.662  19.518  0.00  0.00    +0.000 HD
ENDROOT
BRANCH   1  10
ATOM      7  C   UNL     1      -6.004  12.939  21.749  0.00  0.00    +0.000 A 
ATOM      8  C   UNL     1      -5.150  13.622  22.616  0.00  0.00    +0.000 A 
ATOM      9  C   UNL     1      -3.833  13.898  22.232  0.00  0.00    +0.000 A 
ATOM     10  C   UNL     1      -3.387  13.513  20.964  0.00  0.00    +0.000 A 
ATOM     11  C   UNL     1      -4.236  12.805  20.108  0.00  0.00    +0.000 A 
ATOM     12  C   UNL     1      -5.546  12.526  20.501  0.00  0.00    +0.000 A 
ENDBRANCH   1  10
BRANCH   3  13
ATOM     13  C   UNL     1       0.098  16.301  18.722  0.00  0.00    +0.000 A 
ATOM     14  C   UNL     1      -0.867  17.173  18.186  0.00  0.00    +0.000 A 
ATOM     15  C   UNL     1      -0.500  18.197  17.315  0.00  0.00    +0.000 A 
ATOM     16  C   UNL     1       0.841  18.371  16.980  0.00  0.00    +0.000 A 
ATOM     17  C   UNL     1       1.803  17.521  17.522  0.00  0.00    +0.000 A 
ATOM     18  C   UNL     1       1.438  16.476  18.374  0.00  0.00    +0.000 A 
ENDBRANCH   3  13
BRANCH   5  19
ATOM     19  C   UNL     1      -0.628  11.766  21.236  0.00  0.00    +0.000 A 
ATOM     20  C   UNL     1      -0.775  11.463  22.592  0.00  0.00    +0.000 A 
ATOM     21  C   UNL     1      -0.546  10.168  23.069  0.00  0.00    +0.000 A 
ATOM     22  C   UNL     1      -0.256   9.138  22.182  0.00  0.00    +0.000 A 
ATOM     23  C   UNL     1      -0.171   9.407  20.821  0.00  0.00    +0.000 A 
ATOM     24  C   UNL     1      -0.322  10.716  20.353  0.00  0.00    +0.000 A 
ENDBRANCH   5  19
BRANCH   4  25
ATOM     25  C   UNL     1       1.629  13.605  19.994  0.00  0.00    +0.000 C 
BRANCH  25  26
ATOM     26  C   UNL     1       2.557  13.664  21.160  0.00  0.00    +0.000 C 
ATOM     27  C   UNL     1       3.256  14.992  21.411  0.00  0.00    +0.000 C 
ATOM     28  O   UNL     1       2.161  14.552  22.211  0.00  0.00    +0.000 OA
ENDBRANCH  25  26
ENDBRANCH   4  25
TORSDOF 5
ENDMDL
MODEL 9
REMARK VINA RESULT:      -6.2      4.147      7.498
REMARK  Name = 
REMARK  5 active torsions:
REMARK  status: ('A' for Active; 'I' for Inactive)
REMARK    1  A    between atoms: C_4  and  C_5
REMARK    2  A    between atoms: C_7  and  C_8
REMARK    3  A    between atoms: N_14  and  C_15
REMARK    4  A    between atoms: C_15  and  C_16
REMARK    5  A    between atoms: C_19  and  C_20
REMARK                            x       y       z     vdW  Elec       q    Type
REMARK                         _______ _______ _______ _____ _____    ______ ____
ROOT
ATOM      1  C   UNL     1      -3.025  12.657  20.207  0.00  0.00    +0.000 A 
ATOM      2  N   UNL     1      -3.817  13.127  21.215  0.00  0.00    +0.000 N 
ATOM      3  C   UNL     1      -5.134  13.045  20.969  0.00  0.00    +0.000 A 
ATOM      4  N   UNL     1      -5.237  12.518  19.719  0.00  0.00    +0.000 N 
ATOM      5  C   UNL     1      -3.908  12.205  19.224  0.00  0.00    +0.000 A 
ATOM      6  H   UNL     1      -3.448  13.470  22.095  0.00  0.00    +0.000 HD
ENDROOT
BRANCH   1  10
ATOM      7  C   UNL     1       1.258  12.740  20.398  0.00  0.00    +0.000 A 
ATOM      8  C   UNL     1       0.576  13.667  19.609  0.00  0.00    +0.000 A 
ATOM      9  C   UNL     1      -0.820  13.623  19.522  0.00  0.00    +0.000 A 
ATOM     10  C   UNL     1      -1.529  12.664  20.252  0.00  0.00    +0.000 A 
ATOM     11  C   UNL     1      -0.841  11.720  21.020  0.00  0.00    +0.000 A 
ATOM     12  C   UNL     1       0.551  11.765  21.097  0.00  0.00    +0.000 A 
ENDBRANCH   1  10
BRANCH   3  13
ATOM     13  C   UNL     1      -6.126  13.454  22.038  0.00  0.00    +0.000 A 
ATOM     14  C   UNL     1      -6.708  14.732  21.954  0.00  0.00    +0.000 A 
ATOM     15  C   UNL     1      -7.538  15.207  22.967  0.00  0.00    +0.000 A 
ATOM     16  C   UNL     1      -7.807  14.404  24.074  0.00  0.00    +0.000 A 
ATOM     17  C   UNL     1      -7.247  13.131  24.154  0.00  0.00    +0.000 A 
ATOM     18  C   UNL     1      -6.393  12.660  23.154  0.00  0.00    +0.000 A 
ENDBRANCH   3  13
BRANCH   5  19
ATOM     19  C   UNL     1      -3.527  11.406  17.981  0.00  0.00    +0.000 A 
ATOM     20  C   UNL     1      -4.173  11.588  16.754  0.00  0.00    +0.000 A 
ATOM     21  C   UNL     1      -3.857  10.788  15.650  0.00  0.00    +0.000 A 
ATOM     22  C   UNL     1      -2.828   9.857  15.733  0.00  0.00    +0.000 A 
ATOM     23  C   UNL     1      -2.131   9.708  16.926  0.00  0.00    +0.000 A 
ATOM     24  C   UNL     1      -2.498  10.452  18.052  0.00  0.00    +0.000 A 
ENDBRANCH   5  19
BRANCH   4  25
ATOM     25  C   UNL     1      -6.448  12.073  19.003  0.00  0.00    +0.000 C 
BRANCH  25  26
ATOM     26  C   UNL     1      -7.381  11.083  19.616  0.00  0.00    +0.000 C 
ATOM     27  C   UNL     1      -7.073   9.612  19.374  0.00  0.00    +0.000 C 
ATOM     28  O   UNL     1      -6.804  10.245  20.624  0.00  0.00    +0.000 OA
ENDBRANCH  25  26
ENDBRANCH   4  25
TORSDOF 5
ENDMDL
