MODEL 1
REMARK VINA RESULT:      -8.0      0.000      0.000
REMARK  Name = 
REMARK  6 active torsions:
REMARK  status: ('A' for Active; 'I' for Inactive)
REMARK    1  A    between atoms: C_1  and  C_2
REMARK    2  A    between atoms: N_7  and  C_8
REMARK    3  A    between atoms: C_11  and  N_12
REMARK    4  A    between atoms: N_12  and  C_13
REMARK    5  A    between atoms: C_13  and  C_14
REMARK    6  A    between atoms: C_17  and  C_18
REMARK                            x       y       z     vdW  Elec       q    Type
REMARK                         _______ _______ _______ _____ _____    ______ ____
ROOT
ATOM      1  C   UNL     1       2.096   7.776  19.063  0.00  0.00    +0.000 A 
ATOM      2  C   UNL     1       2.776   8.302  17.962  0.00  0.00    +0.000 A 
ATOM      3  C   UNL     1       3.669   7.528  17.206  0.00  0.00    +0.000 A 
ATOM      4  C   UNL     1       3.958   6.202  17.541  0.00  0.00    +0.000 A 
ATOM      5  C   UNL     1       3.280   5.663  18.631  0.00  0.00    +0.000 A 
ATOM      6  C   UNL     1       2.371   6.438  19.376  0.00  0.00    +0.000 A 
ENDROOT
BRANCH   1  13
ATOM      7  C   UNL     1      -1.228  12.469  21.626  0.00  0.00    +0.000 C 
ATOM      8  C   UNL     1      -0.399  11.390  22.274  0.00  0.00    +0.000 C 
ATOM      9  O   UNL     1      -0.559  11.125  23.465  0.00  0.00    +0.000 OA
ATOM     10  N   UNL     1       0.498  10.711  21.474  0.00  0.00    +0.000 N 
ATOM     11  C   UNL     1       1.221   9.555  22.020  0.00  0.00    +0.000 C 
ATOM     12  C   UNL     1       0.906   8.290  21.204  0.00  0.00    +0.000 C 
ATOM     13  N   UNL     1       1.187   8.528  19.777  0.00  0.00    +0.000 N 
ATOM     14  C   UNL     1       0.501   9.691  19.187  0.00  0.00    +0.000 C 
ATOM     15  C   UNL     1       0.753  10.953  20.045  0.00  0.00    +0.000 C 
ENDBRANCH   1  13
BRANCH   4  16
ATOM     16  N   UNL     1       4.772   5.464  16.684  0.00  0.00    +0.000 N 
ATOM     17  H   UNL     1       4.242   5.007  15.948  0.00  0.00    +0.000 HD
BRANCH  16  18
ATOM     18  C   UNL     1       5.998   6.037  16.130  0.00  0.00    +0.000 C 
BRANCH  18  19
ATOM     19  C   UNL     1       6.886   6.569  17.210  0.00  0.00    +0.000 A 
ATOM     20  C   UNL     1       7.584   5.961  18.231  0.00  0.00    +0.000 A 
ATOM     21  C   UNL     1       8.330   6.981  18.867  0.00  0.00    +0.000 A 
ATOM     22  C   UNL     1       8.054   8.161  18.201  0.00  0.00    +0.000 A 
ATOM     23  O   UNL     1       7.162   7.907  17.191  0.00  0.00    +0.000 OA
BRANCH  22  24
ATOM     24  C   UNL     1       8.525   9.540  18.337  0.00  0.00    +0.000 A 
ATOM     25  C   UNL     1       8.045  10.545  17.479  0.00  0.00    +0.000 A 
ATOM     26  C   UNL     1       8.467  11.872  17.613  0.00  0.00    +0.000 A 
ATOM     27  C   UNL     1       9.379  12.210  18.606  0.00  0.00    +0.000 A 
ATOM     28 BR   UNL     1       9.943  14.004  18.794  0.00  0.00    +0.000 Br
ATOM     29  C   UNL     1       9.875  11.233  19.463  0.00  0.00    +0.000 A 
ATOM     30  C   UNL     1       9.449   9.907  19.327  0.00  0.00    +0.000 A 
ENDBRANCH  22  24
ENDBRANCH  18  19
ENDBRANCH  16  18
ENDBRANCH   4  16
TORSDOF 5
ENDMDL
MODEL 2
REMARK VINA RESULT:      -7.6      4.419      6.842
REMARK  Name = 
REMARK  6 active torsions:
REMARK  status: ('A' for Active; 'I' for Inactive)
REMARK    1  A    between atoms: C_1  and  C_2
REMARK    2  A    between atoms: N_7  and  C_8
REMARK    3  A    between atoms: C_11  and  N_12
REMARK    4  A    between atoms: N_12  and  C_13
REMARK    5  A    between atoms: C_13  and  C_14
REMARK    6  A    between atoms: C_17  and  C_18
REMARK                            x       y       z     vdW  Elec       q    Type
REMARK                         _______ _______ _______ _____ _____    ______ ____
ROOT
ATOM      1  C   UNL     1      -1.318  11.677  22.393  0.00  0.00    +0.000 A 
ATOM      2  C   UNL     1      -0.905  10.513  23.046  0.00  0.00    +0.000 A 
ATOM      3  C   UNL     1      -0.175   9.515  22.384  0.00  0.00    +0.000 A 
ATOM      4  C   UNL     1       0.140   9.612  21.026  0.00  0.00    +0.000 A 
ATOM      5  C   UNL     1      -0.258  10.771  20.366  0.00  0.00    +0.000 A 
ATOM      6  C   UNL     1      -0.975  11.779  21.038  0.00  0.00    +0.000 A 
ENDROOT
BRANCH   1  13
ATOM      7  C   UNL     1      -5.476  16.064  24.155  0.00  0.00    +0.000 C 
ATOM      8  C   UNL     1      -4.014  16.184  23.814  0.00  0.00    +0.000 C 
ATOM      9  O   UNL     1      -3.379  17.175  24.175  0.00  0.00    +0.000 OA
ATOM     10  N   UNL     1      -3.433  15.137  23.127  0.00  0.00    +0.000 N 
ATOM     11  C   UNL     1      -1.982  15.138  22.902  0.00  0.00    +0.000 C 
ATOM     12  C   UNL     1      -1.338  13.899  23.546  0.00  0.00    +0.000 C 
ATOM     13  N   UNL     1      -1.999  12.676  23.058  0.00  0.00    +0.000 N 
ATOM     14  C   UNL     1      -3.460  12.636  23.242  0.00  0.00    +0.000 C 
ATOM     15  C   UNL     1      -4.108  13.915  22.661  0.00  0.00    +0.000 C 
ENDBRANCH   1  13
BRANCH   4  16
ATOM     16  N   UNL     1       0.958   8.634  20.463  0.00  0.00    +0.000 N 
ATOM     17  H   UNL     1       1.640   9.026  19.820  0.00  0.00    +0.000 HD
BRANCH  16  18
ATOM     18  C   UNL     1       1.590   7.610  21.294  0.00  0.00    +0.000 C 
BRANCH  18  19
ATOM     19  C   UNL     1       1.877   6.371  20.506  0.00  0.00    +0.000 A 
ATOM     20  C   UNL     1       1.312   5.115  20.498  0.00  0.00    +0.000 A 
ATOM     21  C   UNL     1       1.947   4.398  19.458  0.00  0.00    +0.000 A 
ATOM     22  C   UNL     1       2.866   5.253  18.878  0.00  0.00    +0.000 A 
ATOM     23  O   UNL     1       2.827   6.459  19.527  0.00  0.00    +0.000 OA
BRANCH  22  24
ATOM     24  C   UNL     1       3.794   5.136  17.753  0.00  0.00    +0.000 A 
ATOM     25  C   UNL     1       4.330   6.287  17.148  0.00  0.00    +0.000 A 
ATOM     26  C   UNL     1       5.238   6.191  16.088  0.00  0.00    +0.000 A 
ATOM     27  C   UNL     1       5.619   4.940  15.615  0.00  0.00    +0.000 A 
ATOM     28 BR   UNL     1       6.852   4.808  14.190  0.00  0.00    +0.000 Br
ATOM     29  C   UNL     1       5.097   3.786  16.191  0.00  0.00    +0.000 A 
ATOM     30  C   UNL     1       4.191   3.886  17.253  0.00  0.00    +0.000 A 
ENDBRANCH  22  24
ENDBRANCH  18  19
ENDBRANCH  16  18
ENDBRANCH   4  16
TORSDOF 5
ENDMDL
MODEL 3
REMARK VINA RESULT:      -7.6      4.345      5.577
REMARK  Name = 
REMARK  6 active torsions:
REMARK  status: ('A' for Active; 'I' for Inactive)
REMARK    1  A    between atoms: C_1  and  C_2
REMARK    2  A    between atoms: N_7  and  C_8
REMARK    3  A    between atoms: C_11  and  N_12
REMARK    4  A    between atoms: N_12  and  C_13
REMARK    5  A    between atoms: C_13  and  C_14
REMARK    6  A    between atoms: C_17  and  C_18
REMARK                            x       y       z     vdW  Elec       q    Type
REMARK                         _______ _______ _______ _____ _____    ______ ____
ROOT
ATOM      1  C   UNL     1       1.029   9.566  19.502  0.00  0.00    +0.000 A 
ATOM      2  C   UNL     1       0.845   8.909  20.721  0.00  0.00    +0.000 A 
ATOM      3  C   UNL     1       1.433   7.663  20.986  0.00  0.00    +0.000 A 
ATOM      4  C   UNL     1       2.199   6.993  20.026  0.00  0.00    +0.000 A 
ATOM      5  C   UNL     1       2.396   7.641  18.810  0.00  0.00    +0.000 A 
ATOM      6  C   UNL     1       1.819   8.900  18.556  0.00  0.00    +0.000 A 
ENDROOT
BRANCH   1  13
ATOM      7  C   UNL     1      -0.005  15.758  19.023  0.00  0.00    +0.000 C 
ATOM      8  C   UNL     1      -0.738  14.702  19.809  0.00  0.00    +0.000 C 
ATOM      9  O   UNL     1      -1.880  14.921  20.216  0.00  0.00    +0.000 OA
ATOM     10  N   UNL     1      -0.094  13.498  20.011  0.00  0.00    +0.000 N 
ATOM     11  C   UNL     1      -0.821  12.387  20.640  0.00  0.00    +0.000 C 
ATOM     12  C   UNL     1      -0.877  11.177  19.693  0.00  0.00    +0.000 C 
ATOM     13  N   UNL     1       0.484  10.809  19.262  0.00  0.00    +0.000 N 
ATOM     14  C   UNL     1       1.262  11.897  18.644  0.00  0.00    +0.000 C 
ATOM     15  C   UNL     1       1.261  13.144  19.560  0.00  0.00    +0.000 C 
ENDBRANCH   1  13
BRANCH   4  16
ATOM     16  N   UNL     1       2.838   5.812  20.396  0.00  0.00    +0.000 N 
ATOM     17  H   UNL     1       3.250   5.870  21.323  0.00  0.00    +0.000 HD
BRANCH  16  18
ATOM     18  C   UNL     1       2.184   4.515  20.225  0.00  0.00    +0.000 C 
BRANCH  18  19
ATOM     19  C   UNL     1       2.881   3.687  19.192  0.00  0.00    +0.000 A 
ATOM     20  C   UNL     1       2.782   2.361  18.833  0.00  0.00    +0.000 A 
ATOM     21  C   UNL     1       3.627   2.186  17.712  0.00  0.00    +0.000 A 
ATOM     22  C   UNL     1       4.197   3.416  17.438  0.00  0.00    +0.000 A 
ATOM     23  O   UNL     1       3.745   4.332  18.351  0.00  0.00    +0.000 OA
BRANCH  22  24
ATOM     24  C   UNL     1       5.111   3.905  16.406  0.00  0.00    +0.000 A 
ATOM     25  C   UNL     1       6.338   4.493  16.760  0.00  0.00    +0.000 A 
ATOM     26  C   UNL     1       7.233   4.943  15.784  0.00  0.00    +0.000 A 
ATOM     27  C   UNL     1       6.909   4.816  14.438  0.00  0.00    +0.000 A 
ATOM     28 BR   UNL     1       8.121   5.414  13.117  0.00  0.00    +0.000 Br
ATOM     29  C   UNL     1       5.697   4.245  14.061  0.00  0.00    +0.000 A 
ATOM     30  C   UNL     1       4.805   3.793  15.040  0.00  0.00    +0.000 A 
ENDBRANCH  22  24
ENDBRANCH  18  19
ENDBRANCH  16  18
ENDBRANCH   4  16
TORSDOF 5
ENDMDL
MODEL 4
REMARK VINA RESULT:      -7.6      4.547      7.130
REMARK  Name = 
REMARK  6 active torsions:
REMARK  status: ('A' for Active; 'I' for Inactive)
REMARK    1  A    between atoms: C_1  and  C_2
REMARK    2  A    between atoms: N_7  and  C_8
REMARK    3  A    between atoms: C_11  and  N_12
REMARK    4  A    between atoms: N_12  and  C_13
REMARK    5  A    between atoms: C_13  and  C_14
REMARK    6  A    between atoms: C_17  and  C_18
REMARK                            x       y       z     vdW  Elec       q    Type
REMARK                         _______ _______ _______ _____ _____    ______ ____
ROOT
ATOM      1  C   UNL     1      -1.663  12.313  22.327  0.00  0.00    +0.000 A 
ATOM      2  C   UNL     1      -1.123  12.075  21.061  0.00  0.00    +0.000 A 
ATOM      3  C   UNL     1      -0.468  10.874  20.751  0.00  0.00    +0.000 A 
ATOM      4  C   UNL     1      -0.283   9.870  21.706  0.00  0.00    +0.000 A 
ATOM      5  C   UNL     1      -0.823  10.092  22.970  0.00  0.00    +0.000 A 
ATOM      6  C   UNL     1      -1.496  11.291  23.271  0.00  0.00    +0.000 A 
ENDROOT
BRANCH   1  13
ATOM      7  C   UNL     1      -4.048  17.426  25.121  0.00  0.00    +0.000 C 
ATOM      8  C   UNL     1      -4.736  16.222  24.534  0.00  0.00    +0.000 C 
ATOM      9  O   UNL     1      -5.933  16.277  24.250  0.00  0.00    +0.000 OA
ATOM     10  N   UNL     1      -3.968  15.099  24.304  0.00  0.00    +0.000 N 
ATOM     11  C   UNL     1      -4.556  13.953  23.598  0.00  0.00    +0.000 C 
ATOM     12  C   UNL     1      -3.774  13.659  22.308  0.00  0.00    +0.000 C 
ATOM     13  N   UNL     1      -2.343  13.477  22.615  0.00  0.00    +0.000 N 
ATOM     14  C   UNL     1      -1.712  14.592  23.343  0.00  0.00    +0.000 C 
ATOM     15  C   UNL     1      -2.536  14.943  24.605  0.00  0.00    +0.000 C 
ENDBRANCH   1  13
BRANCH   4  16
ATOM     16  N   UNL     1       0.283   8.663  21.298  0.00  0.00    +0.000 N 
ATOM     17  H   UNL     1      -0.357   8.109  20.735  0.00  0.00    +0.000 HD
BRANCH  16  18
ATOM     18  C   UNL     1       1.623   8.618  20.716  0.00  0.00    +0.000 C 
BRANCH  18  19
ATOM     19  C   UNL     1       1.968   7.237  20.254  0.00  0.00    +0.000 A 
ATOM     20  C   UNL     1       1.524   5.987  20.627  0.00  0.00    +0.000 A 
ATOM     21  C   UNL     1       2.147   5.065  19.755  0.00  0.00    +0.000 A 
ATOM     22  C   UNL     1       2.938   5.797  18.887  0.00  0.00    +0.000 A 
ATOM     23  O   UNL     1       2.833   7.127  19.201  0.00  0.00    +0.000 OA
BRANCH  22  24
ATOM     24  C   UNL     1       3.789   5.450  17.749  0.00  0.00    +0.000 A 
ATOM     25  C   UNL     1       4.379   6.459  16.966  0.00  0.00    +0.000 A 
ATOM     26  C   UNL     1       5.215   6.143  15.890  0.00  0.00    +0.000 A 
ATOM     27  C   UNL     1       5.469   4.812  15.580  0.00  0.00    +0.000 A 
ATOM     28 BR   UNL     1       6.606   4.383  14.133  0.00  0.00    +0.000 Br
ATOM     29  C   UNL     1       4.892   3.795  16.334  0.00  0.00    +0.000 A 
ATOM     30  C   UNL     1       4.058   4.114  17.411  0.00  0.00    +0.000 A 
ENDBRANCH  22  24
ENDBRANCH  18  19
ENDBRANCH  16  18
ENDBRANCH   4  16
TORSDOF 5
ENDMDL
MODEL 5
REMARK VINA RESULT:      -7.5      4.414      6.421
REMARK  Name = 
REMARK  6 active torsions:
REMARK  status: ('A' for Active; 'I' for Inactive)
REMARK    1  A    between atoms: C_1  and  C_2
REMARK    2  A    between atoms: N_7  and  C_8
REMARK    3  A    between atoms: C_11  and  N_12
REMARK    4  A    between atoms: N_12  and  C_13
REMARK    5  A    between atoms: C_13  and  C_14
REMARK    6  A    between atoms: C_17  and  C_18
REMARK                            x       y       z     vdW  Elec       q    Type
REMARK                         _______ _______ _______ _____ _____    ______ ____
ROOT
ATOM      1  C   UNL     1      -0.777  11.108  21.504  0.00  0.00    +0.000 A 
ATOM      2  C   UNL     1      -0.125  10.948  20.278  0.00  0.00    +0.000 A 
ATOM      3  C   UNL     1       0.720   9.856  20.029  0.00  0.00    +0.000 A 
ATOM      4  C   UNL     1       0.989   8.895  21.008  0.00  0.00    +0.000 A 
ATOM      5  C   UNL     1       0.340   9.039  22.230  0.00  0.00    +0.000 A 
ATOM      6  C   UNL     1      -0.523  10.126  22.471  0.00  0.00    +0.000 A 
ENDROOT
BRANCH   1  13
ATOM      7  C   UNL     1      -5.180  14.963  23.826  0.00  0.00    +0.000 C 
ATOM      8  C   UNL     1      -5.086  14.281  22.486  0.00  0.00    +0.000 C 
ATOM      9  O   UNL     1      -5.757  14.691  21.539  0.00  0.00    +0.000 OA
ATOM     10  N   UNL     1      -4.205  13.224  22.371  0.00  0.00    +0.000 N 
ATOM     11  C   UNL     1      -3.968  12.622  21.052  0.00  0.00    +0.000 C 
ATOM     12  C   UNL     1      -2.483  12.738  20.669  0.00  0.00    +0.000 C 
ATOM     13  N   UNL     1      -1.641  12.159  21.730  0.00  0.00    +0.000 N 
ATOM     14  C   UNL     1      -1.857  12.715  23.077  0.00  0.00    +0.000 C 
ATOM     15  C   UNL     1      -3.360  12.669  23.441  0.00  0.00    +0.000 C 
ENDBRANCH   1  13
BRANCH   4  16
ATOM     16  N   UNL     1       1.753   7.785  20.654  0.00  0.00    +0.000 N 
ATOM     17  H   UNL     1       2.751   7.968  20.718  0.00  0.00    +0.000 HD
BRANCH  16  18
ATOM     18  C   UNL     1       1.456   6.461  21.198  0.00  0.00    +0.000 C 
BRANCH  18  19
ATOM     19  C   UNL     1       1.882   5.378  20.257  0.00  0.00    +0.000 A 
ATOM     20  C   UNL     1       1.425   4.098  20.035  0.00  0.00    +0.000 A 
ATOM     21  C   UNL     1       2.165   3.593  18.941  0.00  0.00    +0.000 A 
ATOM     22  C   UNL     1       3.036   4.592  18.545  0.00  0.00    +0.000 A 
ATOM     23  O   UNL     1       2.867   5.682  19.358  0.00  0.00    +0.000 OA
BRANCH  22  24
ATOM     24  C   UNL     1       4.022   4.715  17.471  0.00  0.00    +0.000 A 
ATOM     25  C   UNL     1       4.567   3.567  16.869  0.00  0.00    +0.000 A 
ATOM     26  C   UNL     1       5.493   3.668  15.825  0.00  0.00    +0.000 A 
ATOM     27  C   UNL     1       5.889   4.922  15.371  0.00  0.00    +0.000 A 
ATOM     28 BR   UNL     1       7.131   5.060  13.954  0.00  0.00    +0.000 Br
ATOM     29  C   UNL     1       5.371   6.073  15.955  0.00  0.00    +0.000 A 
ATOM     30  C   UNL     1       4.443   5.968  16.998  0.00  0.00    +0.000 A 
ENDBRANCH  22  24
ENDBRANCH  18  19
ENDBRANCH  16  18
ENDBRANCH   4  16
TORSDOF 5
ENDMDL
MODEL 6
REMARK VINA RESULT:      -7.5      5.450     10.572
REMARK  Name = 
REMARK  6 active torsions:
REMARK  status: ('A' for Active; 'I' for Inactive)
REMARK    1  A    between atoms: C_1  and  C_2
REMARK    2  A    between atoms: N_7  and  C_8
REMARK    3  A    between atoms: C_11  and  N_12
REMARK    4  A    between atoms: N_12  and  C_13
REMARK    5  A    between atoms: C_13  and  C_14
REMARK    6  A    between atoms: C_17  and  C_18
REMARK                            x       y       z     vdW  Elec       q    Type
REMARK                         _______ _______ _______ _____ _____    ______ ____
ROOT
ATOM      1  C   UNL     1       2.187   7.525  18.956  0.00  0.00    +0.000 A 
ATOM      2  C   UNL     1       1.748   7.929  20.219  0.00  0.00    +0.000 A 
ATOM      3  C   UNL     1       1.080   9.148  20.414  0.00  0.00    +0.000 A 
ATOM      4  C   UNL     1       0.857  10.040  19.361  0.00  0.00    +0.000 A 
ATOM      5  C   UNL     1       1.283   9.645  18.096  0.00  0.00    +0.000 A 
ATOM      6  C   UNL     1       1.937   8.413  17.902  0.00  0.00    +0.000 A 
ENDROOT
BRANCH   1  13
ATOM      7  C   UNL     1       3.451   1.403  18.203  0.00  0.00    +0.000 C 
ATOM      8  C   UNL     1       3.912   2.374  19.259  0.00  0.00    +0.000 C 
ATOM      9  O   UNL     1       4.899   2.111  19.947  0.00  0.00    +0.000 OA
ATOM     10  N   UNL     1       3.210   3.556  19.385  0.00  0.00    +0.000 N 
ATOM     11  C   UNL     1       3.707   4.597  20.295  0.00  0.00    +0.000 C 
ATOM     12  C   UNL     1       3.999   5.892  19.520  0.00  0.00    +0.000 C 
ATOM     13  N   UNL     1       2.805   6.307  18.762  0.00  0.00    +0.000 N 
ATOM     14  C   UNL     1       2.255   5.288  17.851  0.00  0.00    +0.000 C 
ATOM     15  C   UNL     1       2.028   3.959  18.608  0.00  0.00    +0.000 C 
ENDBRANCH   1  13
BRANCH   4  16
ATOM     16  N   UNL     1       0.096  11.181  19.609  0.00  0.00    +0.000 N 
ATOM     17  H   UNL     1       0.536  11.798  20.285  0.00  0.00    +0.000 HD
BRANCH  16  18
ATOM     18  C   UNL     1      -0.464  11.967  18.510  0.00  0.00    +0.000 C 
BRANCH  18  19
ATOM     19  C   UNL     1      -1.960  11.937  18.529  0.00  0.00    +0.000 A 
ATOM     20  C   UNL     1      -2.895  11.380  17.684  0.00  0.00    +0.000 A 
ATOM     21  C   UNL     1      -4.157  11.599  18.285  0.00  0.00    +0.000 A 
ATOM     22  C   UNL     1      -3.930  12.275  19.470  0.00  0.00    +0.000 A 
ATOM     23  O   UNL     1      -2.584  12.489  19.613  0.00  0.00    +0.000 OA
BRANCH  22  24
ATOM     24  C   UNL     1      -4.794  12.751  20.550  0.00  0.00    +0.000 A 
ATOM     25  C   UNL     1      -6.031  13.354  20.261  0.00  0.00    +0.000 A 
ATOM     26  C   UNL     1      -6.879  13.792  21.284  0.00  0.00    +0.000 A 
ATOM     27  C   UNL     1      -6.498  13.636  22.612  0.00  0.00    +0.000 A 
ATOM     28 BR   UNL     1      -7.646  14.217  23.996  0.00  0.00    +0.000 Br
ATOM     29  C   UNL     1      -5.276  13.049  22.925  0.00  0.00    +0.000 A 
ATOM     30  C   UNL     1      -4.431  12.610  21.899  0.00  0.00    +0.000 A 
ENDBRANCH  22  24
ENDBRANCH  18  19
ENDBRANCH  16  18
ENDBRANCH   4  16
TORSDOF 5
ENDMDL
MODEL 7
REMARK VINA RESULT:      -7.5      4.337      5.662
REMARK  Name = 
REMARK  6 active torsions:
REMARK  status: ('A' for Active; 'I' for Inactive)
REMARK    1  A    between atoms: C_1  and  C_2
REMARK    2  A    between atoms: N_7  and  C_8
REMARK    3  A    between atoms: C_11  and  N_12
REMARK    4  A    between atoms: N_12  and  C_13
REMARK    5  A    between atoms: C_13  and  C_14
REMARK    6  A    between atoms: C_17  and  C_18
REMARK                            x       y       z     vdW  Elec       q    Type
REMARK                         _______ _______ _______ _____ _____    ______ ____
ROOT
ATOM      1  C   UNL     1       0.594  10.322  19.716  0.00  0.00    +0.000 A 
ATOM      2  C   UNL     1       0.416   9.749  20.977  0.00  0.00    +0.000 A 
ATOM      3  C   UNL     1       0.957   8.496  21.303  0.00  0.00    +0.000 A 
ATOM      4  C   UNL     1       1.667   7.736  20.368  0.00  0.00    +0.000 A 
ATOM      5  C   UNL     1       1.859   8.300  19.110  0.00  0.00    +0.000 A 
ATOM      6  C   UNL     1       1.329   9.566  18.793  0.00  0.00    +0.000 A 
ENDROOT
BRANCH   1  13
ATOM      7  C   UNL     1      -0.133  16.498  18.733  0.00  0.00    +0.000 C 
ATOM      8  C   UNL     1      -0.829  15.573  19.696  0.00  0.00    +0.000 C 
ATOM      9  O   UNL     1      -1.900  15.906  20.203  0.00  0.00    +0.000 OA
ATOM     10  N   UNL     1      -0.235  14.352  19.947  0.00  0.00    +0.000 N 
ATOM     11  C   UNL     1      -0.946  13.357  20.761  0.00  0.00    +0.000 C 
ATOM     12  C   UNL     1      -1.181  12.071  19.952  0.00  0.00    +0.000 C 
ATOM     13  N   UNL     1       0.097  11.572  19.414  0.00  0.00    +0.000 N 
ATOM     14  C   UNL     1       0.858  12.542  18.607  0.00  0.00    +0.000 C 
ATOM     15  C   UNL     1       1.036  13.866  19.387  0.00  0.00    +0.000 C 
ENDBRANCH   1  13
BRANCH   4  16
ATOM     16  N   UNL     1       2.264   6.552  20.794  0.00  0.00    +0.000 N 
ATOM     17  H   UNL     1       2.476   6.563  21.788  0.00  0.00    +0.000 HD
BRANCH  16  18
ATOM     18  C   UNL     1       1.711   5.251  20.419  0.00  0.00    +0.000 C 
BRANCH  18  19
ATOM     19  C   UNL     1       2.761   4.362  19.832  0.00  0.00    +0.000 A 
ATOM     20  C   UNL     1       3.128   3.058  20.079  0.00  0.00    +0.000 A 
ATOM     21  C   UNL     1       4.127   2.737  19.130  0.00  0.00    +0.000 A 
ATOM     22  C   UNL     1       4.318   3.860  18.346  0.00  0.00    +0.000 A 
ATOM     23  O   UNL     1       3.486   4.858  18.784  0.00  0.00    +0.000 OA
BRANCH  22  24
ATOM     24  C   UNL     1       5.162   4.162  17.190  0.00  0.00    +0.000 A 
ATOM     25  C   UNL     1       4.671   3.993  15.884  0.00  0.00    +0.000 A 
ATOM     26  C   UNL     1       5.458   4.301  14.769  0.00  0.00    +0.000 A 
ATOM     27  C   UNL     1       6.751   4.778  14.948  0.00  0.00    +0.000 A 
ATOM     28 BR   UNL     1       7.813   5.204  13.444  0.00  0.00    +0.000 Br
ATOM     29  C   UNL     1       7.265   4.947  16.229  0.00  0.00    +0.000 A 
ATOM     30  C   UNL     1       6.473   4.641  17.343  0.00  0.00    +0.000 A 
ENDBRANCH  22  24
ENDBRANCH  18  19
ENDBRANCH  16  18
ENDBRANCH   4  16
TORSDOF 5
ENDMDL
MODEL 8
REMARK VINA RESULT:      -7.5      4.450      7.245
REMARK  Name = 
REMARK  6 active torsions:
REMARK  status: ('A' for Active; 'I' for Inactive)
REMARK    1  A    between atoms: C_1  and  C_2
REMARK    2  A    between atoms: N_7  and  C_8
REMARK    3  A    between atoms: C_11  and  N_12
REMARK    4  A    between atoms: N_12  and  C_13
REMARK    5  A    between atoms: C_13  and  C_14
REMARK    6  A    between atoms: C_17  and  C_18
REMARK                            x       y       z     vdW  Elec       q    Type
REMARK                         _______ _______ _______ _____ _____    ______ ____
ROOT
ATOM      1  C   UNL     1      -1.889  12.271  22.765  0.00  0.00    +0.000 A 
ATOM      2  C   UNL     1      -1.147  12.757  21.686  0.00  0.00    +0.000 A 
ATOM      3  C   UNL     1      -0.080  12.030  21.136  0.00  0.00    +0.000 A 
ATOM      4  C   UNL     1       0.324  10.802  21.667  0.00  0.00    +0.000 A 
ATOM      5  C   UNL     1      -0.413  10.303  22.738  0.00  0.00    +0.000 A 
ATOM      6  C   UNL     1      -1.494  11.027  23.275  0.00  0.00    +0.000 A 
ENDROOT
BRANCH   1  13
ATOM      7  C   UNL     1      -7.126  15.690  23.483  0.00  0.00    +0.000 C 
ATOM      8  C   UNL     1      -5.714  15.961  23.930  0.00  0.00    +0.000 C 
ATOM      9  O   UNL     1      -5.497  16.793  24.812  0.00  0.00    +0.000 OA
ATOM     10  N   UNL     1      -4.707  15.222  23.340  0.00  0.00    +0.000 N 
ATOM     11  C   UNL     1      -3.333  15.342  23.844  0.00  0.00    +0.000 C 
ATOM     12  C   UNL     1      -2.823  13.978  24.340  0.00  0.00    +0.000 C 
ATOM     13  N   UNL     1      -2.963  12.969  23.275  0.00  0.00    +0.000 N 
ATOM     14  C   UNL     1      -4.321  12.827  22.721  0.00  0.00    +0.000 C 
ATOM     15  C   UNL     1      -4.870  14.206  22.288  0.00  0.00    +0.000 C 
ENDBRANCH   1  13
BRANCH   4  16
ATOM     16  N   UNL     1       1.321  10.089  21.005  0.00  0.00    +0.000 N 
ATOM     17  H   UNL     1       1.858   9.501  21.636  0.00  0.00    +0.000 HD
BRANCH  16  18
ATOM     18  C   UNL     1       1.033   9.359  19.771  0.00  0.00    +0.000 C 
BRANCH  18  19
ATOM     19  C   UNL     1       1.698   8.019  19.764  0.00  0.00    +0.000 A 
ATOM     20  C   UNL     1       1.629   6.936  20.613  0.00  0.00    +0.000 A 
ATOM     21  C   UNL     1       2.411   5.915  20.024  0.00  0.00    +0.000 A 
ATOM     22  C   UNL     1       2.915   6.423  18.840  0.00  0.00    +0.000 A 
ATOM     23  O   UNL     1       2.483   7.715  18.687  0.00  0.00    +0.000 OA
BRANCH  22  24
ATOM     24  C   UNL     1       3.744   5.871  17.768  0.00  0.00    +0.000 A 
ATOM     25  C   UNL     1       3.766   4.487  17.525  0.00  0.00    +0.000 A 
ATOM     26  C   UNL     1       4.535   3.947  16.488  0.00  0.00    +0.000 A 
ATOM     27  C   UNL     1       5.297   4.786  15.683  0.00  0.00    +0.000 A 
ATOM     28 BR   UNL     1       6.328   4.060  14.277  0.00  0.00    +0.000 Br
ATOM     29  C   UNL     1       5.299   6.159  15.908  0.00  0.00    +0.000 A 
ATOM     30  C   UNL     1       4.526   6.696  16.945  0.00  0.00    +0.000 A 
ENDBRANCH  22  24
ENDBRANCH  18  19
ENDBRANCH  16  18
ENDBRANCH   4  16
TORSDOF 5
ENDMDL
MODEL 9
REMARK VINA RESULT:      -7.4      4.467      6.639
REMARK  Name = 
REMARK  6 active torsions:
REMARK  status: ('A' for Active; 'I' for Inactive)
REMARK    1  A    between atoms: C_1  and  C_2
REMARK    2  A    between atoms: N_7  and  C_8
REMARK    3  A    between atoms: C_11  and  N_12
REMARK    4  A    between atoms: N_12  and  C_13
REMARK    5  A    between atoms: C_13  and  C_14
REMARK    6  A    between atoms: C_17  and  C_18
REMARK                            x       y       z     vdW  Elec       q    Type
REMARK                         _______ _______ _______ _____ _____    ______ ____
ROOT
ATOM      1  C   UNL     1      -1.469  11.014  19.093  0.00  0.00    +0.000 A 
ATOM      2  C   UNL     1      -0.744  10.270  18.159  0.00  0.00    +0.000 A 
ATOM      3  C   UNL     1       0.324   9.444  18.541  0.00  0.00    +0.000 A 
ATOM      4  C   UNL     1       0.746   9.355  19.871  0.00  0.00    +0.000 A 
ATOM      5  C   UNL     1       0.027  10.086  20.812  0.00  0.00    +0.000 A 
ATOM      6  C   UNL     1      -1.056  10.900  20.427  0.00  0.00    +0.000 A 
ENDROOT
BRANCH   1  13
ATOM      7  C   UNL     1      -6.884  14.222  18.930  0.00  0.00    +0.000 C 
ATOM      8  C   UNL     1      -6.411  13.058  18.099  0.00  0.00    +0.000 C 
ATOM      9  O   UNL     1      -6.960  12.808  17.025  0.00  0.00    +0.000 OA
ATOM     10  N   UNL     1      -5.339  12.330  18.574  0.00  0.00    +0.000 N 
ATOM     11  C   UNL     1      -4.748  11.282  17.733  0.00  0.00    +0.000 C 
ATOM     12  C   UNL     1      -3.268  11.590  17.451  0.00  0.00    +0.000 C 
ATOM     13  N   UNL     1      -2.544  11.792  18.719  0.00  0.00    +0.000 N 
ATOM     14  C   UNL     1      -3.112  12.820  19.609  0.00  0.00    +0.000 C 
ATOM     15  C   UNL     1      -4.620  12.557  19.838  0.00  0.00    +0.000 C 
ENDBRANCH   1  13
BRANCH   4  16
ATOM     16  N   UNL     1       1.743   8.435  20.189  0.00  0.00    +0.000 N 
ATOM     17  H   UNL     1       2.578   8.884  20.555  0.00  0.00    +0.000 HD
BRANCH  16  18
ATOM     18  C   UNL     1       1.441   7.237  20.971  0.00  0.00    +0.000 C 
BRANCH  18  19
ATOM     19  C   UNL     1       2.100   6.027  20.387  0.00  0.00    +0.000 A 
ATOM     20  C   UNL     1       1.998   4.681  20.663  0.00  0.00    +0.000 A 
ATOM     21  C   UNL     1       2.794   4.015  19.702  0.00  0.00    +0.000 A 
ATOM     22  C   UNL     1       3.340   4.987  18.883  0.00  0.00    +0.000 A 
ATOM     23  O   UNL     1       2.919   6.220  19.310  0.00  0.00    +0.000 OA
BRANCH  22  24
ATOM     24  C   UNL     1       4.202   4.954  17.702  0.00  0.00    +0.000 A 
ATOM     25  C   UNL     1       4.602   3.726  17.145  0.00  0.00    +0.000 A 
ATOM     26  C   UNL     1       5.406   3.679  16.001  0.00  0.00    +0.000 A 
ATOM     27  C   UNL     1       5.825   4.861  15.401  0.00  0.00    +0.000 A 
ATOM     28 BR   UNL     1       6.903   4.798  13.850  0.00  0.00    +0.000 Br
ATOM     29  C   UNL     1       5.449   6.088  15.936  0.00  0.00    +0.000 A 
ATOM     30  C   UNL     1       4.642   6.132  17.080  0.00  0.00    +0.000 A 
ENDBRANCH  22  24
ENDBRANCH  18  19
ENDBRANCH  16  18
ENDBRANCH   4  16
TORSDOF 5
ENDMDL
