MODEL 1
REMARK VINA RESULT:      -7.4      0.000      0.000
REMARK  Name = 
REMARK  5 active torsions:
REMARK  status: ('A' for Active; 'I' for Inactive)
REMARK    1  A    between atoms: C_1  and  C_2
REMARK    2  A    between atoms: C_2  and  O_3
REMARK    3  A    between atoms: O_3  and  C_4
REMARK    4  A    between atoms: C_9  and  C_10
REMARK    5  A    between atoms: C_19  and  C_20
REMARK                            x       y       z     vdW  Elec       q    Type
REMARK                         _______ _______ _______ _____ _____    ______ ____
ROOT
ATOM      1  C   UNL     1       1.506   9.471  18.492  0.00  0.00    +0.000 C 
ATOM      2  O   UNL     1       2.179   9.954  17.583  0.00  0.00    +0.000 OA
ATOM      3  N   UNL     1       1.719   8.229  19.058  0.00  0.00    +0.000 N 
ATOM      4  C   UNL     1       2.686   7.396  18.548  0.00  0.00    +0.000 A 
ATOM      5  N   UNL     1       3.367   7.542  17.438  0.00  0.00    +0.000 NA
ATOM      6  C   UNL     1       4.242   6.495  17.289  0.00  0.00    +0.000 A 
ATOM      7  C   UNL     1       4.238   5.571  18.310  0.00  0.00    +0.000 A 
ATOM      8  S   UNL     1       3.037   5.986  19.461  0.00  0.00    +0.000 S 
ATOM      9  C   UNL     1       5.103   4.352  18.368  0.00  0.00    +0.000 C 
ATOM     10  C   UNL     1       6.204   4.388  17.269  0.00  0.00    +0.000 C 
ATOM     11  C   UNL     1       7.455   5.140  17.741  0.00  0.00    +0.000 C 
ATOM     12  C   UNL     1       5.673   4.980  15.940  0.00  0.00    +0.000 C 
ATOM     13  C   UNL     1       5.129   6.407  16.097  0.00  0.00    +0.000 C 
ATOM     14  H   UNL     1       1.195   7.933  19.870  0.00  0.00    +0.000 HD
ENDROOT
BRANCH   1  20
ATOM     15  C   UNL     1      -0.867  10.512  18.504  0.00  0.00    +0.000 A 
ATOM     16  C   UNL     1      -1.795  11.325  19.185  0.00  0.00    +0.000 A 
ATOM     17  C   UNL     1      -1.437  12.022  20.340  0.00  0.00    +0.000 A 
ATOM     18  C   UNL     1      -0.154  11.894  20.852  0.00  0.00    +0.000 A 
ATOM     19  C   UNL     1       0.753  11.048  20.224  0.00  0.00    +0.000 A 
ATOM     20  C   UNL     1       0.415  10.334  19.053  0.00  0.00    +0.000 A 
BRANCH  15  21
ATOM     21  O   UNL     1      -1.175   9.889  17.318  0.00  0.00    +0.000 OA
BRANCH  21  23
ATOM     22  C   UNL     1      -2.731  10.333  15.548  0.00  0.00    +0.000 C 
ATOM     23  C   UNL     1      -2.570   9.875  16.983  0.00  0.00    +0.000 C 
ENDBRANCH  21  23
ENDBRANCH  15  21
ENDBRANCH   1  20
TORSDOF 3
ENDMDL
MODEL 2
REMARK VINA RESULT:      -7.4      1.247      2.494
REMARK  Name = 
REMARK  5 active torsions:
REMARK  status: ('A' for Active; 'I' for Inactive)
REMARK    1  A    between atoms: C_1  and  C_2
REMARK    2  A    between atoms: C_2  and  O_3
REMARK    3  A    between atoms: O_3  and  C_4
REMARK    4  A    between atoms: C_9  and  C_10
REMARK    5  A    between atoms: C_19  and  C_20
REMARK                            x       y       z     vdW  Elec       q    Type
REMARK                         _______ _______ _______ _____ _____    ______ ____
ROOT
ATOM      1  C   UNL     1       1.301   9.318  18.180  0.00  0.00    +0.000 C 
ATOM      2  O   UNL     1       2.071   9.837  17.374  0.00  0.00    +0.000 OA
ATOM      3  N   UNL     1       1.526   8.120  18.830  0.00  0.00    +0.000 N 
ATOM      4  C   UNL     1       2.636   7.369  18.525  0.00  0.00    +0.000 A 
ATOM      5  N   UNL     1       3.479   7.547  17.537  0.00  0.00    +0.000 NA
ATOM      6  C   UNL     1       4.457   6.585  17.582  0.00  0.00    +0.000 A 
ATOM      7  C   UNL     1       4.364   5.696  18.629  0.00  0.00    +0.000 A 
ATOM      8  S   UNL     1       2.954   6.027  19.546  0.00  0.00    +0.000 S 
ATOM      9  C   UNL     1       5.312   4.568  18.885  0.00  0.00    +0.000 C 
ATOM     10  C   UNL     1       6.575   4.677  17.982  0.00  0.00    +0.000 C 
ATOM     11  C   UNL     1       7.656   5.559  18.620  0.00  0.00    +0.000 C 
ATOM     12  C   UNL     1       6.225   5.175  16.558  0.00  0.00    +0.000 C 
ATOM     13  C   UNL     1       5.536   6.548  16.558  0.00  0.00    +0.000 C 
ATOM     14  H   UNL     1       0.901   7.799  19.556  0.00  0.00    +0.000 HD
ENDROOT
BRANCH   1  20
ATOM     15  C   UNL     1      -0.200  10.764  19.720  0.00  0.00    +0.000 A 
ATOM     16  C   UNL     1      -1.405  11.482  19.856  0.00  0.00    +0.000 A 
ATOM     17  C   UNL     1      -2.378  11.462  18.855  0.00  0.00    +0.000 A 
ATOM     18  C   UNL     1      -2.151  10.748  17.688  0.00  0.00    +0.000 A 
ATOM     19  C   UNL     1      -0.941  10.084  17.515  0.00  0.00    +0.000 A 
ATOM     20  C   UNL     1       0.058  10.089  18.514  0.00  0.00    +0.000 A 
BRANCH  15  21
ATOM     21  O   UNL     1       0.729  10.700  20.730  0.00  0.00    +0.000 OA
BRANCH  21  23
ATOM     22  C   UNL     1      -0.076   8.828  21.995  0.00  0.00    +0.000 C 
ATOM     23  C   UNL     1       0.208  10.316  22.011  0.00  0.00    +0.000 C 
ENDBRANCH  21  23
ENDBRANCH  15  21
ENDBRANCH   1  20
TORSDOF 3
ENDMDL
MODEL 3
REMARK VINA RESULT:      -7.3      2.460      7.693
REMARK  Name = 
REMARK  5 active torsions:
REMARK  status: ('A' for Active; 'I' for Inactive)
REMARK    1  A    between atoms: C_1  and  C_2
REMARK    2  A    between atoms: C_2  and  O_3
REMARK    3  A    between atoms: O_3  and  C_4
REMARK    4  A    between atoms: C_9  and  C_10
REMARK    5  A    between atoms: C_19  and  C_20
REMARK                            x       y       z     vdW  Elec       q    Type
REMARK                         _______ _______ _______ _____ _____    ______ ____
ROOT
ATOM      1  C   UNL     1       2.491   7.834  18.245  0.00  0.00    +0.000 C 
ATOM      2  O   UNL     1       2.316   8.751  17.445  0.00  0.00    +0.000 OA
ATOM      3  N   UNL     1       2.028   7.822  19.547  0.00  0.00    +0.000 N 
ATOM      4  C   UNL     1       1.395   8.928  20.062  0.00  0.00    +0.000 A 
ATOM      5  N   UNL     1       1.302  10.122  19.529  0.00  0.00    +0.000 NA
ATOM      6  C   UNL     1       0.581  10.946  20.357  0.00  0.00    +0.000 A 
ATOM      7  C   UNL     1       0.106  10.358  21.508  0.00  0.00    +0.000 A 
ATOM      8  S   UNL     1       0.648   8.734  21.595  0.00  0.00    +0.000 S 
ATOM      9  C   UNL     1      -0.702  11.054  22.557  0.00  0.00    +0.000 C 
ATOM     10  C   UNL     1      -1.174  12.455  22.069  0.00  0.00    +0.000 C 
ATOM     11  C   UNL     1      -2.494  12.371  21.291  0.00  0.00    +0.000 C 
ATOM     12  C   UNL     1      -0.085  13.171  21.233  0.00  0.00    +0.000 C 
ATOM     13  C   UNL     1       0.341  12.369  19.994  0.00  0.00    +0.000 C 
ATOM     14  H   UNL     1       2.117   6.996  20.121  0.00  0.00    +0.000 HD
ENDROOT
BRANCH   1  20
ATOM     15  C   UNL     1       2.854   5.282  17.972  0.00  0.00    +0.000 A 
ATOM     16  C   UNL     1       3.614   4.256  17.377  0.00  0.00    +0.000 A 
ATOM     17  C   UNL     1       4.759   4.542  16.630  0.00  0.00    +0.000 A 
ATOM     18  C   UNL     1       5.146   5.860  16.441  0.00  0.00    +0.000 A 
ATOM     19  C   UNL     1       4.371   6.886  16.973  0.00  0.00    +0.000 A 
ATOM     20  C   UNL     1       3.211   6.621  17.733  0.00  0.00    +0.000 A 
BRANCH  15  21
ATOM     21  O   UNL     1       1.777   5.016  18.784  0.00  0.00    +0.000 OA
BRANCH  21  23
ATOM     22  C   UNL     1       1.057   3.314  20.312  0.00  0.00    +0.000 C 
ATOM     23  C   UNL     1       1.412   3.631  18.874  0.00  0.00    +0.000 C 
ENDBRANCH  21  23
ENDBRANCH  15  21
ENDBRANCH   1  20
TORSDOF 3
ENDMDL
MODEL 4
REMARK VINA RESULT:      -7.3      2.661      8.089
REMARK  Name = 
REMARK  5 active torsions:
REMARK  status: ('A' for Active; 'I' for Inactive)
REMARK    1  A    between atoms: C_1  and  C_2
REMARK    2  A    between atoms: C_2  and  O_3
REMARK    3  A    between atoms: O_3  and  C_4
REMARK    4  A    between atoms: C_9  and  C_10
REMARK    5  A    between atoms: C_19  and  C_20
REMARK                            x       y       z     vdW  Elec       q    Type
REMARK                         _______ _______ _______ _____ _____    ______ ____
ROOT
ATOM      1  C   UNL     1       4.232   6.234  18.015  0.00  0.00    +0.000 C 
ATOM      2  O   UNL     1       4.319   5.895  19.193  0.00  0.00    +0.000 OA
ATOM      3  N   UNL     1       3.396   7.225  17.537  0.00  0.00    +0.000 N 
ATOM      4  C   UNL     1       2.515   7.851  18.386  0.00  0.00    +0.000 A 
ATOM      5  N   UNL     1       2.213   7.518  19.617  0.00  0.00    +0.000 NA
ATOM      6  C   UNL     1       1.293   8.402  20.125  0.00  0.00    +0.000 A 
ATOM      7  C   UNL     1       0.924   9.422  19.277  0.00  0.00    +0.000 A 
ATOM      8  S   UNL     1       1.697   9.223  17.760  0.00  0.00    +0.000 S 
ATOM      9  C   UNL     1      -0.058  10.501  19.609  0.00  0.00    +0.000 C 
ATOM     10  C   UNL     1      -0.415  10.493  21.124  0.00  0.00    +0.000 C 
ATOM     11  C   UNL     1       0.578  11.322  21.947  0.00  0.00    +0.000 C 
ATOM     12  C   UNL     1      -0.528   9.053  21.682  0.00  0.00    +0.000 C 
ATOM     13  C   UNL     1       0.765   8.242  21.507  0.00  0.00    +0.000 C 
ATOM     14  H   UNL     1       3.446   7.525  16.574  0.00  0.00    +0.000 HD
ENDROOT
BRANCH   1  20
ATOM     15  C   UNL     1       6.328   6.088  16.499  0.00  0.00    +0.000 A 
ATOM     16  C   UNL     1       7.107   5.291  15.636  0.00  0.00    +0.000 A 
ATOM     17  C   UNL     1       6.688   4.016  15.251  0.00  0.00    +0.000 A 
ATOM     18  C   UNL     1       5.498   3.504  15.746  0.00  0.00    +0.000 A 
ATOM     19  C   UNL     1       4.749   4.256  16.645  0.00  0.00    +0.000 A 
ATOM     20  C   UNL     1       5.152   5.549  17.048  0.00  0.00    +0.000 A 
BRANCH  15  21
ATOM     21  O   UNL     1       6.680   7.378  16.817  0.00  0.00    +0.000 OA
BRANCH  21  23
ATOM     22  C   UNL     1       8.121   8.957  17.905  0.00  0.00    +0.000 C 
ATOM     23  C   UNL     1       7.726   7.499  17.794  0.00  0.00    +0.000 C 
ENDBRANCH  21  23
ENDBRANCH  15  21
ENDBRANCH   1  20
TORSDOF 3
ENDMDL
MODEL 5
REMARK VINA RESULT:      -7.2      1.986      2.867
REMARK  Name = 
REMARK  5 active torsions:
REMARK  status: ('A' for Active; 'I' for Inactive)
REMARK    1  A    between atoms: C_1  and  C_2
REMARK    2  A    between atoms: C_2  and  O_3
REMARK    3  A    between atoms: O_3  and  C_4
REMARK    4  A    between atoms: C_9  and  C_10
REMARK    5  A    between atoms: C_19  and  C_20
REMARK                            x       y       z     vdW  Elec       q    Type
REMARK                         _______ _______ _______ _____ _____    ______ ____
ROOT
ATOM      1  C   UNL     1       0.223   9.217  20.901  0.00  0.00    +0.000 C 
ATOM      2  O   UNL     1      -0.040   8.213  21.560  0.00  0.00    +0.000 OA
ATOM      3  N   UNL     1       1.089   9.252  19.825  0.00  0.00    +0.000 N 
ATOM      4  C   UNL     1       1.801   8.129  19.479  0.00  0.00    +0.000 A 
ATOM      5  N   UNL     1       1.914   7.010  20.151  0.00  0.00    +0.000 NA
ATOM      6  C   UNL     1       2.710   6.130  19.460  0.00  0.00    +0.000 A 
ATOM      7  C   UNL     1       3.175   6.583  18.246  0.00  0.00    +0.000 A 
ATOM      8  S   UNL     1       2.662   8.199  17.996  0.00  0.00    +0.000 S 
ATOM      9  C   UNL     1       4.054   5.804  17.320  0.00  0.00    +0.000 C 
ATOM     10  C   UNL     1       4.164   4.316  17.763  0.00  0.00    +0.000 C 
ATOM     11  C   UNL     1       3.024   3.466  17.189  0.00  0.00    +0.000 C 
ATOM     12  C   UNL     1       4.235   4.177  19.303  0.00  0.00    +0.000 C 
ATOM     13  C   UNL     1       3.015   4.783  20.014  0.00  0.00    +0.000 C 
ATOM     14  H   UNL     1       1.184  10.086  19.263  0.00  0.00    +0.000 HD
ENDROOT
BRANCH   1  20
ATOM     15  C   UNL     1      -0.877  11.508  20.391  0.00  0.00    +0.000 A 
ATOM     16  C   UNL     1      -1.602  12.606  20.894  0.00  0.00    +0.000 A 
ATOM     17  C   UNL     1      -1.882  12.727  22.257  0.00  0.00    +0.000 A 
ATOM     18  C   UNL     1      -1.468  11.737  23.136  0.00  0.00    +0.000 A 
ATOM     19  C   UNL     1      -0.802  10.619  22.644  0.00  0.00    +0.000 A 
ATOM     20  C   UNL     1      -0.507  10.475  21.270  0.00  0.00    +0.000 A 
BRANCH  15  21
ATOM     21  O   UNL     1      -0.516  11.416  19.068  0.00  0.00    +0.000 OA
BRANCH  21  23
ATOM     22  C   UNL     1      -2.096  10.110  17.825  0.00  0.00    +0.000 C 
ATOM     23  C   UNL     1      -1.601  11.507  18.134  0.00  0.00    +0.000 C 
ENDBRANCH  21  23
ENDBRANCH  15  21
ENDBRANCH   1  20
TORSDOF 3
ENDMDL
MODEL 6
REMARK VINA RESULT:      -7.2      5.934      8.219
REMARK  Name = 
REMARK  5 active torsions:
REMARK  status: ('A' for Active; 'I' for Inactive)
REMARK    1  A    between atoms: C_1  and  C_2
REMARK    2  A    between atoms: C_2  and  O_3
REMARK    3  A    between atoms: O_3  and  C_4
REMARK    4  A    between atoms: C_9  and  C_10
REMARK    5  A    between atoms: C_19  and  C_20
REMARK                            x       y       z     vdW  Elec       q    Type
REMARK                         _______ _______ _______ _____ _____    ______ ____
ROOT
ATOM      1  C   UNL     1       8.925   9.950  18.373  0.00  0.00    +0.000 C 
ATOM      2  O   UNL     1       8.287  10.326  17.392  0.00  0.00    +0.000 OA
ATOM      3  N   UNL     1       8.865   8.681  18.916  0.00  0.00    +0.000 N 
ATOM      4  C   UNL     1       7.977   7.759  18.414  0.00  0.00    +0.000 A 
ATOM      5  N   UNL     1       7.007   7.963  17.556  0.00  0.00    +0.000 NA
ATOM      6  C   UNL     1       6.353   6.782  17.306  0.00  0.00    +0.000 A 
ATOM      7  C   UNL     1       6.853   5.679  17.961  0.00  0.00    +0.000 A 
ATOM      8  S   UNL     1       8.142   6.151  18.988  0.00  0.00    +0.000 S 
ATOM      9  C   UNL     1       6.307   4.291  17.845  0.00  0.00    +0.000 C 
ATOM     10  C   UNL     1       5.272   4.187  16.687  0.00  0.00    +0.000 C 
ATOM     11  C   UNL     1       5.950   3.894  15.342  0.00  0.00    +0.000 C 
ATOM     12  C   UNL     1       4.383   5.451  16.593  0.00  0.00    +0.000 C 
ATOM     13  C   UNL     1       5.193   6.737  16.375  0.00  0.00    +0.000 C 
ATOM     14  H   UNL     1       9.491   8.405  19.659  0.00  0.00    +0.000 HD
ENDROOT
BRANCH   1  20
ATOM     15  C   UNL     1       9.862  11.409  20.299  0.00  0.00    +0.000 A 
ATOM     16  C   UNL     1      10.864  12.306  20.719  0.00  0.00    +0.000 A 
ATOM     17  C   UNL     1      11.816  12.800  19.826  0.00  0.00    +0.000 A 
ATOM     18  C   UNL     1      11.801  12.382  18.503  0.00  0.00    +0.000 A 
ATOM     19  C   UNL     1      10.854  11.451  18.089  0.00  0.00    +0.000 A 
ATOM     20  C   UNL     1       9.881  10.938  18.974  0.00  0.00    +0.000 A 
BRANCH  15  21
ATOM     21  O   UNL     1       8.864  10.981  21.143  0.00  0.00    +0.000 OA
BRANCH  21  23
ATOM     22  C   UNL     1       8.111  11.512  23.357  0.00  0.00    +0.000 C 
ATOM     23  C   UNL     1       8.255  12.012  21.934  0.00  0.00    +0.000 C 
ENDBRANCH  21  23
ENDBRANCH  15  21
ENDBRANCH   1  20
TORSDOF 3
ENDMDL
MODEL 7
REMARK VINA RESULT:      -7.1      1.187      2.489
REMARK  Name = 
REMARK  5 active torsions:
REMARK  status: ('A' for Active; 'I' for Inactive)
REMARK    1  A    between atoms: C_1  and  C_2
REMARK    2  A    between atoms: C_2  and  O_3
REMARK    3  A    between atoms: O_3  and  C_4
REMARK    4  A    between atoms: C_9  and  C_10
REMARK    5  A    between atoms: C_19  and  C_20
REMARK                            x       y       z     vdW  Elec       q    Type
REMARK                         _______ _______ _______ _____ _____    ______ ____
ROOT
ATOM      1  C   UNL     1       1.366   9.462  18.207  0.00  0.00    +0.000 C 
ATOM      2  O   UNL     1       2.155   9.970  17.412  0.00  0.00    +0.000 OA
ATOM      3  N   UNL     1       1.550   8.245  18.834  0.00  0.00    +0.000 N 
ATOM      4  C   UNL     1       2.636   7.464  18.516  0.00  0.00    +0.000 A 
ATOM      5  N   UNL     1       3.486   7.633  17.533  0.00  0.00    +0.000 NA
ATOM      6  C   UNL     1       4.433   6.639  17.562  0.00  0.00    +0.000 A 
ATOM      7  C   UNL     1       4.308   5.734  18.592  0.00  0.00    +0.000 A 
ATOM      8  S   UNL     1       2.907   6.094  19.512  0.00  0.00    +0.000 S 
ATOM      9  C   UNL     1       5.218   4.571  18.827  0.00  0.00    +0.000 C 
ATOM     10  C   UNL     1       6.487   4.656  17.929  0.00  0.00    +0.000 C 
ATOM     11  C   UNL     1       7.594   5.490  18.585  0.00  0.00    +0.000 C 
ATOM     12  C   UNL     1       6.156   5.192  16.515  0.00  0.00    +0.000 C 
ATOM     13  C   UNL     1       5.513   6.586  16.539  0.00  0.00    +0.000 C 
ATOM     14  H   UNL     1       0.914   7.931  19.553  0.00  0.00    +0.000 HD
ENDROOT
BRANCH   1  20
ATOM     15  C   UNL     1       0.054  11.233  19.570  0.00  0.00    +0.000 A 
ATOM     16  C   UNL     1      -1.157  11.934  19.736  0.00  0.00    +0.000 A 
ATOM     17  C   UNL     1      -2.284  11.627  18.970  0.00  0.00    +0.000 A 
ATOM     18  C   UNL     1      -2.210  10.634  18.005  0.00  0.00    +0.000 A 
ATOM     19  C   UNL     1      -1.004   9.974  17.791  0.00  0.00    +0.000 A 
ATOM     20  C   UNL     1       0.148  10.266  18.554  0.00  0.00    +0.000 A 
BRANCH  15  21
ATOM     21  O   UNL     1       1.145  11.460  20.375  0.00  0.00    +0.000 OA
BRANCH  21  23
ATOM     22  C   UNL     1       2.399  13.119  19.179  0.00  0.00    +0.000 C 
ATOM     23  C   UNL     1       1.589  12.824  20.425  0.00  0.00    +0.000 C 
ENDBRANCH  21  23
ENDBRANCH  15  21
ENDBRANCH   1  20
TORSDOF 3
ENDMDL
MODEL 8
REMARK VINA RESULT:      -7.0      2.474      3.450
REMARK  Name = 
REMARK  5 active torsions:
REMARK  status: ('A' for Active; 'I' for Inactive)
REMARK    1  A    between atoms: C_1  and  C_2
REMARK    2  A    between atoms: C_2  and  O_3
REMARK    3  A    between atoms: O_3  and  C_4
REMARK    4  A    between atoms: C_9  and  C_10
REMARK    5  A    between atoms: C_19  and  C_20
REMARK                            x       y       z     vdW  Elec       q    Type
REMARK                         _______ _______ _______ _____ _____    ______ ____
ROOT
ATOM      1  C   UNL     1       0.019   8.785  21.223  0.00  0.00    +0.000 C 
ATOM      2  O   UNL     1      -0.631   7.919  21.806  0.00  0.00    +0.000 OA
ATOM      3  N   UNL     1       1.111   8.543  20.413  0.00  0.00    +0.000 N 
ATOM      4  C   UNL     1       1.602   7.265  20.283  0.00  0.00    +0.000 A 
ATOM      5  N   UNL     1       1.274   6.204  20.980  0.00  0.00    +0.000 NA
ATOM      6  C   UNL     1       1.988   5.119  20.536  0.00  0.00    +0.000 A 
ATOM      7  C   UNL     1       2.836   5.361  19.480  0.00  0.00    +0.000 A 
ATOM      8  S   UNL     1       2.800   7.027  19.078  0.00  0.00    +0.000 S 
ATOM      9  C   UNL     1       3.711   4.337  18.830  0.00  0.00    +0.000 C 
ATOM     10  C   UNL     1       3.352   2.901  19.310  0.00  0.00    +0.000 C 
ATOM     11  C   UNL     1       2.226   2.285  18.470  0.00  0.00    +0.000 C 
ATOM     12  C   UNL     1       2.998   2.868  20.817  0.00  0.00    +0.000 C 
ATOM     13  C   UNL     1       1.817   3.784  21.172  0.00  0.00    +0.000 C 
ATOM     14  H   UNL     1       1.538   9.289  19.882  0.00  0.00    +0.000 HD
ENDROOT
BRANCH   1  20
ATOM     15  C   UNL     1      -0.686  11.110  20.321  0.00  0.00    +0.000 A 
ATOM     16  C   UNL     1      -1.185  12.392  20.626  0.00  0.00    +0.000 A 
ATOM     17  C   UNL     1      -1.377  12.800  21.948  0.00  0.00    +0.000 A 
ATOM     18  C   UNL     1      -1.102  11.922  22.986  0.00  0.00    +0.000 A 
ATOM     19  C   UNL     1      -0.665  10.633  22.697  0.00  0.00    +0.000 A 
ATOM     20  C   UNL     1      -0.463  10.199  21.368  0.00  0.00    +0.000 A 
BRANCH  15  21
ATOM     21  O   UNL     1      -0.407  10.723  19.032  0.00  0.00    +0.000 OA
BRANCH  21  23
ATOM     22  C   UNL     1      -1.852   9.956  17.278  0.00  0.00    +0.000 C 
ATOM     23  C   UNL     1      -1.354  11.162  18.047  0.00  0.00    +0.000 C 
ENDBRANCH  21  23
ENDBRANCH  15  21
ENDBRANCH   1  20
TORSDOF 3
ENDMDL
MODEL 9
REMARK VINA RESULT:      -7.0      2.596      8.027
REMARK  Name = 
REMARK  5 active torsions:
REMARK  status: ('A' for Active; 'I' for Inactive)
REMARK    1  A    between atoms: C_1  and  C_2
REMARK    2  A    between atoms: C_2  and  O_3
REMARK    3  A    between atoms: O_3  and  C_4
REMARK    4  A    between atoms: C_9  and  C_10
REMARK    5  A    between atoms: C_19  and  C_20
REMARK                            x       y       z     vdW  Elec       q    Type
REMARK                         _______ _______ _______ _____ _____    ______ ____
ROOT
ATOM      1  C   UNL     1       1.867   8.339  19.019  0.00  0.00    +0.000 C 
ATOM      2  O   UNL     1       1.508   9.094  18.117  0.00  0.00    +0.000 OA
ATOM      3  N   UNL     1       1.496   8.459  20.345  0.00  0.00    +0.000 N 
ATOM      4  C   UNL     1       0.743   9.533  20.754  0.00  0.00    +0.000 A 
ATOM      5  N   UNL     1       0.441  10.610  20.071  0.00  0.00    +0.000 NA
ATOM      6  C   UNL     1      -0.336  11.444  20.835  0.00  0.00    +0.000 A 
ATOM      7  C   UNL     1      -0.645  10.975  22.093  0.00  0.00    +0.000 A 
ATOM      8  S   UNL     1       0.133   9.471  22.357  0.00  0.00    +0.000 S 
ATOM      9  C   UNL     1      -1.476  11.704  23.100  0.00  0.00    +0.000 C 
ATOM     10  C   UNL     1      -2.179  12.939  22.465  0.00  0.00    +0.000 C 
ATOM     11  C   UNL     1      -3.520  12.562  21.823  0.00  0.00    +0.000 C 
ATOM     12  C   UNL     1      -1.264  13.663  21.448  0.00  0.00    +0.000 C 
ATOM     13  C   UNL     1      -0.806  12.751  20.300  0.00  0.00    +0.000 C 
ATOM     14  H   UNL     1       1.742   7.747  21.018  0.00  0.00    +0.000 HD
ENDROOT
BRANCH   1  20
ATOM     15  C   UNL     1       2.749   5.913  19.244  0.00  0.00    +0.000 A 
ATOM     16  C   UNL     1       3.580   4.906  18.714  0.00  0.00    +0.000 A 
ATOM     17  C   UNL     1       4.436   5.163  17.640  0.00  0.00    +0.000 A 
ATOM     18  C   UNL     1       4.453   6.422  17.060  0.00  0.00    +0.000 A 
ATOM     19  C   UNL     1       3.594   7.408  17.535  0.00  0.00    +0.000 A 
ATOM     20  C   UNL     1       2.722   7.173  18.620  0.00  0.00    +0.000 A 
BRANCH  15  21
ATOM     21  O   UNL     1       1.968   5.704  20.355  0.00  0.00    +0.000 OA
BRANCH  21  23
ATOM     22  C   UNL     1       0.919   3.549  20.447  0.00  0.00    +0.000 C 
ATOM     23  C   UNL     1       2.075   4.396  20.937  0.00  0.00    +0.000 C 
ENDBRANCH  21  23
ENDBRANCH  15  21
ENDBRANCH   1  20
TORSDOF 3
ENDMDL
