MODEL 1
REMARK VINA RESULT:      -9.4      0.000      0.000
REMARK  Name = 
REMARK  5 active torsions:
REMARK  status: ('A' for Active; 'I' for Inactive)
REMARK    1  A    between atoms: N_3  and  C_4
REMARK    2  A    between atoms: C_4  and  C_5
REMARK    3  A    between atoms: N_9  and  C_10
REMARK    4  A    between atoms: C_15  and  C_16
REMARK    5  A    between atoms: C_21  and  C_22
REMARK                            x       y       z     vdW  Elec       q    Type
REMARK                         _______ _______ _______ _____ _____    ______ ____
ROOT
ATOM      1  C   UNL     1       4.147   4.247  17.992  0.00  0.00    +0.000 A 
ATOM      2  C   UNL     1       3.772   3.552  19.140  0.00  0.00    +0.000 A 
ATOM      3  C   UNL     1       2.939   4.156  20.070  0.00  0.00    +0.000 A 
ATOM      4  F   UNL     1       2.580   3.480  21.170  0.00  0.00    +0.000 F 
ATOM      5  C   UNL     1       2.463   5.445  19.883  0.00  0.00    +0.000 A 
ATOM      6  C   UNL     1       2.835   6.181  18.750  0.00  0.00    +0.000 A 
ATOM      7  C   UNL     1       3.699   5.572  17.822  0.00  0.00    +0.000 A 
ENDROOT
BRANCH   6   8
ATOM      8  C   UNL     1       2.341   7.557  18.612  0.00  0.00    +0.000 A 
ATOM      9  C   UNL     1       2.495   8.418  17.532  0.00  0.00    +0.000 A 
ATOM     10  N   UNL     1       1.955   9.649  17.763  0.00  0.00    +0.000 NA
ATOM     11  C   UNL     1       1.474   9.584  18.983  0.00  0.00    +0.000 A 
ATOM     12  C   UNL     1       0.826  10.585  19.760  0.00  0.00    +0.000 A 
ATOM     13  C   UNL     1       0.407  10.331  21.024  0.00  0.00    +0.000 A 
ATOM     14  C   UNL     1       0.636   8.989  21.583  0.00  0.00    +0.000 A 
ATOM     15  C   UNL     1       1.269   8.048  20.863  0.00  0.00    +0.000 A 
ATOM     16  N   UNL     1       1.678   8.331  19.559  0.00  0.00    +0.000 N 
BRANCH  13  17
ATOM     17  C   UNL     1      -0.238  11.420  21.809  0.00  0.00    +0.000 A 
ATOM     18  N   UNL     1       0.228  12.677  21.667  0.00  0.00    +0.000 NA
ATOM     19  C   UNL     1      -0.365  13.628  22.410  0.00  0.00    +0.000 A 
ATOM     20  C   UNL     1      -1.397  13.376  23.281  0.00  0.00    +0.000 A 
ATOM     21  C   UNL     1      -1.803  12.064  23.352  0.00  0.00    +0.000 A 
ATOM     22  N   UNL     1      -1.246  11.071  22.632  0.00  0.00    +0.000 NA
ENDBRANCH  13  17
ENDBRANCH   6   8
BRANCH   1  26
ATOM     23  O   UNL     1       5.302   5.508  15.563  0.00  0.00    +0.000 OA
ATOM     24  C   UNL     1       5.455   4.332  15.867  0.00  0.00    +0.000 C 
ATOM     25  N   UNL     1       6.226   3.489  15.094  0.00  0.00    +0.000 N 
ATOM     26  N   UNL     1       4.946   3.685  16.972  0.00  0.00    +0.000 N 
ATOM     27  H   UNL     1       5.964   2.514  15.115  0.00  0.00    +0.000 HD
ATOM     28  H   UNL     1       5.249   2.732  17.104  0.00  0.00    +0.000 HD
BRANCH  25  29
ATOM     29  C   UNL     1       6.728   3.987  13.806  0.00  0.00    +0.000 C 
BRANCH  29  30
ATOM     30  C   UNL     1       5.938   3.515  12.578  0.00  0.00    +0.000 C 
ATOM     31  F   UNL     1       6.343   4.142  11.448  0.00  0.00    +0.000 F 
ATOM     32  F   UNL     1       6.037   2.185  12.378  0.00  0.00    +0.000 F 
ATOM     33  F   UNL     1       4.622   3.807  12.733  0.00  0.00    +0.000 F 
ENDBRANCH  29  30
ENDBRANCH  25  29
ENDBRANCH   1  26
TORSDOF 5
ENDMDL
MODEL 2
REMARK VINA RESULT:      -9.4      1.440      1.965
REMARK  Name = 
REMARK  5 active torsions:
REMARK  status: ('A' for Active; 'I' for Inactive)
REMARK    1  A    between atoms: N_3  and  C_4
REMARK    2  A    between atoms: C_4  and  C_5
REMARK    3  A    between atoms: N_9  and  C_10
REMARK    4  A    between atoms: C_15  and  C_16
REMARK    5  A    between atoms: C_21  and  C_22
REMARK                            x       y       z     vdW  Elec       q    Type
REMARK                         _______ _______ _______ _____ _____    ______ ____
ROOT
ATOM      1  C   UNL     1       3.905   5.299  19.251  0.00  0.00    +0.000 A 
ATOM      2  C   UNL     1       3.310   4.434  20.168  0.00  0.00    +0.000 A 
ATOM      3  C   UNL     1       2.171   4.832  20.852  0.00  0.00    +0.000 A 
ATOM      4  F   UNL     1       1.602   3.993  21.729  0.00  0.00    +0.000 F 
ATOM      5  C   UNL     1       1.601   6.079  20.641  0.00  0.00    +0.000 A 
ATOM      6  C   UNL     1       2.184   6.982  19.741  0.00  0.00    +0.000 A 
ATOM      7  C   UNL     1       3.352   6.583  19.069  0.00  0.00    +0.000 A 
ENDROOT
BRANCH   6   8
ATOM      8  C   UNL     1       1.571   8.308  19.580  0.00  0.00    +0.000 A 
ATOM      9  C   UNL     1       1.615   9.142  18.470  0.00  0.00    +0.000 A 
ATOM     10  N   UNL     1       0.982  10.331  18.684  0.00  0.00    +0.000 NA
ATOM     11  C   UNL     1       0.549  10.267  19.922  0.00  0.00    +0.000 A 
ATOM     12  C   UNL     1      -0.153  11.235  20.692  0.00  0.00    +0.000 A 
ATOM     13  C   UNL     1      -0.506  10.990  21.978  0.00  0.00    +0.000 A 
ATOM     14  C   UNL     1      -0.146   9.690  22.568  0.00  0.00    +0.000 A 
ATOM     15  C   UNL     1       0.539   8.782  21.854  0.00  0.00    +0.000 A 
ATOM     16  N   UNL     1       0.878   9.055  20.528  0.00  0.00    +0.000 N 
BRANCH  13  17
ATOM     17  C   UNL     1      -1.213  12.047  22.752  0.00  0.00    +0.000 A 
ATOM     18  N   UNL     1      -2.504  11.845  23.086  0.00  0.00    +0.000 NA
ATOM     19  C   UNL     1      -3.113  12.834  23.764  0.00  0.00    +0.000 A 
ATOM     20  C   UNL     1      -2.491  14.005  24.119  0.00  0.00    +0.000 A 
ATOM     21  C   UNL     1      -1.175  14.115  23.736  0.00  0.00    +0.000 A 
ATOM     22  N   UNL     1      -0.514  13.157  23.057  0.00  0.00    +0.000 NA
ENDBRANCH  13  17
ENDBRANCH   6   8
BRANCH   1  26
ATOM     23  O   UNL     1       4.059   4.191  16.499  0.00  0.00    +0.000 OA
ATOM     24  C   UNL     1       5.033   4.442  17.196  0.00  0.00    +0.000 C 
ATOM     25  N   UNL     1       6.316   4.249  16.725  0.00  0.00    +0.000 N 
ATOM     26  N   UNL     1       5.033   4.951  18.476  0.00  0.00    +0.000 N 
ATOM     27  H   UNL     1       7.012   4.037  17.425  0.00  0.00    +0.000 HD
ATOM     28  H   UNL     1       5.937   5.175  18.863  0.00  0.00    +0.000 HD
BRANCH  25  29
ATOM     29  C   UNL     1       6.490   3.582  15.428  0.00  0.00    +0.000 C 
BRANCH  29  30
ATOM     30  C   UNL     1       6.517   4.523  14.215  0.00  0.00    +0.000 C 
ATOM     31  F   UNL     1       6.235   3.867  13.065  0.00  0.00    +0.000 F 
ATOM     32  F   UNL     1       5.651   5.549  14.337  0.00  0.00    +0.000 F 
ATOM     33  F   UNL     1       7.757   5.051  14.066  0.00  0.00    +0.000 F 
ENDBRANCH  29  30
ENDBRANCH  25  29
ENDBRANCH   1  26
TORSDOF 5
ENDMDL
MODEL 3
REMARK VINA RESULT:      -9.2      2.567      3.503
REMARK  Name = 
REMARK  5 active torsions:
REMARK  status: ('A' for Active; 'I' for Inactive)
REMARK    1  A    between atoms: N_3  and  C_4
REMARK    2  A    between atoms: C_4  and  C_5
REMARK    3  A    between atoms: N_9  and  C_10
REMARK    4  A    between atoms: C_15  and  C_16
REMARK    5  A    between atoms: C_21  and  C_22
REMARK                            x       y       z     vdW  Elec       q    Type
REMARK                         _______ _______ _______ _____ _____    ______ ____
ROOT
ATOM      1  C   UNL     1       6.313   4.290  16.899  0.00  0.00    +0.000 A 
ATOM      2  C   UNL     1       7.492   4.537  17.600  0.00  0.00    +0.000 A 
ATOM      3  C   UNL     1       7.445   5.204  18.815  0.00  0.00    +0.000 A 
ATOM      4  F   UNL     1       8.583   5.435  19.484  0.00  0.00    +0.000 F 
ATOM      5  C   UNL     1       6.242   5.632  19.356  0.00  0.00    +0.000 A 
ATOM      6  C   UNL     1       5.039   5.418  18.671  0.00  0.00    +0.000 A 
ATOM      7  C   UNL     1       5.095   4.763  17.428  0.00  0.00    +0.000 A 
ENDROOT
BRANCH   6   8
ATOM      8  C   UNL     1       3.793   5.924  19.261  0.00  0.00    +0.000 A 
ATOM      9  C   UNL     1       3.024   5.347  20.265  0.00  0.00    +0.000 A 
ATOM     10  N   UNL     1       1.894   6.061  20.535  0.00  0.00    +0.000 NA
ATOM     11  C   UNL     1       1.929   7.078  19.704  0.00  0.00    +0.000 A 
ATOM     12  C   UNL     1       0.993   8.132  19.517  0.00  0.00    +0.000 A 
ATOM     13  C   UNL     1       1.197   9.097  18.585  0.00  0.00    +0.000 A 
ATOM     14  C   UNL     1       2.418   9.032  17.765  0.00  0.00    +0.000 A 
ATOM     15  C   UNL     1       3.293   8.024  17.921  0.00  0.00    +0.000 A 
ATOM     16  N   UNL     1       3.065   7.053  18.896  0.00  0.00    +0.000 N 
BRANCH  13  17
ATOM     17  C   UNL     1       0.173  10.162  18.405  0.00  0.00    +0.000 A 
ATOM     18  N   UNL     1      -0.981   9.847  17.784  0.00  0.00    +0.000 NA
ATOM     19  C   UNL     1      -1.870  10.842  17.620  0.00  0.00    +0.000 A 
ATOM     20  C   UNL     1      -1.655  12.129  18.048  0.00  0.00    +0.000 A 
ATOM     21  C   UNL     1      -0.450  12.350  18.672  0.00  0.00    +0.000 A 
ATOM     22  N   UNL     1       0.477  11.391  18.865  0.00  0.00    +0.000 NA
ENDBRANCH  13  17
ENDBRANCH   6   8
BRANCH   1  26
ATOM     23  O   UNL     1       6.239   5.281  14.100  0.00  0.00    +0.000 OA
ATOM     24  C   UNL     1       6.240   4.098  14.411  0.00  0.00    +0.000 C 
ATOM     25  N   UNL     1       6.238   3.107  13.451  0.00  0.00    +0.000 N 
ATOM     26  N   UNL     1       6.269   3.571  15.684  0.00  0.00    +0.000 N 
ATOM     27  H   UNL     1       5.802   2.237  13.720  0.00  0.00    +0.000 HD
ATOM     28  H   UNL     1       6.353   2.568  15.745  0.00  0.00    +0.000 HD
BRANCH  25  29
ATOM     29  C   UNL     1       6.068   3.498  12.045  0.00  0.00    +0.000 C 
BRANCH  29  30
ATOM     30  C   UNL     1       4.689   3.185  11.449  0.00  0.00    +0.000 C 
ATOM     31  F   UNL     1       4.309   4.118  10.544  0.00  0.00    +0.000 F 
ATOM     32  F   UNL     1       4.645   1.978  10.851  0.00  0.00    +0.000 F 
ATOM     33  F   UNL     1       3.750   3.190  12.428  0.00  0.00    +0.000 F 
ENDBRANCH  29  30
ENDBRANCH  25  29
ENDBRANCH   1  26
TORSDOF 5
ENDMDL
MODEL 4
REMARK VINA RESULT:      -9.2      0.984      1.233
REMARK  Name = 
REMARK  5 active torsions:
REMARK  status: ('A' for Active; 'I' for Inactive)
REMARK    1  A    between atoms: N_3  and  C_4
REMARK    2  A    between atoms: C_4  and  C_5
REMARK    3  A    between atoms: N_9  and  C_10
REMARK    4  A    between atoms: C_15  and  C_16
REMARK    5  A    between atoms: C_21  and  C_22
REMARK                            x       y       z     vdW  Elec       q    Type
REMARK                         _______ _______ _______ _____ _____    ______ ____
ROOT
ATOM      1  C   UNL     1       3.542   4.503  18.726  0.00  0.00    +0.000 A 
ATOM      2  C   UNL     1       3.180   3.882  19.920  0.00  0.00    +0.000 A 
ATOM      3  C   UNL     1       2.396   4.561  20.841  0.00  0.00    +0.000 A 
ATOM      4  F   UNL     1       2.049   3.955  21.984  0.00  0.00    +0.000 F 
ATOM      5  C   UNL     1       1.956   5.854  20.599  0.00  0.00    +0.000 A 
ATOM      6  C   UNL     1       2.317   6.517  19.419  0.00  0.00    +0.000 A 
ATOM      7  C   UNL     1       3.132   5.833  18.500  0.00  0.00    +0.000 A 
ENDROOT
BRANCH   6   8
ATOM      8  C   UNL     1       1.864   7.901  19.223  0.00  0.00    +0.000 A 
ATOM      9  C   UNL     1       2.067   8.720  18.119  0.00  0.00    +0.000 A 
ATOM     10  N   UNL     1       1.555   9.972  18.295  0.00  0.00    +0.000 NA
ATOM     11  C   UNL     1       1.042   9.961  19.504  0.00  0.00    +0.000 A 
ATOM     12  C   UNL     1       0.403  11.004  20.231  0.00  0.00    +0.000 A 
ATOM     13  C   UNL     1      -0.054  10.804  21.492  0.00  0.00    +0.000 A 
ATOM     14  C   UNL     1       0.126   9.476  22.101  0.00  0.00    +0.000 A 
ATOM     15  C   UNL     1       0.751   8.495  21.428  0.00  0.00    +0.000 A 
ATOM     16  N   UNL     1       1.198   8.724  20.126  0.00  0.00    +0.000 N 
BRANCH  13  17
ATOM     17  C   UNL     1      -0.688  11.935  22.223  0.00  0.00    +0.000 A 
ATOM     18  N   UNL     1      -0.092  13.144  22.180  0.00  0.00    +0.000 NA
ATOM     19  C   UNL     1      -0.683  14.133  22.873  0.00  0.00    +0.000 A 
ATOM     20  C   UNL     1      -1.836  13.966  23.600  0.00  0.00    +0.000 A 
ATOM     21  C   UNL     1      -2.368  12.699  23.580  0.00  0.00    +0.000 A 
ATOM     22  N   UNL     1      -1.820  11.670  22.903  0.00  0.00    +0.000 NA
ENDBRANCH  13  17
ENDBRANCH   6   8
BRANCH   1  26
ATOM     23  O   UNL     1       5.793   5.530  17.083  0.00  0.00    +0.000 OA
ATOM     24  C   UNL     1       5.332   4.401  16.990  0.00  0.00    +0.000 C 
ATOM     25  N   UNL     1       5.864   3.483  16.107  0.00  0.00    +0.000 N 
ATOM     26  N   UNL     1       4.291   3.863  17.715  0.00  0.00    +0.000 N 
ATOM     27  H   UNL     1       5.219   2.790  15.755  0.00  0.00    +0.000 HD
ATOM     28  H   UNL     1       4.105   2.884  17.562  0.00  0.00    +0.000 HD
BRANCH  25  29
ATOM     29  C   UNL     1       6.890   3.939  15.160  0.00  0.00    +0.000 C 
BRANCH  29  30
ATOM     30  C   UNL     1       6.392   4.167  13.726  0.00  0.00    +0.000 C 
ATOM     31  F   UNL     1       6.437   3.030  12.992  0.00  0.00    +0.000 F 
ATOM     32  F   UNL     1       5.132   4.644  13.685  0.00  0.00    +0.000 F 
ATOM     33  F   UNL     1       7.190   5.066  13.097  0.00  0.00    +0.000 F 
ENDBRANCH  29  30
ENDBRANCH  25  29
ENDBRANCH   1  26
TORSDOF 5
ENDMDL
MODEL 5
REMARK VINA RESULT:      -9.2      2.500      3.481
REMARK  Name = 
REMARK  5 active torsions:
REMARK  status: ('A' for Active; 'I' for Inactive)
REMARK    1  A    between atoms: N_3  and  C_4
REMARK    2  A    between atoms: C_4  and  C_5
REMARK    3  A    between atoms: N_9  and  C_10
REMARK    4  A    between atoms: C_15  and  C_16
REMARK    5  A    between atoms: C_21  and  C_22
REMARK                            x       y       z     vdW  Elec       q    Type
REMARK                         _______ _______ _______ _____ _____    ______ ____
ROOT
ATOM      1  C   UNL     1       6.327   4.316  16.883  0.00  0.00    +0.000 A 
ATOM      2  C   UNL     1       7.506   4.570  17.580  0.00  0.00    +0.000 A 
ATOM      3  C   UNL     1       7.458   5.231  18.798  0.00  0.00    +0.000 A 
ATOM      4  F   UNL     1       8.597   5.468  19.464  0.00  0.00    +0.000 F 
ATOM      5  C   UNL     1       6.254   5.646  19.347  0.00  0.00    +0.000 A 
ATOM      6  C   UNL     1       5.050   5.424  18.665  0.00  0.00    +0.000 A 
ATOM      7  C   UNL     1       5.107   4.775  17.419  0.00  0.00    +0.000 A 
ENDROOT
BRANCH   6   8
ATOM      8  C   UNL     1       3.802   5.917  19.263  0.00  0.00    +0.000 A 
ATOM      9  C   UNL     1       3.042   5.328  20.266  0.00  0.00    +0.000 A 
ATOM     10  N   UNL     1       1.907   6.031  20.545  0.00  0.00    +0.000 NA
ATOM     11  C   UNL     1       1.930   7.052  19.719  0.00  0.00    +0.000 A 
ATOM     12  C   UNL     1       0.984   8.100  19.541  0.00  0.00    +0.000 A 
ATOM     13  C   UNL     1       1.177   9.071  18.614  0.00  0.00    +0.000 A 
ATOM     14  C   UNL     1       2.395   9.020  17.788  0.00  0.00    +0.000 A 
ATOM     15  C   UNL     1       3.279   8.020  17.936  0.00  0.00    +0.000 A 
ATOM     16  N   UNL     1       3.063   7.041  18.907  0.00  0.00    +0.000 N 
BRANCH  13  17
ATOM     17  C   UNL     1       0.143  10.128  18.444  0.00  0.00    +0.000 A 
ATOM     18  N   UNL     1       0.304  11.296  19.098  0.00  0.00    +0.000 NA
ATOM     19  C   UNL     1      -0.664  12.216  18.937  0.00  0.00    +0.000 A 
ATOM     20  C   UNL     1      -1.775  12.019  18.155  0.00  0.00    +0.000 A 
ATOM     21  C   UNL     1      -1.847  10.798  17.527  0.00  0.00    +0.000 A 
ATOM     22  N   UNL     1      -0.907   9.839  17.651  0.00  0.00    +0.000 NA
ENDBRANCH  13  17
ENDBRANCH   6   8
BRANCH   1  26
ATOM     23  O   UNL     1       6.148   5.319  14.093  0.00  0.00    +0.000 OA
ATOM     24  C   UNL     1       6.204   4.135  14.396  0.00  0.00    +0.000 C 
ATOM     25  N   UNL     1       6.221   3.151  13.430  0.00  0.00    +0.000 N 
ATOM     26  N   UNL     1       6.284   3.603  15.664  0.00  0.00    +0.000 N 
ATOM     27  H   UNL     1       5.826   2.262  13.703  0.00  0.00    +0.000 HD
ATOM     28  H   UNL     1       6.410   2.604  15.717  0.00  0.00    +0.000 HD
BRANCH  25  29
ATOM     29  C   UNL     1       6.003   3.542  12.031  0.00  0.00    +0.000 C 
BRANCH  29  30
ATOM     30  C   UNL     1       4.611   3.208  11.474  0.00  0.00    +0.000 C 
ATOM     31  F   UNL     1       4.613   2.043  10.785  0.00  0.00    +0.000 F 
ATOM     32  F   UNL     1       3.674   3.123  12.440  0.00  0.00    +0.000 F 
ATOM     33  F   UNL     1       4.217   4.172  10.606  0.00  0.00    +0.000 F 
ENDBRANCH  29  30
ENDBRANCH  25  29
ENDBRANCH   1  26
TORSDOF 5
ENDMDL
MODEL 6
REMARK VINA RESULT:      -9.0      0.633      1.055
REMARK  Name = 
REMARK  5 active torsions:
REMARK  status: ('A' for Active; 'I' for Inactive)
REMARK    1  A    between atoms: N_3  and  C_4
REMARK    2  A    between atoms: C_4  and  C_5
REMARK    3  A    between atoms: N_9  and  C_10
REMARK    4  A    between atoms: C_15  and  C_16
REMARK    5  A    between atoms: C_21  and  C_22
REMARK                            x       y       z     vdW  Elec       q    Type
REMARK                         _______ _______ _______ _____ _____    ______ ____
ROOT
ATOM      1  C   UNL     1       4.218   4.737  18.452  0.00  0.00    +0.000 A 
ATOM      2  C   UNL     1       3.763   3.969  19.522  0.00  0.00    +0.000 A 
ATOM      3  C   UNL     1       2.772   4.466  20.356  0.00  0.00    +0.000 A 
ATOM      4  F   UNL     1       2.338   3.719  21.380  0.00  0.00    +0.000 F 
ATOM      5  C   UNL     1       2.215   5.719  20.146  0.00  0.00    +0.000 A 
ATOM      6  C   UNL     1       2.661   6.526  19.092  0.00  0.00    +0.000 A 
ATOM      7  C   UNL     1       3.683   6.027  18.265  0.00  0.00    +0.000 A 
ENDROOT
BRANCH   6   8
ATOM      8  C   UNL     1       2.072   7.863  18.932  0.00  0.00    +0.000 A 
ATOM      9  C   UNL     1       2.108   8.686  17.814  0.00  0.00    +0.000 A 
ATOM     10  N   UNL     1       1.504   9.890  18.030  0.00  0.00    +0.000 NA
ATOM     11  C   UNL     1       1.098   9.845  19.278  0.00  0.00    +0.000 A 
ATOM     12  C   UNL     1       0.432  10.835  20.054  0.00  0.00    +0.000 A 
ATOM     13  C   UNL     1       0.104  10.608  21.350  0.00  0.00    +0.000 A 
ATOM     14  C   UNL     1       0.451   9.307  21.944  0.00  0.00    +0.000 A 
ATOM     15  C   UNL     1       1.101   8.378  21.224  0.00  0.00    +0.000 A 
ATOM     16  N   UNL     1       1.415   8.632  19.888  0.00  0.00    +0.000 N 
BRANCH  13  17
ATOM     17  C   UNL     1      -0.564  11.686  22.130  0.00  0.00    +0.000 A 
ATOM     18  N   UNL     1      -1.671  11.378  22.836  0.00  0.00    +0.000 NA
ATOM     19  C   UNL     1      -2.258  12.385  23.507  0.00  0.00    +0.000 A 
ATOM     20  C   UNL     1      -1.788  13.675  23.502  0.00  0.00    +0.000 A 
ATOM     21  C   UNL     1      -0.653  13.888  22.756  0.00  0.00    +0.000 A 
ATOM     22  N   UNL     1      -0.023  12.918  22.065  0.00  0.00    +0.000 NA
ENDBRANCH  13  17
ENDBRANCH   6   8
BRANCH   1  26
ATOM     23  O   UNL     1       5.094   5.925  15.875  0.00  0.00    +0.000 OA
ATOM     24  C   UNL     1       5.546   4.889  16.344  0.00  0.00    +0.000 C 
ATOM     25  N   UNL     1       6.550   4.193  15.703  0.00  0.00    +0.000 N 
ATOM     26  N   UNL     1       5.184   4.283  17.528  0.00  0.00    +0.000 N 
ATOM     27  H   UNL     1       6.562   3.195  15.862  0.00  0.00    +0.000 HD
ATOM     28  H   UNL     1       5.728   3.477  17.796  0.00  0.00    +0.000 HD
BRANCH  25  29
ATOM     29  C   UNL     1       6.955   4.629  14.360  0.00  0.00    +0.000 C 
BRANCH  29  30
ATOM     30  C   UNL     1       6.278   3.879  13.205  0.00  0.00    +0.000 C 
ATOM     31  F   UNL     1       6.814   4.213  12.007  0.00  0.00    +0.000 F 
ATOM     32  F   UNL     1       6.356   2.540  13.341  0.00  0.00    +0.000 F 
ATOM     33  F   UNL     1       4.963   4.207  13.146  0.00  0.00    +0.000 F 
ENDBRANCH  29  30
ENDBRANCH  25  29
ENDBRANCH   1  26
TORSDOF 5
ENDMDL
MODEL 7
REMARK VINA RESULT:      -8.9      0.780      1.067
REMARK  Name = 
REMARK  5 active torsions:
REMARK  status: ('A' for Active; 'I' for Inactive)
REMARK    1  A    between atoms: N_3  and  C_4
REMARK    2  A    between atoms: C_4  and  C_5
REMARK    3  A    between atoms: N_9  and  C_10
REMARK    4  A    between atoms: C_15  and  C_16
REMARK    5  A    between atoms: C_21  and  C_22
REMARK                            x       y       z     vdW  Elec       q    Type
REMARK                         _______ _______ _______ _____ _____    ______ ____
ROOT
ATOM      1  C   UNL     1       3.841   4.519  18.124  0.00  0.00    +0.000 A 
ATOM      2  C   UNL     1       3.584   3.929  19.359  0.00  0.00    +0.000 A 
ATOM      3  C   UNL     1       2.864   4.624  20.320  0.00  0.00    +0.000 A 
ATOM      4  F   UNL     1       2.618   4.048  21.504  0.00  0.00    +0.000 F 
ATOM      5  C   UNL     1       2.385   5.903  20.076  0.00  0.00    +0.000 A 
ATOM      6  C   UNL     1       2.640   6.535  18.852  0.00  0.00    +0.000 A 
ATOM      7  C   UNL     1       3.391   5.835  17.892  0.00  0.00    +0.000 A 
ENDROOT
BRANCH   6   8
ATOM      8  C   UNL     1       2.150   7.905  18.653  0.00  0.00    +0.000 A 
ATOM      9  C   UNL     1       2.440   8.776  17.610  0.00  0.00    +0.000 A 
ATOM     10  N   UNL     1       1.855   9.998  17.768  0.00  0.00    +0.000 NA
ATOM     11  C   UNL     1       1.208   9.917  18.908  0.00  0.00    +0.000 A 
ATOM     12  C   UNL     1       0.442  10.903  19.591  0.00  0.00    +0.000 A 
ATOM     13  C   UNL     1      -0.146  10.634  20.783  0.00  0.00    +0.000 A 
ATOM     14  C   UNL     1       0.023   9.292  21.362  0.00  0.00    +0.000 A 
ATOM     15  C   UNL     1       0.765   8.365  20.734  0.00  0.00    +0.000 A 
ATOM     16  N   UNL     1       1.348   8.663  19.501  0.00  0.00    +0.000 N 
BRANCH  13  17
ATOM     17  C   UNL     1      -0.911  11.709  21.474  0.00  0.00    +0.000 A 
ATOM     18  N   UNL     1      -0.524  12.081  22.711  0.00  0.00    +0.000 NA
ATOM     19  C   UNL     1      -1.255  13.037  23.310  0.00  0.00    +0.000 A 
ATOM     20  C   UNL     1      -2.347  13.632  22.729  0.00  0.00    +0.000 A 
ATOM     21  C   UNL     1      -2.661  13.187  21.467  0.00  0.00    +0.000 A 
ATOM     22  N   UNL     1      -1.964  12.233  20.818  0.00  0.00    +0.000 NA
ENDBRANCH  13  17
ENDBRANCH   6   8
BRANCH   1  26
ATOM     23  O   UNL     1       5.547   5.631  15.961  0.00  0.00    +0.000 OA
ATOM     24  C   UNL     1       5.302   4.440  16.101  0.00  0.00    +0.000 C 
ATOM     25  N   UNL     1       5.844   3.495  15.254  0.00  0.00    +0.000 N 
ATOM     26  N   UNL     1       4.519   3.860  17.075  0.00  0.00    +0.000 N 
ATOM     27  H   UNL     1       5.294   2.658  15.123  0.00  0.00    +0.000 HD
ATOM     28  H   UNL     1       4.500   2.851  17.085  0.00  0.00    +0.000 HD
BRANCH  25  29
ATOM     29  C   UNL     1       6.591   3.959  14.078  0.00  0.00    +0.000 C 
BRANCH  29  30
ATOM     30  C   UNL     1       5.961   3.596  12.726  0.00  0.00    +0.000 C 
ATOM     31  F   UNL     1       4.648   3.926  12.679  0.00  0.00    +0.000 F 
ATOM     32  F   UNL     1       6.581   4.193  11.689  0.00  0.00    +0.000 F 
ATOM     33  F   UNL     1       6.031   2.256  12.528  0.00  0.00    +0.000 F 
ENDBRANCH  29  30
ENDBRANCH  25  29
ENDBRANCH   1  26
TORSDOF 5
ENDMDL
MODEL 8
REMARK VINA RESULT:      -8.7      3.120      5.096
REMARK  Name = 
REMARK  5 active torsions:
REMARK  status: ('A' for Active; 'I' for Inactive)
REMARK    1  A    between atoms: N_3  and  C_4
REMARK    2  A    between atoms: C_4  and  C_5
REMARK    3  A    between atoms: N_9  and  C_10
REMARK    4  A    between atoms: C_15  and  C_16
REMARK    5  A    between atoms: C_21  and  C_22
REMARK                            x       y       z     vdW  Elec       q    Type
REMARK                         _______ _______ _______ _____ _____    ______ ____
ROOT
ATOM      1  C   UNL     1       2.350   7.306  19.568  0.00  0.00    +0.000 A 
ATOM      2  C   UNL     1       2.416   7.998  18.360  0.00  0.00    +0.000 A 
ATOM      3  C   UNL     1       1.819   9.245  18.246  0.00  0.00    +0.000 A 
ATOM      4  F   UNL     1       1.891   9.905  17.083  0.00  0.00    +0.000 F 
ATOM      5  C   UNL     1       1.155   9.827  19.316  0.00  0.00    +0.000 A 
ATOM      6  C   UNL     1       1.052   9.152  20.539  0.00  0.00    +0.000 A 
ATOM      7  C   UNL     1       1.638   7.878  20.642  0.00  0.00    +0.000 A 
ENDROOT
BRANCH   6   8
ATOM      8  C   UNL     1       0.303   9.787  21.632  0.00  0.00    +0.000 A 
ATOM      9  C   UNL     1       0.348   9.488  22.988  0.00  0.00    +0.000 A 
ATOM     10  N   UNL     1      -0.523  10.241  23.720  0.00  0.00    +0.000 NA
ATOM     11  C   UNL     1      -1.130  11.005  22.841  0.00  0.00    +0.000 A 
ATOM     12  C   UNL     1      -2.160  11.968  23.031  0.00  0.00    +0.000 A 
ATOM     13  C   UNL     1      -2.680  12.656  21.984  0.00  0.00    +0.000 A 
ATOM     14  C   UNL     1      -2.154  12.386  20.637  0.00  0.00    +0.000 A 
ATOM     15  C   UNL     1      -1.199  11.460  20.448  0.00  0.00    +0.000 A 
ATOM     16  N   UNL     1      -0.672  10.776  21.545  0.00  0.00    +0.000 N 
BRANCH  13  17
ATOM     17  C   UNL     1      -3.779  13.631  22.230  0.00  0.00    +0.000 A 
ATOM     18  N   UNL     1      -3.564  14.930  21.937  0.00  0.00    +0.000 NA
ATOM     19  C   UNL     1      -4.571  15.781  22.195  0.00  0.00    +0.000 A 
ATOM     20  C   UNL     1      -5.775  15.392  22.729  0.00  0.00    +0.000 A 
ATOM     21  C   UNL     1      -5.898  14.048  22.991  0.00  0.00    +0.000 A 
ATOM     22  N   UNL     1      -4.923  13.149  22.752  0.00  0.00    +0.000 NA
ENDBRANCH  13  17
ENDBRANCH   6   8
BRANCH   1  26
ATOM     23  O   UNL     1       3.192   5.236  17.612  0.00  0.00    +0.000 OA
ATOM     24  C   UNL     1       3.344   5.142  18.822  0.00  0.00    +0.000 C 
ATOM     25  N   UNL     1       3.967   4.044  19.380  0.00  0.00    +0.000 N 
ATOM     26  N   UNL     1       2.976   6.058  19.782  0.00  0.00    +0.000 N 
ATOM     27  H   UNL     1       3.677   3.805  20.317  0.00  0.00    +0.000 HD
ATOM     28  H   UNL     1       3.261   5.848  20.727  0.00  0.00    +0.000 HD
BRANCH  25  29
ATOM     29  C   UNL     1       4.299   2.911  18.506  0.00  0.00    +0.000 C 
BRANCH  29  30
ATOM     30  C   UNL     1       3.242   1.797  18.462  0.00  0.00    +0.000 C 
ATOM     31  F   UNL     1       2.454   1.895  17.365  0.00  0.00    +0.000 F 
ATOM     32  F   UNL     1       3.788   0.565  18.478  0.00  0.00    +0.000 F 
ATOM     33  F   UNL     1       2.422   1.895  19.538  0.00  0.00    +0.000 F 
ENDBRANCH  29  30
ENDBRANCH  25  29
ENDBRANCH   1  26
TORSDOF 5
ENDMDL
MODEL 9
REMARK VINA RESULT:      -8.7      2.150      2.871
REMARK  Name = 
REMARK  5 active torsions:
REMARK  status: ('A' for Active; 'I' for Inactive)
REMARK    1  A    between atoms: N_3  and  C_4
REMARK    2  A    between atoms: C_4  and  C_5
REMARK    3  A    between atoms: N_9  and  C_10
REMARK    4  A    between atoms: C_15  and  C_16
REMARK    5  A    between atoms: C_21  and  C_22
REMARK                            x       y       z     vdW  Elec       q    Type
REMARK                         _______ _______ _______ _____ _____    ______ ____
ROOT
ATOM      1  C   UNL     1       3.968   3.554  17.429  0.00  0.00    +0.000 A 
ATOM      2  C   UNL     1       3.085   2.478  17.490  0.00  0.00    +0.000 A 
ATOM      3  C   UNL     1       1.912   2.589  18.222  0.00  0.00    +0.000 A 
ATOM      4  F   UNL     1       1.066   1.551  18.273  0.00  0.00    +0.000 F 
ATOM      5  C   UNL     1       1.592   3.757  18.898  0.00  0.00    +0.000 A 
ATOM      6  C   UNL     1       2.465   4.852  18.875  0.00  0.00    +0.000 A 
ATOM      7  C   UNL     1       3.664   4.725  18.151  0.00  0.00    +0.000 A 
ENDROOT
BRANCH   6   8
ATOM      8  C   UNL     1       2.106   6.054  19.640  0.00  0.00    +0.000 A 
ATOM      9  C   UNL     1       1.721   6.138  20.973  0.00  0.00    +0.000 A 
ATOM     10  N   UNL     1       1.404   7.411  21.346  0.00  0.00    +0.000 NA
ATOM     11  C   UNL     1       1.568   8.133  20.262  0.00  0.00    +0.000 A 
ATOM     12  C   UNL     1       1.353   9.524  20.054  0.00  0.00    +0.000 A 
ATOM     13  C   UNL     1       1.565  10.095  18.842  0.00  0.00    +0.000 A 
ATOM     14  C   UNL     1       2.028   9.241  17.736  0.00  0.00    +0.000 A 
ATOM     15  C   UNL     1       2.209   7.922  17.921  0.00  0.00    +0.000 A 
ATOM     16  N   UNL     1       1.996   7.363  19.182  0.00  0.00    +0.000 N 
BRANCH  13  17
ATOM     17  C   UNL     1       1.296  11.549  18.666  0.00  0.00    +0.000 A 
ATOM     18  N   UNL     1       2.332  12.366  18.390  0.00  0.00    +0.000 NA
ATOM     19  C   UNL     1       2.051  13.675  18.263  0.00  0.00    +0.000 A 
ATOM     20  C   UNL     1       0.788  14.195  18.398  0.00  0.00    +0.000 A 
ATOM     21  C   UNL     1      -0.201  13.282  18.677  0.00  0.00    +0.000 A 
ATOM     22  N   UNL     1       0.022  11.960  18.814  0.00  0.00    +0.000 NA
ENDBRANCH  13  17
ENDBRANCH   6   8
BRANCH   1  26
ATOM     23  O   UNL     1       4.722   5.170  15.053  0.00  0.00    +0.000 OA
ATOM     24  C   UNL     1       5.442   4.325  15.568  0.00  0.00    +0.000 C 
ATOM     25  N   UNL     1       6.710   4.077  15.083  0.00  0.00    +0.000 N 
ATOM     26  N   UNL     1       5.155   3.541  16.663  0.00  0.00    +0.000 N 
ATOM     27  H   UNL     1       7.055   3.138  15.221  0.00  0.00    +0.000 HD
ATOM     28  H   UNL     1       5.907   2.959  16.999  0.00  0.00    +0.000 HD
BRANCH  25  29
ATOM     29  C   UNL     1       7.120   4.730  13.833  0.00  0.00    +0.000 C 
BRANCH  29  30
ATOM     30  C   UNL     1       6.694   4.000  12.551  0.00  0.00    +0.000 C 
ATOM     31  F   UNL     1       6.967   2.675  12.614  0.00  0.00    +0.000 F 
ATOM     32  F   UNL     1       5.381   4.146  12.284  0.00  0.00    +0.000 F 
ATOM     33  F   UNL     1       7.384   4.488  11.490  0.00  0.00    +0.000 F 
ENDBRANCH  29  30
ENDBRANCH  25  29
ENDBRANCH   1  26
TORSDOF 5
ENDMDL
