MODEL 1
REMARK VINA RESULT:      -8.7      0.000      0.000
REMARK  Name = 
REMARK  7 active torsions:
REMARK  status: ('A' for Active; 'I' for Inactive)
REMARK    1  A    between atoms: C_1  and  C_2
REMARK    2  A    between atoms: C_2  and  N_3
REMARK    3  A    between atoms: N_6  and  C_7
REMARK    4  A    between atoms: C_7  and  C_8
REMARK    5  A    between atoms: N_17  and  C_18
REMARK    6  A    between atoms: C_22  and  O_23
REMARK    7  A    between atoms: C_25  and  O_26
REMARK                            x       y       z     vdW  Elec       q    Type
REMARK                         _______ _______ _______ _____ _____    ______ ____
ROOT
ATOM      1  C   UNL     1       6.425   4.746  14.494  0.00  0.00    +0.000 A 
ATOM      2  C   UNL     1       5.113   4.371  14.883  0.00  0.00    +0.000 A 
ATOM      3  C   UNL     1       4.745   4.280  16.235  0.00  0.00    +0.000 A 
ATOM      4  C   UNL     1       5.706   4.577  17.177  0.00  0.00    +0.000 A 
ATOM      5  C   UNL     1       6.983   4.992  16.793  0.00  0.00    +0.000 A 
ATOM      6  C   UNL     1       7.375   5.080  15.474  0.00  0.00    +0.000 A 
ATOM      7  N   UNL     1       7.712   5.304  17.934  0.00  0.00    +0.000 N 
ATOM      8  C   UNL     1       6.899   5.108  19.073  0.00  0.00    +0.000 A 
ATOM      9  O   UNL     1       7.272   5.271  20.222  0.00  0.00    +0.000 OA
ATOM     10  N   UNL     1       5.657   4.627  18.582  0.00  0.00    +0.000 N 
ATOM     11  H   UNL     1       8.663   5.628  17.988  0.00  0.00    +0.000 HD
ENDROOT
BRANCH  10  12
ATOM     12  C   UNL     1       4.525   4.333  19.349  0.00  0.00    +0.000 A 
ATOM     13  C   UNL     1       3.615   5.348  19.669  0.00  0.00    +0.000 A 
ATOM     14  C   UNL     1       2.450   5.038  20.372  0.00  0.00    +0.000 A 
ATOM     15 CL   UNL     1       1.311   6.284  20.723  0.00  0.00    +0.000 Cl
ATOM     16  C   UNL     1       2.202   3.723  20.776  0.00  0.00    +0.000 A 
ATOM     17  C   UNL     1       3.102   2.707  20.473  0.00  0.00    +0.000 A 
ATOM     18  C   UNL     1       4.258   3.013  19.757  0.00  0.00    +0.000 A 
BRANCH  16  19
ATOM     19  O   UNL     1       1.082   3.379  21.481  0.00  0.00    +0.000 OA
ATOM     20  H   UNL     1       0.918   2.429  21.323  0.00  0.00    +0.000 HD
ENDBRANCH  16  19
BRANCH  18  21
ATOM     21  O   UNL     1       5.185   2.036  19.519  0.00  0.00    +0.000 OA
ATOM     22  H   UNL     1       5.755   2.308  18.783  0.00  0.00    +0.000 HD
ENDBRANCH  18  21
ENDBRANCH  10  12
BRANCH   1  23
ATOM     23  C   UNL     1       6.795   4.796  13.032  0.00  0.00    +0.000 C 
BRANCH  23  27
ATOM     24  N   UNL     1       6.673   1.486  11.583  0.00  0.00    +0.000 N 
ATOM     25  C   UNL     1       6.217   2.740  11.890  0.00  0.00    +0.000 C 
ATOM     26  O   UNL     1       5.087   3.140  11.643  0.00  0.00    +0.000 OA
ATOM     27  N   UNL     1       7.172   3.500  12.517  0.00  0.00    +0.000 N 
ATOM     28  H   UNL     1       7.668   1.328  11.609  0.00  0.00    +0.000 HD
ATOM     29  H   UNL     1       7.928   3.011  12.971  0.00  0.00    +0.000 HD
BRANCH  24  31
ATOM     30  C   UNL     1       6.017  -0.880  11.369  0.00  0.00    +0.000 C 
ATOM     31  C   UNL     1       5.850   0.540  10.853  0.00  0.00    +0.000 C 
ENDBRANCH  24  31
ENDBRANCH  23  27
ENDBRANCH   1  23
TORSDOF 6
ENDMDL
MODEL 2
REMARK VINA RESULT:      -8.7      5.514      8.467
REMARK  Name = 
REMARK  7 active torsions:
REMARK  status: ('A' for Active; 'I' for Inactive)
REMARK    1  A    between atoms: C_1  and  C_2
REMARK    2  A    between atoms: C_2  and  N_3
REMARK    3  A    between atoms: N_6  and  C_7
REMARK    4  A    between atoms: C_7  and  C_8
REMARK    5  A    between atoms: N_17  and  C_18
REMARK    6  A    between atoms: C_22  and  O_23
REMARK    7  A    between atoms: C_25  and  O_26
REMARK                            x       y       z     vdW  Elec       q    Type
REMARK                         _______ _______ _______ _____ _____    ______ ____
ROOT
ATOM      1  C   UNL     1       0.957  10.036  19.239  0.00  0.00    +0.000 A 
ATOM      2  C   UNL     1       1.721   9.634  18.112  0.00  0.00    +0.000 A 
ATOM      3  C   UNL     1       2.382   8.396  18.076  0.00  0.00    +0.000 A 
ATOM      4  C   UNL     1       2.255   7.575  19.176  0.00  0.00    +0.000 A 
ATOM      5  C   UNL     1       1.465   7.950  20.265  0.00  0.00    +0.000 A 
ATOM      6  C   UNL     1       0.814   9.163  20.331  0.00  0.00    +0.000 A 
ATOM      7  N   UNL     1       1.449   6.909  21.184  0.00  0.00    +0.000 N 
ATOM      8  C   UNL     1       2.221   5.836  20.684  0.00  0.00    +0.000 A 
ATOM      9  O   UNL     1       2.419   4.792  21.282  0.00  0.00    +0.000 OA
ATOM     10  N   UNL     1       2.740   6.282  19.441  0.00  0.00    +0.000 N 
ATOM     11  H   UNL     1       0.972   6.876  22.070  0.00  0.00    +0.000 HD
ENDROOT
BRANCH  10  12
ATOM     12  C   UNL     1       3.533   5.535  18.563  0.00  0.00    +0.000 A 
ATOM     13  C   UNL     1       4.927   5.665  18.597  0.00  0.00    +0.000 A 
ATOM     14  C   UNL     1       5.718   4.866  17.771  0.00  0.00    +0.000 A 
ATOM     15 CL   UNL     1       7.436   4.999  17.851  0.00  0.00    +0.000 Cl
ATOM     16  C   UNL     1       5.123   3.953  16.896  0.00  0.00    +0.000 A 
ATOM     17  C   UNL     1       3.739   3.820  16.845  0.00  0.00    +0.000 A 
ATOM     18  C   UNL     1       2.949   4.607  17.681  0.00  0.00    +0.000 A 
BRANCH  16  19
ATOM     19  O   UNL     1       5.860   3.164  16.058  0.00  0.00    +0.000 OA
ATOM     20  H   UNL     1       6.117   3.712  15.291  0.00  0.00    +0.000 HD
ENDBRANCH  16  19
BRANCH  18  21
ATOM     21  O   UNL     1       1.586   4.538  17.585  0.00  0.00    +0.000 OA
ATOM     22  H   UNL     1       1.224   4.193  18.417  0.00  0.00    +0.000 HD
ENDBRANCH  18  21
ENDBRANCH  10  12
BRANCH   1  23
ATOM     23  C   UNL     1       0.291  11.389  19.258  0.00  0.00    +0.000 C 
BRANCH  23  27
ATOM     24  N   UNL     1      -1.988  11.485  16.454  0.00  0.00    +0.000 N 
ATOM     25  C   UNL     1      -1.584  11.221  17.735  0.00  0.00    +0.000 C 
ATOM     26  O   UNL     1      -2.257  10.612  18.556  0.00  0.00    +0.000 OA
ATOM     27  N   UNL     1      -0.330  11.714  17.995  0.00  0.00    +0.000 N 
ATOM     28  H   UNL     1      -1.479  12.184  15.935  0.00  0.00    +0.000 HD
ATOM     29  H   UNL     1       0.270  11.894  17.205  0.00  0.00    +0.000 HD
BRANCH  24  31
ATOM     30  C   UNL     1      -3.263  10.014  14.944  0.00  0.00    +0.000 C 
ATOM     31  C   UNL     1      -3.311  11.117  15.987  0.00  0.00    +0.000 C 
ENDBRANCH  24  31
ENDBRANCH  23  27
ENDBRANCH   1  23
TORSDOF 6
ENDMDL
MODEL 3
REMARK VINA RESULT:      -8.1      5.785      9.054
REMARK  Name = 
REMARK  7 active torsions:
REMARK  status: ('A' for Active; 'I' for Inactive)
REMARK    1  A    between atoms: C_1  and  C_2
REMARK    2  A    between atoms: C_2  and  N_3
REMARK    3  A    between atoms: N_6  and  C_7
REMARK    4  A    between atoms: C_7  and  C_8
REMARK    5  A    between atoms: N_17  and  C_18
REMARK    6  A    between atoms: C_22  and  O_23
REMARK    7  A    between atoms: C_25  and  O_26
REMARK                            x       y       z     vdW  Elec       q    Type
REMARK                         _______ _______ _______ _____ _____    ______ ____
ROOT
ATOM      1  C   UNL     1       1.109  10.172  19.014  0.00  0.00    +0.000 A 
ATOM      2  C   UNL     1       1.879   9.708  17.916  0.00  0.00    +0.000 A 
ATOM      3  C   UNL     1       2.489   8.444  17.928  0.00  0.00    +0.000 A 
ATOM      4  C   UNL     1       2.306   7.659  19.046  0.00  0.00    +0.000 A 
ATOM      5  C   UNL     1       1.509   8.096  20.107  0.00  0.00    +0.000 A 
ATOM      6  C   UNL     1       0.908   9.336  20.127  0.00  0.00    +0.000 A 
ATOM      7  N   UNL     1       1.431   7.082  21.053  0.00  0.00    +0.000 N 
ATOM      8  C   UNL     1       2.168   5.965  20.599  0.00  0.00    +0.000 A 
ATOM      9  O   UNL     1       2.311   4.931  21.229  0.00  0.00    +0.000 OA
ATOM     10  N   UNL     1       2.731   6.355  19.356  0.00  0.00    +0.000 N 
ATOM     11  H   UNL     1       0.935   7.094  21.929  0.00  0.00    +0.000 HD
ENDROOT
BRANCH  10  12
ATOM     12  C   UNL     1       3.510   5.552  18.516  0.00  0.00    +0.000 A 
ATOM     13  C   UNL     1       4.907   5.643  18.561  0.00  0.00    +0.000 A 
ATOM     14  C   UNL     1       5.683   4.791  17.774  0.00  0.00    +0.000 A 
ATOM     15 CL   UNL     1       7.402   4.877  17.869  0.00  0.00    +0.000 Cl
ATOM     16  C   UNL     1       5.069   3.863  16.928  0.00  0.00    +0.000 A 
ATOM     17  C   UNL     1       3.683   3.768  16.867  0.00  0.00    +0.000 A 
ATOM     18  C   UNL     1       2.908   4.609  17.663  0.00  0.00    +0.000 A 
BRANCH  16  19
ATOM     19  O   UNL     1       5.792   3.021  16.128  0.00  0.00    +0.000 OA
ATOM     20  H   UNL     1       5.154   2.494  15.609  0.00  0.00    +0.000 HD
ENDBRANCH  16  19
BRANCH  18  21
ATOM     21  O   UNL     1       1.544   4.576  17.555  0.00  0.00    +0.000 OA
ATOM     22  H   UNL     1       1.210   5.480  17.448  0.00  0.00    +0.000 HD
ENDBRANCH  18  21
ENDBRANCH  10  12
BRANCH   1  23
ATOM     23  C   UNL     1       0.500  11.551  18.983  0.00  0.00    +0.000 C 
BRANCH  23  27
ATOM     24  N   UNL     1      -2.938  11.644  17.868  0.00  0.00    +0.000 N 
ATOM     25  C   UNL     1      -1.904  11.746  18.759  0.00  0.00    +0.000 C 
ATOM     26  O   UNL     1      -2.048  11.928  19.961  0.00  0.00    +0.000 OA
ATOM     27  N   UNL     1      -0.680  11.612  18.153  0.00  0.00    +0.000 N 
ATOM     28  H   UNL     1      -2.722  11.731  16.887  0.00  0.00    +0.000 HD
ATOM     29  H   UNL     1      -0.655  11.144  17.260  0.00  0.00    +0.000 HD
BRANCH  24  31
ATOM     30  C   UNL     1      -5.264  11.902  17.098  0.00  0.00    +0.000 C 
ATOM     31  C   UNL     1      -4.315  11.828  18.283  0.00  0.00    +0.000 C 
ENDBRANCH  24  31
ENDBRANCH  23  27
ENDBRANCH   1  23
TORSDOF 6
ENDMDL
MODEL 4
REMARK VINA RESULT:      -8.0      5.541      8.717
REMARK  Name = 
REMARK  7 active torsions:
REMARK  status: ('A' for Active; 'I' for Inactive)
REMARK    1  A    between atoms: C_1  and  C_2
REMARK    2  A    between atoms: C_2  and  N_3
REMARK    3  A    between atoms: N_6  and  C_7
REMARK    4  A    between atoms: C_7  and  C_8
REMARK    5  A    between atoms: N_17  and  C_18
REMARK    6  A    between atoms: C_22  and  O_23
REMARK    7  A    between atoms: C_25  and  O_26
REMARK                            x       y       z     vdW  Elec       q    Type
REMARK                         _______ _______ _______ _____ _____    ______ ____
ROOT
ATOM      1  C   UNL     1       1.199  10.044  18.968  0.00  0.00    +0.000 A 
ATOM      2  C   UNL     1       1.950   9.581  17.857  0.00  0.00    +0.000 A 
ATOM      3  C   UNL     1       2.560   8.317  17.856  0.00  0.00    +0.000 A 
ATOM      4  C   UNL     1       2.395   7.531  18.976  0.00  0.00    +0.000 A 
ATOM      5  C   UNL     1       1.617   7.967  20.051  0.00  0.00    +0.000 A 
ATOM      6  C   UNL     1       1.016   9.208  20.083  0.00  0.00    +0.000 A 
ATOM      7  N   UNL     1       1.554   6.952  20.997  0.00  0.00    +0.000 N 
ATOM      8  C   UNL     1       2.283   5.835  20.530  0.00  0.00    +0.000 A 
ATOM      9  O   UNL     1       2.435   4.800  21.156  0.00  0.00    +0.000 OA
ATOM     10  N   UNL     1       2.825   6.226  19.277  0.00  0.00    +0.000 N 
ATOM     11  H   UNL     1       1.073   6.963  21.881  0.00  0.00    +0.000 HD
ENDROOT
BRANCH  10  12
ATOM     12  C   UNL     1       3.589   5.424  18.423  0.00  0.00    +0.000 A 
ATOM     13  C   UNL     1       4.984   5.548  18.410  0.00  0.00    +0.000 A 
ATOM     14  C   UNL     1       5.748   4.697  17.611  0.00  0.00    +0.000 A 
ATOM     15 CL   UNL     1       7.468   4.826  17.634  0.00  0.00    +0.000 Cl
ATOM     16  C   UNL     1       5.124   3.738  16.808  0.00  0.00    +0.000 A 
ATOM     17  C   UNL     1       3.739   3.610  16.805  0.00  0.00    +0.000 A 
ATOM     18  C   UNL     1       2.976   4.449  17.615  0.00  0.00    +0.000 A 
BRANCH  16  19
ATOM     19  O   UNL     1       5.834   2.896  15.998  0.00  0.00    +0.000 OA
ATOM     20  H   UNL     1       6.298   3.448  15.339  0.00  0.00    +0.000 HD
ENDBRANCH  16  19
BRANCH  18  21
ATOM     21  O   UNL     1       1.611   4.382  17.563  0.00  0.00    +0.000 OA
ATOM     22  H   UNL     1       1.236   4.960  18.245  0.00  0.00    +0.000 HD
ENDBRANCH  18  21
ENDBRANCH  10  12
BRANCH   1  23
ATOM     23  C   UNL     1       0.591  11.424  18.949  0.00  0.00    +0.000 C 
BRANCH  23  27
ATOM     24  N   UNL     1       2.726  14.107  17.800  0.00  0.00    +0.000 N 
ATOM     25  C   UNL     1       2.208  13.209  18.696  0.00  0.00    +0.000 C 
ATOM     26  O   UNL     1       2.490  13.187  19.887  0.00  0.00    +0.000 OA
ATOM     27  N   UNL     1       1.328  12.337  18.106  0.00  0.00    +0.000 N 
ATOM     28  H   UNL     1       2.622  13.903  16.818  0.00  0.00    +0.000 HD
ATOM     29  H   UNL     1       0.907  12.622  17.236  0.00  0.00    +0.000 HD
BRANCH  24  31
ATOM     30  C   UNL     1       5.141  14.579  17.916  0.00  0.00    +0.000 C 
ATOM     31  C   UNL     1       3.732  15.074  18.195  0.00  0.00    +0.000 C 
ENDBRANCH  24  31
ENDBRANCH  23  27
ENDBRANCH   1  23
TORSDOF 6
ENDMDL
MODEL 5
REMARK VINA RESULT:      -8.0      5.138      8.208
REMARK  Name = 
REMARK  7 active torsions:
REMARK  status: ('A' for Active; 'I' for Inactive)
REMARK    1  A    between atoms: C_1  and  C_2
REMARK    2  A    between atoms: C_2  and  N_3
REMARK    3  A    between atoms: N_6  and  C_7
REMARK    4  A    between atoms: C_7  and  C_8
REMARK    5  A    between atoms: N_17  and  C_18
REMARK    6  A    between atoms: C_22  and  O_23
REMARK    7  A    between atoms: C_25  and  O_26
REMARK                            x       y       z     vdW  Elec       q    Type
REMARK                         _______ _______ _______ _____ _____    ______ ____
ROOT
ATOM      1  C   UNL     1       1.279   9.119  19.007  0.00  0.00    +0.000 A 
ATOM      2  C   UNL     1       2.219   9.088  17.944  0.00  0.00    +0.000 A 
ATOM      3  C   UNL     1       3.137   8.035  17.805  0.00  0.00    +0.000 A 
ATOM      4  C   UNL     1       3.087   7.020  18.736  0.00  0.00    +0.000 A 
ATOM      5  C   UNL     1       2.131   7.027  19.754  0.00  0.00    +0.000 A 
ATOM      6  C   UNL     1       1.226   8.053  19.921  0.00  0.00    +0.000 A 
ATOM      7  N   UNL     1       2.255   5.855  20.490  0.00  0.00    +0.000 N 
ATOM      8  C   UNL     1       3.289   5.067  19.937  0.00  0.00    +0.000 A 
ATOM      9  O   UNL     1       3.653   3.993  20.387  0.00  0.00    +0.000 OA
ATOM     10  N   UNL     1       3.817   5.824  18.859  0.00  0.00    +0.000 N 
ATOM     11  H   UNL     1       1.713   5.569  21.288  0.00  0.00    +0.000 HD
ENDROOT
BRANCH  10  12
ATOM     12  C   UNL     1       4.836   5.422  17.989  0.00  0.00    +0.000 A 
ATOM     13  C   UNL     1       4.534   5.104  16.659  0.00  0.00    +0.000 A 
ATOM     14  C   UNL     1       5.562   4.772  15.776  0.00  0.00    +0.000 A 
ATOM     15 CL   UNL     1       5.188   4.426  14.128  0.00  0.00    +0.000 Cl
ATOM     16  C   UNL     1       6.887   4.738  16.220  0.00  0.00    +0.000 A 
ATOM     17  C   UNL     1       7.199   5.043  17.541  0.00  0.00    +0.000 A 
ATOM     18  C   UNL     1       6.175   5.388  18.420  0.00  0.00    +0.000 A 
BRANCH  16  19
ATOM     19  O   UNL     1       7.922   4.402  15.391  0.00  0.00    +0.000 OA
ATOM     20  H   UNL     1       8.355   5.233  15.114  0.00  0.00    +0.000 HD
ENDBRANCH  16  19
BRANCH  18  21
ATOM     21  O   UNL     1       6.463   5.617  19.737  0.00  0.00    +0.000 OA
ATOM     22  H   UNL     1       5.957   4.998  20.287  0.00  0.00    +0.000 HD
ENDBRANCH  18  21
ENDBRANCH  10  12
BRANCH   1  23
ATOM     23  C   UNL     1       0.334  10.286  19.148  0.00  0.00    +0.000 C 
BRANCH  23  27
ATOM     24  N   UNL     1      -1.924  10.647  16.347  0.00  0.00    +0.000 N 
ATOM     25  C   UNL     1      -1.552  10.342  17.629  0.00  0.00    +0.000 C 
ATOM     26  O   UNL     1      -2.293   9.824  18.455  0.00  0.00    +0.000 OA
ATOM     27  N   UNL     1      -0.246  10.678  17.884  0.00  0.00    +0.000 N 
ATOM     28  H   UNL     1      -1.334  11.275  15.823  0.00  0.00    +0.000 HD
ATOM     29  H   UNL     1       0.369  10.779  17.092  0.00  0.00    +0.000 HD
BRANCH  24  31
ATOM     30  C   UNL     1      -3.344  10.164  14.393  0.00  0.00    +0.000 C 
ATOM     31  C   UNL     1      -3.283  10.442  15.885  0.00  0.00    +0.000 C 
ENDBRANCH  24  31
ENDBRANCH  23  27
ENDBRANCH   1  23
TORSDOF 6
ENDMDL
MODEL 6
REMARK VINA RESULT:      -7.8      4.285      8.833
REMARK  Name = 
REMARK  7 active torsions:
REMARK  status: ('A' for Active; 'I' for Inactive)
REMARK    1  A    between atoms: C_1  and  C_2
REMARK    2  A    between atoms: C_2  and  N_3
REMARK    3  A    between atoms: N_6  and  C_7
REMARK    4  A    between atoms: C_7  and  C_8
REMARK    5  A    between atoms: N_17  and  C_18
REMARK    6  A    between atoms: C_22  and  O_23
REMARK    7  A    between atoms: C_25  and  O_26
REMARK                            x       y       z     vdW  Elec       q    Type
REMARK                         _______ _______ _______ _____ _____    ______ ____
ROOT
ATOM      1  C   UNL     1       1.481   6.954  20.546  0.00  0.00    +0.000 A 
ATOM      2  C   UNL     1       2.313   7.457  19.512  0.00  0.00    +0.000 A 
ATOM      3  C   UNL     1       3.268   6.647  18.879  0.00  0.00    +0.000 A 
ATOM      4  C   UNL     1       3.365   5.335  19.291  0.00  0.00    +0.000 A 
ATOM      5  C   UNL     1       2.514   4.828  20.275  0.00  0.00    +0.000 A 
ATOM      6  C   UNL     1       1.575   5.603  20.922  0.00  0.00    +0.000 A 
ATOM      7  N   UNL     1       2.773   3.472  20.433  0.00  0.00    +0.000 N 
ATOM      8  C   UNL     1       3.789   3.085  19.531  0.00  0.00    +0.000 A 
ATOM      9  O   UNL     1       4.253   1.960  19.456  0.00  0.00    +0.000 OA
ATOM     10  N   UNL     1       4.167   4.270  18.845  0.00  0.00    +0.000 N 
ATOM     11  H   UNL     1       2.327   2.830  21.066  0.00  0.00    +0.000 HD
ENDROOT
BRANCH  10  12
ATOM     12  C   UNL     1       5.117   4.363  17.823  0.00  0.00    +0.000 A 
ATOM     13  C   UNL     1       4.740   4.124  16.496  0.00  0.00    +0.000 A 
ATOM     14  C   UNL     1       5.673   4.288  15.470  0.00  0.00    +0.000 A 
ATOM     15 CL   UNL     1       5.190   4.036  13.834  0.00  0.00    +0.000 Cl
ATOM     16  C   UNL     1       6.984   4.670  15.767  0.00  0.00    +0.000 A 
ATOM     17  C   UNL     1       7.374   4.902  17.082  0.00  0.00    +0.000 A 
ATOM     18  C   UNL     1       6.439   4.752  18.105  0.00  0.00    +0.000 A 
BRANCH  16  19
ATOM     19  O   UNL     1       7.933   4.826  14.794  0.00  0.00    +0.000 OA
ATOM     20  H   UNL     1       8.514   5.561  15.070  0.00  0.00    +0.000 HD
ENDBRANCH  16  19
BRANCH  18  21
ATOM     21  O   UNL     1       6.831   4.905  19.407  0.00  0.00    +0.000 OA
ATOM     22  H   UNL     1       6.047   4.924  19.977  0.00  0.00    +0.000 HD
ENDBRANCH  18  21
ENDBRANCH  10  12
BRANCH   1  23
ATOM     23  C   UNL     1       0.491   7.864  21.231  0.00  0.00    +0.000 C 
BRANCH  23  27
ATOM     24  N   UNL     1       0.321  11.405  20.522  0.00  0.00    +0.000 N 
ATOM     25  C   UNL     1       0.638  10.281  21.237  0.00  0.00    +0.000 C 
ATOM     26  O   UNL     1       1.119  10.296  22.363  0.00  0.00    +0.000 OA
ATOM     27  N   UNL     1       0.347   9.129  20.550  0.00  0.00    +0.000 N 
ATOM     28  H   UNL     1       0.155  11.301  19.533  0.00  0.00    +0.000 HD
ATOM     29  H   UNL     1      -0.331   9.192  19.807  0.00  0.00    +0.000 HD
BRANCH  24  31
ATOM     30  C   UNL     1       1.909  13.287  20.466  0.00  0.00    +0.000 C 
ATOM     31  C   UNL     1       0.612  12.731  21.029  0.00  0.00    +0.000 C 
ENDBRANCH  24  31
ENDBRANCH  23  27
ENDBRANCH   1  23
TORSDOF 6
ENDMDL
MODEL 7
REMARK VINA RESULT:      -7.7      5.724      9.649
REMARK  Name = 
REMARK  7 active torsions:
REMARK  status: ('A' for Active; 'I' for Inactive)
REMARK    1  A    between atoms: C_1  and  C_2
REMARK    2  A    between atoms: C_2  and  N_3
REMARK    3  A    between atoms: N_6  and  C_7
REMARK    4  A    between atoms: C_7  and  C_8
REMARK    5  A    between atoms: N_17  and  C_18
REMARK    6  A    between atoms: C_22  and  O_23
REMARK    7  A    between atoms: C_25  and  O_26
REMARK                            x       y       z     vdW  Elec       q    Type
REMARK                         _______ _______ _______ _____ _____    ______ ____
ROOT
ATOM      1  C   UNL     1       1.038  10.026  19.172  0.00  0.00    +0.000 A 
ATOM      2  C   UNL     1       1.798   9.612  18.047  0.00  0.00    +0.000 A 
ATOM      3  C   UNL     1       2.450   8.370  18.017  0.00  0.00    +0.000 A 
ATOM      4  C   UNL     1       2.318   7.555  19.120  0.00  0.00    +0.000 A 
ATOM      5  C   UNL     1       1.531   7.941  20.208  0.00  0.00    +0.000 A 
ATOM      6  C   UNL     1       0.889   9.160  20.269  0.00  0.00    +0.000 A 
ATOM      7  N   UNL     1       1.508   6.904  21.132  0.00  0.00    +0.000 N 
ATOM      8  C   UNL     1       2.271   5.823  20.637  0.00  0.00    +0.000 A 
ATOM      9  O   UNL     1       2.462   4.781  21.240  0.00  0.00    +0.000 OA
ATOM     10  N   UNL     1       2.793   6.259  19.391  0.00  0.00    +0.000 N 
ATOM     11  H   UNL     1       1.031   6.880  22.018  0.00  0.00    +0.000 HD
ENDROOT
BRANCH  10  12
ATOM     12  C   UNL     1       3.579   5.502  18.516  0.00  0.00    +0.000 A 
ATOM     13  C   UNL     1       4.975   5.617  18.553  0.00  0.00    +0.000 A 
ATOM     14  C   UNL     1       5.759   4.808  17.730  0.00  0.00    +0.000 A 
ATOM     15 CL   UNL     1       7.478   4.923  17.814  0.00  0.00    +0.000 Cl
ATOM     16  C   UNL     1       5.156   3.900  16.855  0.00  0.00    +0.000 A 
ATOM     17  C   UNL     1       3.770   3.782  16.802  0.00  0.00    +0.000 A 
ATOM     18  C   UNL     1       2.987   4.579  17.635  0.00  0.00    +0.000 A 
BRANCH  16  19
ATOM     19  O   UNL     1       5.886   3.101  16.020  0.00  0.00    +0.000 OA
ATOM     20  H   UNL     1       6.540   2.626  16.570  0.00  0.00    +0.000 HD
ENDBRANCH  16  19
BRANCH  18  21
ATOM     21  O   UNL     1       1.624   4.524  17.537  0.00  0.00    +0.000 OA
ATOM     22  H   UNL     1       1.347   4.925  16.698  0.00  0.00    +0.000 HD
ENDBRANCH  18  21
ENDBRANCH  10  12
BRANCH   1  23
ATOM     23  C   UNL     1       0.383  11.385  19.185  0.00  0.00    +0.000 C 
BRANCH  23  27
ATOM     24  N   UNL     1      -1.813  12.511  21.826  0.00  0.00    +0.000 N 
ATOM     25  C   UNL     1      -1.477  12.082  20.570  0.00  0.00    +0.000 C 
ATOM     26  O   UNL     1      -2.258  12.032  19.629  0.00  0.00    +0.000 OA
ATOM     27  N   UNL     1      -0.156  11.721  20.482  0.00  0.00    +0.000 N 
ATOM     28  H   UNL     1      -1.180  12.298  22.581  0.00  0.00    +0.000 HD
ATOM     29  H   UNL     1       0.474  12.097  21.174  0.00  0.00    +0.000 HD
BRANCH  24  31
ATOM     30  C   UNL     1      -3.541  12.478  23.583  0.00  0.00    +0.000 C 
ATOM     31  C   UNL     1      -3.177  12.874  22.162  0.00  0.00    +0.000 C 
ENDBRANCH  24  31
ENDBRANCH  23  27
ENDBRANCH   1  23
TORSDOF 6
ENDMDL
MODEL 8
REMARK VINA RESULT:      -7.6      5.555      9.227
REMARK  Name = 
REMARK  7 active torsions:
REMARK  status: ('A' for Active; 'I' for Inactive)
REMARK    1  A    between atoms: C_1  and  C_2
REMARK    2  A    between atoms: C_2  and  N_3
REMARK    3  A    between atoms: N_6  and  C_7
REMARK    4  A    between atoms: C_7  and  C_8
REMARK    5  A    between atoms: N_17  and  C_18
REMARK    6  A    between atoms: C_22  and  O_23
REMARK    7  A    between atoms: C_25  and  O_26
REMARK                            x       y       z     vdW  Elec       q    Type
REMARK                         _______ _______ _______ _____ _____    ______ ____
ROOT
ATOM      1  C   UNL     1       1.131  10.095  19.086  0.00  0.00    +0.000 A 
ATOM      2  C   UNL     1       1.883   9.646  17.970  0.00  0.00    +0.000 A 
ATOM      3  C   UNL     1       2.497   8.384  17.956  0.00  0.00    +0.000 A 
ATOM      4  C   UNL     1       2.336   7.586  19.069  0.00  0.00    +0.000 A 
ATOM      5  C   UNL     1       1.556   8.008  20.148  0.00  0.00    +0.000 A 
ATOM      6  C   UNL     1       0.952   9.246  20.192  0.00  0.00    +0.000 A 
ATOM      7  N   UNL     1       1.498   6.983  21.084  0.00  0.00    +0.000 N 
ATOM      8  C   UNL     1       2.231   5.874  20.605  0.00  0.00    +0.000 A 
ATOM      9  O   UNL     1       2.387   4.833  21.220  0.00  0.00    +0.000 OA
ATOM     10  N   UNL     1       2.771   6.280  19.356  0.00  0.00    +0.000 N 
ATOM     11  H   UNL     1       1.017   6.983  21.968  0.00  0.00    +0.000 HD
ENDROOT
BRANCH  10  12
ATOM     12  C   UNL     1       3.537   5.489  18.493  0.00  0.00    +0.000 A 
ATOM     13  C   UNL     1       4.933   5.602  18.498  0.00  0.00    +0.000 A 
ATOM     14  C   UNL     1       5.699   4.761  17.689  0.00  0.00    +0.000 A 
ATOM     15 CL   UNL     1       7.419   4.874  17.733  0.00  0.00    +0.000 Cl
ATOM     16  C   UNL     1       5.076   3.824  16.860  0.00  0.00    +0.000 A 
ATOM     17  C   UNL     1       3.690   3.708  16.839  0.00  0.00    +0.000 A 
ATOM     18  C   UNL     1       2.925   4.537  17.658  0.00  0.00    +0.000 A 
BRANCH  16  19
ATOM     19  O   UNL     1       5.788   2.993  16.040  0.00  0.00    +0.000 OA
ATOM     20  H   UNL     1       5.678   2.084  16.379  0.00  0.00    +0.000 HD
ENDBRANCH  16  19
BRANCH  18  21
ATOM     21  O   UNL     1       1.560   4.482  17.590  0.00  0.00    +0.000 OA
ATOM     22  H   UNL     1       1.183   5.162  18.170  0.00  0.00    +0.000 HD
ENDBRANCH  18  21
ENDBRANCH  10  12
BRANCH   1  23
ATOM     23  C   UNL     1       0.517  11.473  19.082  0.00  0.00    +0.000 C 
BRANCH  23  27
ATOM     24  N   UNL     1       2.637  14.152  20.264  0.00  0.00    +0.000 N 
ATOM     25  C   UNL     1       1.785  13.086  20.369  0.00  0.00    +0.000 C 
ATOM     26  O   UNL     1       1.311  12.686  21.424  0.00  0.00    +0.000 OA
ATOM     27  N   UNL     1       1.513  12.517  19.150  0.00  0.00    +0.000 N 
ATOM     28  H   UNL     1       3.152  14.259  19.404  0.00  0.00    +0.000 HD
ATOM     29  H   UNL     1       1.660  13.085  18.331  0.00  0.00    +0.000 HD
BRANCH  24  31
ATOM     30  C   UNL     1       4.575  14.558  21.729  0.00  0.00    +0.000 C 
ATOM     31  C   UNL     1       3.114  14.857  21.438  0.00  0.00    +0.000 C 
ENDBRANCH  24  31
ENDBRANCH  23  27
ENDBRANCH   1  23
TORSDOF 6
ENDMDL
MODEL 9
REMARK VINA RESULT:      -7.4      6.103      7.901
REMARK  Name = 
REMARK  7 active torsions:
REMARK  status: ('A' for Active; 'I' for Inactive)
REMARK    1  A    between atoms: C_1  and  C_2
REMARK    2  A    between atoms: C_2  and  N_3
REMARK    3  A    between atoms: N_6  and  C_7
REMARK    4  A    between atoms: C_7  and  C_8
REMARK    5  A    between atoms: N_17  and  C_18
REMARK    6  A    between atoms: C_22  and  O_23
REMARK    7  A    between atoms: C_25  and  O_26
REMARK                            x       y       z     vdW  Elec       q    Type
REMARK                         _______ _______ _______ _____ _____    ______ ____
ROOT
ATOM      1  C   UNL     1       2.569   6.841  18.627  0.00  0.00    +0.000 A 
ATOM      2  C   UNL     1       2.328   7.967  17.798  0.00  0.00    +0.000 A 
ATOM      3  C   UNL     1       1.741   9.138  18.302  0.00  0.00    +0.000 A 
ATOM      4  C   UNL     1       1.413   9.161  19.640  0.00  0.00    +0.000 A 
ATOM      5  C   UNL     1       1.694   8.070  20.466  0.00  0.00    +0.000 A 
ATOM      6  C   UNL     1       2.259   6.904  19.996  0.00  0.00    +0.000 A 
ATOM      7  N   UNL     1       1.339   8.394  21.770  0.00  0.00    +0.000 N 
ATOM      8  C   UNL     1       0.838   9.715  21.800  0.00  0.00    +0.000 A 
ATOM      9  O   UNL     1       0.417  10.270  22.800  0.00  0.00    +0.000 OA
ATOM     10  N   UNL     1       0.866  10.168  20.455  0.00  0.00    +0.000 N 
ATOM     11  H   UNL     1       1.416   7.818  22.591  0.00  0.00    +0.000 HD
ENDROOT
BRANCH  10  12
ATOM     12  C   UNL     1       0.499  11.441  20.006  0.00  0.00    +0.000 A 
ATOM     13  C   UNL     1       1.350  12.532  20.225  0.00  0.00    +0.000 A 
ATOM     14  C   UNL     1       1.015  13.786  19.713  0.00  0.00    +0.000 A 
ATOM     15 CL   UNL     1       2.090  15.114  19.947  0.00  0.00    +0.000 Cl
ATOM     16  C   UNL     1      -0.175  13.961  19.001  0.00  0.00    +0.000 A 
ATOM     17  C   UNL     1      -1.034  12.888  18.785  0.00  0.00    +0.000 A 
ATOM     18  C   UNL     1      -0.693  11.632  19.283  0.00  0.00    +0.000 A 
BRANCH  16  19
ATOM     19  O   UNL     1      -0.549  15.175  18.498  0.00  0.00    +0.000 OA
ATOM     20  H   UNL     1      -1.525  15.193  18.473  0.00  0.00    +0.000 HD
ENDBRANCH  16  19
BRANCH  18  21
ATOM     21  O   UNL     1      -1.565  10.588  19.139  0.00  0.00    +0.000 OA
ATOM     22  H   UNL     1      -1.282  10.034  18.395  0.00  0.00    +0.000 HD
ENDBRANCH  18  21
ENDBRANCH  10  12
BRANCH   1  23
ATOM     23  C   UNL     1       3.166   5.585  18.042  0.00  0.00    +0.000 C 
BRANCH  23  27
ATOM     24  N   UNL     1       5.884   5.254  15.681  0.00  0.00    +0.000 N 
ATOM     25  C   UNL     1       4.888   4.826  16.518  0.00  0.00    +0.000 C 
ATOM     26  O   UNL     1       4.675   3.651  16.787  0.00  0.00    +0.000 OA
ATOM     27  N   UNL     1       4.158   5.868  17.031  0.00  0.00    +0.000 N 
ATOM     28  H   UNL     1       5.835   6.201  15.339  0.00  0.00    +0.000 HD
ATOM     29  H   UNL     1       4.590   6.779  17.034  0.00  0.00    +0.000 HD
BRANCH  24  31
ATOM     30  C   UNL     1       6.144   3.916  13.629  0.00  0.00    +0.000 C 
ATOM     31  C   UNL     1       6.732   4.314  14.972  0.00  0.00    +0.000 C 
ENDBRANCH  24  31
ENDBRANCH  23  27
ENDBRANCH   1  23
TORSDOF 6
ENDMDL
