MODEL 1
REMARK VINA RESULT:      -7.8      0.000      0.000
REMARK  Name = 
REMARK  5 active torsions:
REMARK  status: ('A' for Active; 'I' for Inactive)
REMARK    1  A    between atoms: C_1  and  S_2
REMARK    2  A    between atoms: S_2  and  C_3
REMARK    3  A    between atoms: C_6  and  C_7
REMARK    4  A    between atoms: N_9  and  C_10
REMARK    5  A    between atoms: C_17  and  N_18
REMARK                            x       y       z     vdW  Elec       q    Type
REMARK                         _______ _______ _______ _____ _____    ______ ____
ROOT
ATOM      1  C   UNL     1       5.608   5.075  15.744  0.00  0.00    +0.000 A 
ATOM      2  N   UNL     1       5.674   6.400  15.918  0.00  0.00    +0.000 NA
ATOM      3  C   UNL     1       4.839   6.907  16.843  0.00  0.00    +0.000 A 
ATOM      4  C   UNL     1       3.991   6.148  17.628  0.00  0.00    +0.000 A 
ATOM      5  C   UNL     1       3.987   4.772  17.394  0.00  0.00    +0.000 A 
ATOM      6  N   UNL     1       4.800   4.259  16.437  0.00  0.00    +0.000 NA
ENDROOT
BRANCH   5   7
ATOM      7  N   UNL     1       3.279   3.825  18.094  0.00  0.00    +0.000 N 
ATOM      8  C   UNL     1       1.916   3.370  17.802  0.00  0.00    +0.000 C 
ATOM      9  C   UNL     1       1.139   3.159  19.115  0.00  0.00    +0.000 C 
ATOM     10  O   UNL     1       1.840   2.311  20.040  0.00  0.00    +0.000 OA
ATOM     11  C   UNL     1       3.137   2.859  20.334  0.00  0.00    +0.000 C 
ATOM     12  C   UNL     1       3.985   2.968  19.061  0.00  0.00    +0.000 C 
ENDBRANCH   5   7
BRANCH   4  13
ATOM     13  C   UNL     1       3.036   6.831  18.520  0.00  0.00    +0.000 C 
ATOM     14  O   UNL     1       2.845   6.341  19.630  0.00  0.00    +0.000 OA
ATOM     15  N   UNL     1       2.362   7.946  18.036  0.00  0.00    +0.000 N 
ATOM     16  H   UNL     1       2.298   8.101  17.035  0.00  0.00    +0.000 HD
BRANCH  15  17
ATOM     17  C   UNL     1       1.537   8.754  18.855  0.00  0.00    +0.000 A 
ATOM     18  C   UNL     1       1.449   8.546  20.238  0.00  0.00    +0.000 A 
ATOM     19  C   UNL     1       0.549   9.274  21.016  0.00  0.00    +0.000 A 
ATOM     20  C   UNL     1      -0.255  10.224  20.406  0.00  0.00    +0.000 A 
ATOM     21  F   UNL     1      -1.160  10.886  21.138  0.00  0.00    +0.000 F 
ATOM     22  C   UNL     1      -0.136  10.492  19.046  0.00  0.00    +0.000 A 
ATOM     23  C   UNL     1       0.779   9.772  18.269  0.00  0.00    +0.000 A 
ENDBRANCH  15  17
ENDBRANCH   4  13
BRANCH   1  25
ATOM     24  C   UNL     1       5.525   3.800  13.314  0.00  0.00    +0.000 C 
ATOM     25  S   UNL     1       6.716   4.366  14.554  0.00  0.00    +0.000 S 
ENDBRANCH   1  25
TORSDOF 4
ENDMDL
MODEL 2
REMARK VINA RESULT:      -7.7      0.280      1.024
REMARK  Name = 
REMARK  5 active torsions:
REMARK  status: ('A' for Active; 'I' for Inactive)
REMARK    1  A    between atoms: C_1  and  S_2
REMARK    2  A    between atoms: S_2  and  C_3
REMARK    3  A    between atoms: C_6  and  C_7
REMARK    4  A    between atoms: N_9  and  C_10
REMARK    5  A    between atoms: C_17  and  N_18
REMARK                            x       y       z     vdW  Elec       q    Type
REMARK                         _______ _______ _______ _____ _____    ______ ____
ROOT
ATOM      1  C   UNL     1       5.832   5.313  15.950  0.00  0.00    +0.000 A 
ATOM      2  N   UNL     1       5.810   6.633  16.162  0.00  0.00    +0.000 NA
ATOM      3  C   UNL     1       4.873   7.068  17.025  0.00  0.00    +0.000 A 
ATOM      4  C   UNL     1       4.005   6.244  17.715  0.00  0.00    +0.000 A 
ATOM      5  C   UNL     1       4.097   4.876  17.448  0.00  0.00    +0.000 A 
ATOM      6  N   UNL     1       5.014   4.435  16.551  0.00  0.00    +0.000 NA
ENDROOT
BRANCH   5   7
ATOM      7  N   UNL     1       3.386   3.873  18.062  0.00  0.00    +0.000 N 
ATOM      8  C   UNL     1       2.117   3.302  17.597  0.00  0.00    +0.000 C 
ATOM      9  C   UNL     1       1.193   3.027  18.799  0.00  0.00    +0.000 C 
ATOM     10  O   UNL     1       1.834   2.245  19.820  0.00  0.00    +0.000 OA
ATOM     11  C   UNL     1       3.029   2.904  20.276  0.00  0.00    +0.000 C 
ATOM     12  C   UNL     1       4.027   3.083  19.125  0.00  0.00    +0.000 C 
ENDBRANCH   5   7
BRANCH   4  13
ATOM     13  C   UNL     1       2.943   6.848  18.539  0.00  0.00    +0.000 C 
ATOM     14  O   UNL     1       2.560   6.222  19.524  0.00  0.00    +0.000 OA
ATOM     15  N   UNL     1       2.393   8.055  18.124  0.00  0.00    +0.000 N 
ATOM     16  H   UNL     1       2.494   8.350  17.158  0.00  0.00    +0.000 HD
BRANCH  15  17
ATOM     17  C   UNL     1       1.473   8.787  18.915  0.00  0.00    +0.000 A 
ATOM     18  C   UNL     1       0.600   9.724  18.346  0.00  0.00    +0.000 A 
ATOM     19  C   UNL     1      -0.221  10.517  19.147  0.00  0.00    +0.000 A 
ATOM     20  C   UNL     1      -0.176  10.358  20.523  0.00  0.00    +0.000 A 
ATOM     21  F   UNL     1      -0.919  11.156  21.301  0.00  0.00    +0.000 F 
ATOM     22  C   UNL     1       0.635   9.388  21.104  0.00  0.00    +0.000 A 
ATOM     23  C   UNL     1       1.446   8.582  20.298  0.00  0.00    +0.000 A 
ENDBRANCH  15  17
ENDBRANCH   4  13
BRANCH   1  25
ATOM     24  C   UNL     1       6.023   3.873  13.621  0.00  0.00    +0.000 C 
ATOM     25  S   UNL     1       7.073   4.698  14.842  0.00  0.00    +0.000 S 
ENDBRANCH   1  25
TORSDOF 4
ENDMDL
MODEL 3
REMARK VINA RESULT:      -7.6      1.287      1.634
REMARK  Name = 
REMARK  5 active torsions:
REMARK  status: ('A' for Active; 'I' for Inactive)
REMARK    1  A    between atoms: C_1  and  S_2
REMARK    2  A    between atoms: S_2  and  C_3
REMARK    3  A    between atoms: C_6  and  C_7
REMARK    4  A    between atoms: N_9  and  C_10
REMARK    5  A    between atoms: C_17  and  N_18
REMARK                            x       y       z     vdW  Elec       q    Type
REMARK                         _______ _______ _______ _____ _____    ______ ____
ROOT
ATOM      1  C   UNL     1       5.456   5.333  16.464  0.00  0.00    +0.000 A 
ATOM      2  N   UNL     1       5.552   6.663  16.354  0.00  0.00    +0.000 NA
ATOM      3  C   UNL     1       4.616   7.370  17.015  0.00  0.00    +0.000 A 
ATOM      4  C   UNL     1       3.636   6.811  17.813  0.00  0.00    +0.000 A 
ATOM      5  C   UNL     1       3.607   5.418  17.885  0.00  0.00    +0.000 A 
ATOM      6  N   UNL     1       4.524   4.698  17.191  0.00  0.00    +0.000 NA
ENDROOT
BRANCH   5   7
ATOM      7  N   UNL     1       2.769   4.655  18.663  0.00  0.00    +0.000 N 
ATOM      8  C   UNL     1       2.901   4.419  20.105  0.00  0.00    +0.000 C 
ATOM      9  C   UNL     1       2.543   2.957  20.434  0.00  0.00    +0.000 C 
ATOM     10  O   UNL     1       1.264   2.570  19.903  0.00  0.00    +0.000 OA
ATOM     11  C   UNL     1       1.238   2.761  18.478  0.00  0.00    +0.000 C 
ATOM     12  C   UNL     1       1.468   4.234  18.119  0.00  0.00    +0.000 C 
ENDBRANCH   5   7
BRANCH   4  13
ATOM     13  C   UNL     1       2.594   7.683  18.386  0.00  0.00    +0.000 C 
ATOM     14  O   UNL     1       2.279   7.499  19.559  0.00  0.00    +0.000 OA
ATOM     15  N   UNL     1       1.985   8.617  17.556  0.00  0.00    +0.000 N 
ATOM     16  H   UNL     1       2.031   8.502  16.549  0.00  0.00    +0.000 HD
BRANCH  15  17
ATOM     17  C   UNL     1       1.081   9.593  18.040  0.00  0.00    +0.000 A 
ATOM     18  C   UNL     1       1.522  10.698  18.781  0.00  0.00    +0.000 A 
ATOM     19  C   UNL     1       0.612  11.591  19.346  0.00  0.00    +0.000 A 
ATOM     20  C   UNL     1      -0.745  11.382  19.155  0.00  0.00    +0.000 A 
ATOM     21  F   UNL     1      -1.625  12.204  19.742  0.00  0.00    +0.000 F 
ATOM     22  C   UNL     1      -1.201  10.331  18.367  0.00  0.00    +0.000 A 
ATOM     23  C   UNL     1      -0.287   9.444  17.787  0.00  0.00    +0.000 A 
ENDBRANCH  15  17
ENDBRANCH   4  13
BRANCH   1  25
ATOM     24  C   UNL     1       5.866   4.109  14.041  0.00  0.00    +0.000 C 
ATOM     25  S   UNL     1       6.690   4.368  15.631  0.00  0.00    +0.000 S 
ENDBRANCH   1  25
TORSDOF 4
ENDMDL
MODEL 4
REMARK VINA RESULT:      -7.6      1.372      1.751
REMARK  Name = 
REMARK  5 active torsions:
REMARK  status: ('A' for Active; 'I' for Inactive)
REMARK    1  A    between atoms: C_1  and  S_2
REMARK    2  A    between atoms: S_2  and  C_3
REMARK    3  A    between atoms: C_6  and  C_7
REMARK    4  A    between atoms: N_9  and  C_10
REMARK    5  A    between atoms: C_17  and  N_18
REMARK                            x       y       z     vdW  Elec       q    Type
REMARK                         _______ _______ _______ _____ _____    ______ ____
ROOT
ATOM      1  C   UNL     1       5.394   5.131  16.348  0.00  0.00    +0.000 A 
ATOM      2  N   UNL     1       5.529   6.455  16.210  0.00  0.00    +0.000 NA
ATOM      3  C   UNL     1       4.640   7.204  16.888  0.00  0.00    +0.000 A 
ATOM      4  C   UNL     1       3.670   6.693  17.728  0.00  0.00    +0.000 A 
ATOM      5  C   UNL     1       3.598   5.303  17.828  0.00  0.00    +0.000 A 
ATOM      6  N   UNL     1       4.467   4.541  17.118  0.00  0.00    +0.000 NA
ENDROOT
BRANCH   5   7
ATOM      7  N   UNL     1       2.762   4.583  18.648  0.00  0.00    +0.000 N 
ATOM      8  C   UNL     1       2.929   4.377  20.091  0.00  0.00    +0.000 C 
ATOM      9  C   UNL     1       2.540   2.934  20.465  0.00  0.00    +0.000 C 
ATOM     10  O   UNL     1       1.236   2.571  19.981  0.00  0.00    +0.000 OA
ATOM     11  C   UNL     1       1.173   2.730  18.552  0.00  0.00    +0.000 C 
ATOM     12  C   UNL     1       1.434   4.187  18.152  0.00  0.00    +0.000 C 
ENDBRANCH   5   7
BRANCH   4  13
ATOM     13  C   UNL     1       2.677   7.610  18.319  0.00  0.00    +0.000 C 
ATOM     14  O   UNL     1       2.357   7.424  19.490  0.00  0.00    +0.000 OA
ATOM     15  N   UNL     1       2.116   8.587  17.506  0.00  0.00    +0.000 N 
ATOM     16  H   UNL     1       2.153   8.486  16.497  0.00  0.00    +0.000 HD
BRANCH  15  17
ATOM     17  C   UNL     1       1.266   9.602  18.009  0.00  0.00    +0.000 A 
ATOM     18  C   UNL     1      -0.129   9.476  17.968  0.00  0.00    +0.000 A 
ATOM     19  C   UNL     1      -0.955  10.529  18.364  0.00  0.00    +0.000 A 
ATOM     20  C   UNL     1      -0.378  11.706  18.814  0.00  0.00    +0.000 A 
ATOM     21  F   UNL     1      -1.164  12.739  19.142  0.00  0.00    +0.000 F 
ATOM     22  C   UNL     1       1.003  11.827  18.925  0.00  0.00    +0.000 A 
ATOM     23  C   UNL     1       1.831  10.764  18.543  0.00  0.00    +0.000 A 
ENDBRANCH  15  17
ENDBRANCH   4  13
BRANCH   1  25
ATOM     24  C   UNL     1       5.824   4.094  13.844  0.00  0.00    +0.000 C 
ATOM     25  S   UNL     1       6.566   4.110  15.494  0.00  0.00    +0.000 S 
ENDBRANCH   1  25
TORSDOF 4
ENDMDL
MODEL 5
REMARK VINA RESULT:      -7.6      1.410      1.979
REMARK  Name = 
REMARK  5 active torsions:
REMARK  status: ('A' for Active; 'I' for Inactive)
REMARK    1  A    between atoms: C_1  and  S_2
REMARK    2  A    between atoms: S_2  and  C_3
REMARK    3  A    between atoms: C_6  and  C_7
REMARK    4  A    between atoms: N_9  and  C_10
REMARK    5  A    between atoms: C_17  and  N_18
REMARK                            x       y       z     vdW  Elec       q    Type
REMARK                         _______ _______ _______ _____ _____    ______ ____
ROOT
ATOM      1  C   UNL     1       5.169   5.185  16.776  0.00  0.00    +0.000 A 
ATOM      2  N   UNL     1       5.255   6.508  16.595  0.00  0.00    +0.000 NA
ATOM      3  C   UNL     1       4.317   7.243  17.222  0.00  0.00    +0.000 A 
ATOM      4  C   UNL     1       3.344   6.721  18.053  0.00  0.00    +0.000 A 
ATOM      5  C   UNL     1       3.326   5.333  18.200  0.00  0.00    +0.000 A 
ATOM      6  N   UNL     1       4.245   4.584  17.541  0.00  0.00    +0.000 NA
ENDROOT
BRANCH   5   7
ATOM      7  N   UNL     1       2.497   4.607  19.021  0.00  0.00    +0.000 N 
ATOM      8  C   UNL     1       2.504   4.619  20.488  0.00  0.00    +0.000 C 
ATOM      9  C   UNL     1       2.269   3.194  21.026  0.00  0.00    +0.000 C 
ATOM     10  O   UNL     1       1.099   2.578  20.463  0.00  0.00    +0.000 OA
ATOM     11  C   UNL     1       1.199   2.538  19.028  0.00  0.00    +0.000 C 
ATOM     12  C   UNL     1       1.309   3.954  18.448  0.00  0.00    +0.000 C 
ENDBRANCH   5   7
BRANCH   4  13
ATOM     13  C   UNL     1       2.299   7.615  18.583  0.00  0.00    +0.000 C 
ATOM     14  O   UNL     1       1.488   8.079  17.785  0.00  0.00    +0.000 OA
ATOM     15  N   UNL     1       2.325   7.931  19.936  0.00  0.00    +0.000 N 
ATOM     16  H   UNL     1       3.182   7.808  20.466  0.00  0.00    +0.000 HD
BRANCH  15  17
ATOM     17  C   UNL     1       1.290   8.661  20.570  0.00  0.00    +0.000 A 
ATOM     18  C   UNL     1       1.031   9.999  20.244  0.00  0.00    +0.000 A 
ATOM     19  C   UNL     1       0.083  10.738  20.952  0.00  0.00    +0.000 A 
ATOM     20  C   UNL     1      -0.616  10.127  21.982  0.00  0.00    +0.000 A 
ATOM     21  F   UNL     1      -1.486  10.847  22.702  0.00  0.00    +0.000 F 
ATOM     22  C   UNL     1      -0.422   8.782  22.276  0.00  0.00    +0.000 A 
ATOM     23  C   UNL     1       0.518   8.037  21.554  0.00  0.00    +0.000 A 
ENDBRANCH  15  17
ENDBRANCH   4  13
BRANCH   1  25
ATOM     24  C   UNL     1       5.771   4.176  14.296  0.00  0.00    +0.000 C 
ATOM     25  S   UNL     1       6.406   4.186  15.990  0.00  0.00    +0.000 S 
ENDBRANCH   1  25
TORSDOF 4
ENDMDL
MODEL 6
REMARK VINA RESULT:      -7.6      1.297      1.750
REMARK  Name = 
REMARK  5 active torsions:
REMARK  status: ('A' for Active; 'I' for Inactive)
REMARK    1  A    between atoms: C_1  and  S_2
REMARK    2  A    between atoms: S_2  and  C_3
REMARK    3  A    between atoms: C_6  and  C_7
REMARK    4  A    between atoms: N_9  and  C_10
REMARK    5  A    between atoms: C_17  and  N_18
REMARK                            x       y       z     vdW  Elec       q    Type
REMARK                         _______ _______ _______ _____ _____    ______ ____
ROOT
ATOM      1  C   UNL     1       4.764   5.552  16.390  0.00  0.00    +0.000 A 
ATOM      2  N   UNL     1       4.767   6.862  16.659  0.00  0.00    +0.000 NA
ATOM      3  C   UNL     1       3.987   7.246  17.687  0.00  0.00    +0.000 A 
ATOM      4  C   UNL     1       3.257   6.380  18.478  0.00  0.00    +0.000 A 
ATOM      5  C   UNL     1       3.313   5.027  18.141  0.00  0.00    +0.000 A 
ATOM      6  N   UNL     1       4.068   4.638  17.083  0.00  0.00    +0.000 NA
ENDROOT
BRANCH   5   7
ATOM      7  N   UNL     1       2.726   3.988  18.822  0.00  0.00    +0.000 N 
ATOM      8  C   UNL     1       1.401   3.416  18.556  0.00  0.00    +0.000 C 
ATOM      9  C   UNL     1       0.698   3.077  19.884  0.00  0.00    +0.000 C 
ATOM     10  O   UNL     1       1.511   2.265  20.747  0.00  0.00    +0.000 OA
ATOM     11  C   UNL     1       2.760   2.923  21.021  0.00  0.00    +0.000 C 
ATOM     12  C   UNL     1       3.546   3.165  19.726  0.00  0.00    +0.000 C 
ENDBRANCH   5   7
BRANCH   4  13
ATOM     13  C   UNL     1       2.345   6.934  19.496  0.00  0.00    +0.000 C 
ATOM     14  O   UNL     1       2.024   6.204  20.430  0.00  0.00    +0.000 OA
ATOM     15  N   UNL     1       1.852   8.220  19.310  0.00  0.00    +0.000 N 
ATOM     16  H   UNL     1       1.869   8.638  18.386  0.00  0.00    +0.000 HD
BRANCH  15  17
ATOM     17  C   UNL     1       1.088   8.894  20.295  0.00  0.00    +0.000 A 
ATOM     18  C   UNL     1       0.129   9.855  19.947  0.00  0.00    +0.000 A 
ATOM     19  C   UNL     1      -0.536  10.590  20.929  0.00  0.00    +0.000 A 
ATOM     20  C   UNL     1      -0.247  10.350  22.263  0.00  0.00    +0.000 A 
ATOM     21  F   UNL     1      -0.840  11.092  23.207  0.00  0.00    +0.000 F 
ATOM     22  C   UNL     1       0.653   9.355  22.630  0.00  0.00    +0.000 A 
ATOM     23  C   UNL     1       1.308   8.606  21.645  0.00  0.00    +0.000 A 
ENDBRANCH  15  17
ENDBRANCH   4  13
BRANCH   1  25
ATOM     24  C   UNL     1       7.220   4.389  16.006  0.00  0.00    +0.000 C 
ATOM     25  S   UNL     1       5.804   5.003  15.062  0.00  0.00    +0.000 S 
ENDBRANCH   1  25
TORSDOF 4
ENDMDL
MODEL 7
REMARK VINA RESULT:      -7.3      1.074      1.136
REMARK  Name = 
REMARK  5 active torsions:
REMARK  status: ('A' for Active; 'I' for Inactive)
REMARK    1  A    between atoms: C_1  and  S_2
REMARK    2  A    between atoms: S_2  and  C_3
REMARK    3  A    between atoms: C_6  and  C_7
REMARK    4  A    between atoms: N_9  and  C_10
REMARK    5  A    between atoms: C_17  and  N_18
REMARK                            x       y       z     vdW  Elec       q    Type
REMARK                         _______ _______ _______ _____ _____    ______ ____
ROOT
ATOM      1  C   UNL     1       4.869   4.773  16.289  0.00  0.00    +0.000 A 
ATOM      2  N   UNL     1       5.009   6.095  16.442  0.00  0.00    +0.000 NA
ATOM      3  C   UNL     1       4.300   6.642  17.447  0.00  0.00    +0.000 A 
ATOM      4  C   UNL     1       3.510   5.925  18.325  0.00  0.00    +0.000 A 
ATOM      5  C   UNL     1       3.423   4.549  18.107  0.00  0.00    +0.000 A 
ATOM      6  N   UNL     1       4.105   3.996  17.073  0.00  0.00    +0.000 NA
ENDROOT
BRANCH   5   7
ATOM      7  N   UNL     1       2.755   3.636  18.888  0.00  0.00    +0.000 N 
ATOM      8  C   UNL     1       1.349   3.241  18.749  0.00  0.00    +0.000 C 
ATOM      9  C   UNL     1       0.711   3.069  20.141  0.00  0.00    +0.000 C 
ATOM     10  O   UNL     1       1.472   2.195  20.992  0.00  0.00    +0.000 OA
ATOM     11  C   UNL     1       2.815   2.687  21.138  0.00  0.00    +0.000 C 
ATOM     12  C   UNL     1       3.524   2.753  19.780  0.00  0.00    +0.000 C 
ENDBRANCH   5   7
BRANCH   4  13
ATOM     13  C   UNL     1       2.686   6.652  19.307  0.00  0.00    +0.000 C 
ATOM     14  O   UNL     1       2.522   6.132  20.409  0.00  0.00    +0.000 OA
ATOM     15  N   UNL     1       2.093   7.846  18.916  0.00  0.00    +0.000 N 
ATOM     16  H   UNL     1       1.978   8.052  17.929  0.00  0.00    +0.000 HD
BRANCH  15  17
ATOM     17  C   UNL     1       1.405   8.690  19.822  0.00  0.00    +0.000 A 
ATOM     18  C   UNL     1       1.120   8.281  21.132  0.00  0.00    +0.000 A 
ATOM     19  C   UNL     1       0.346   9.075  21.978  0.00  0.00    +0.000 A 
ATOM     20  C   UNL     1      -0.132  10.289  21.512  0.00  0.00    +0.000 A 
ATOM     21  F   UNL     1      -0.923  11.030  22.299  0.00  0.00    +0.000 F 
ATOM     22  C   UNL     1       0.195  10.744  20.239  0.00  0.00    +0.000 A 
ATOM     23  C   UNL     1       0.986   9.954  19.396  0.00  0.00    +0.000 A 
ENDBRANCH  15  17
ENDBRANCH   4  13
BRANCH   1  25
ATOM     24  C   UNL     1       7.322   5.004  15.080  0.00  0.00    +0.000 C 
ATOM     25  S   UNL     1       5.811   4.011  14.994  0.00  0.00    +0.000 S 
ENDBRANCH   1  25
TORSDOF 4
ENDMDL
MODEL 8
REMARK VINA RESULT:      -7.3      1.336      1.476
REMARK  Name = 
REMARK  5 active torsions:
REMARK  status: ('A' for Active; 'I' for Inactive)
REMARK    1  A    between atoms: C_1  and  S_2
REMARK    2  A    between atoms: S_2  and  C_3
REMARK    3  A    between atoms: C_6  and  C_7
REMARK    4  A    between atoms: N_9  and  C_10
REMARK    5  A    between atoms: C_17  and  N_18
REMARK                            x       y       z     vdW  Elec       q    Type
REMARK                         _______ _______ _______ _____ _____    ______ ____
ROOT
ATOM      1  C   UNL     1       5.457   5.003  16.331  0.00  0.00    +0.000 A 
ATOM      2  N   UNL     1       5.509   6.323  16.119  0.00  0.00    +0.000 NA
ATOM      3  C   UNL     1       4.604   7.057  16.792  0.00  0.00    +0.000 A 
ATOM      4  C   UNL     1       3.697   6.538  17.697  0.00  0.00    +0.000 A 
ATOM      5  C   UNL     1       3.711   5.153  17.871  0.00  0.00    +0.000 A 
ATOM      6  N   UNL     1       4.595   4.404  17.167  0.00  0.00    +0.000 NA
ENDROOT
BRANCH   5   7
ATOM      7  N   UNL     1       2.949   4.432  18.760  0.00  0.00    +0.000 N 
ATOM      8  C   UNL     1       1.635   3.838  18.493  0.00  0.00    +0.000 C 
ATOM      9  C   UNL     1       0.724   4.002  19.724  0.00  0.00    +0.000 C 
ATOM     10  O   UNL     1       1.336   3.520  20.932  0.00  0.00    +0.000 OA
ATOM     11  C   UNL     1       2.582   4.200  21.164  0.00  0.00    +0.000 C 
ATOM     12  C   UNL     1       3.562   3.955  20.010  0.00  0.00    +0.000 C 
ENDBRANCH   5   7
BRANCH   4  13
ATOM     13  C   UNL     1       2.675   7.427  18.278  0.00  0.00    +0.000 C 
ATOM     14  O   UNL     1       2.313   7.201  19.431  0.00  0.00    +0.000 OA
ATOM     15  N   UNL     1       2.136   8.426  17.477  0.00  0.00    +0.000 N 
ATOM     16  H   UNL     1       2.211   8.357  16.467  0.00  0.00    +0.000 HD
BRANCH  15  17
ATOM     17  C   UNL     1       1.259   9.418  17.980  0.00  0.00    +0.000 A 
ATOM     18  C   UNL     1      -0.130   9.313  17.827  0.00  0.00    +0.000 A 
ATOM     19  C   UNL     1      -0.975  10.349  18.227  0.00  0.00    +0.000 A 
ATOM     20  C   UNL     1      -0.424  11.487  18.795  0.00  0.00    +0.000 A 
ATOM     21  F   UNL     1      -1.223  12.508  19.130  0.00  0.00    +0.000 F 
ATOM     22  C   UNL     1       0.946  11.582  19.017  0.00  0.00    +0.000 A 
ATOM     23  C   UNL     1       1.792  10.535  18.630  0.00  0.00    +0.000 A 
ENDBRANCH  15  17
ENDBRANCH   4  13
BRANCH   1  25
ATOM     24  C   UNL     1       5.998   4.092  13.799  0.00  0.00    +0.000 C 
ATOM     25  S   UNL     1       6.654   4.006  15.483  0.00  0.00    +0.000 S 
ENDBRANCH   1  25
TORSDOF 4
ENDMDL
MODEL 9
REMARK VINA RESULT:      -7.2      0.618      1.154
REMARK  Name = 
REMARK  5 active torsions:
REMARK  status: ('A' for Active; 'I' for Inactive)
REMARK    1  A    between atoms: C_1  and  S_2
REMARK    2  A    between atoms: S_2  and  C_3
REMARK    3  A    between atoms: C_6  and  C_7
REMARK    4  A    between atoms: N_9  and  C_10
REMARK    5  A    between atoms: C_17  and  N_18
REMARK                            x       y       z     vdW  Elec       q    Type
REMARK                         _______ _______ _______ _____ _____    ______ ____
ROOT
ATOM      1  C   UNL     1       5.746   5.400  15.654  0.00  0.00    +0.000 A 
ATOM      2  N   UNL     1       5.717   6.733  15.765  0.00  0.00    +0.000 NA
ATOM      3  C   UNL     1       4.861   7.221  16.682  0.00  0.00    +0.000 A 
ATOM      4  C   UNL     1       4.085   6.442  17.516  0.00  0.00    +0.000 A 
ATOM      5  C   UNL     1       4.178   5.059  17.347  0.00  0.00    +0.000 A 
ATOM      6  N   UNL     1       5.011   4.561  16.399  0.00  0.00    +0.000 NA
ENDROOT
BRANCH   5   7
ATOM      7  N   UNL     1       3.553   4.097  18.104  0.00  0.00    +0.000 N 
ATOM      8  C   UNL     1       3.983   3.616  19.421  0.00  0.00    +0.000 C 
ATOM      9  C   UNL     1       3.773   2.093  19.519  0.00  0.00    +0.000 C 
ATOM     10  O   UNL     1       2.435   1.698  19.173  0.00  0.00    +0.000 OA
ATOM     11  C   UNL     1       2.113   2.141  17.843  0.00  0.00    +0.000 C 
ATOM     12  C   UNL     1       2.191   3.670  17.742  0.00  0.00    +0.000 C 
ENDBRANCH   5   7
BRANCH   4  13
ATOM     13  C   UNL     1       3.096   7.095  18.394  0.00  0.00    +0.000 C 
ATOM     14  O   UNL     1       2.970   6.657  19.535  0.00  0.00    +0.000 OA
ATOM     15  N   UNL     1       2.322   8.121  17.866  0.00  0.00    +0.000 N 
ATOM     16  H   UNL     1       2.222   8.211  16.860  0.00  0.00    +0.000 HD
BRANCH  15  17
ATOM     17  C   UNL     1       1.450   8.905  18.661  0.00  0.00    +0.000 A 
ATOM     18  C   UNL     1       1.370   8.733  20.049  0.00  0.00    +0.000 A 
ATOM     19  C   UNL     1       0.429   9.433  20.804  0.00  0.00    +0.000 A 
ATOM     20  C   UNL     1      -0.425  10.318  20.165  0.00  0.00    +0.000 A 
ATOM     21  F   UNL     1      -1.368  10.950  20.876  0.00  0.00    +0.000 F 
ATOM     22  C   UNL     1      -0.317  10.553  18.799  0.00  0.00    +0.000 A 
ATOM     23  C   UNL     1       0.638   9.862  18.044  0.00  0.00    +0.000 A 
ENDBRANCH  15  17
ENDBRANCH   4  13
BRANCH   1  25
ATOM     24  C   UNL     1       5.748   3.721  13.482  0.00  0.00    +0.000 C 
ATOM     25  S   UNL     1       6.885   4.717  14.477  0.00  0.00    +0.000 S 
ENDBRANCH   1  25
TORSDOF 4
ENDMDL
