MODEL 1
REMARK VINA RESULT:      -9.6      0.000      0.000
REMARK  Name = 
REMARK  6 active torsions:
REMARK  status: ('A' for Active; 'I' for Inactive)
REMARK    1  A    between atoms: C_1  and  C_2
REMARK    2  A    between atoms: C_14  and  C_15
REMARK    3  A    between atoms: C_16  and  C_17
REMARK    4  A    between atoms: C_19  and  O_20
REMARK    5  A    between atoms: O_20  and  C_21
REMARK    6  A    between atoms: C_21  and  C_22
REMARK                            x       y       z     vdW  Elec       q    Type
REMARK                         _______ _______ _______ _____ _____    ______ ____
ROOT
ATOM      1  C   UNL     1       1.767   7.919  19.616  0.00  0.00    +0.000 A 
ATOM      2  C   UNL     1       1.161   8.768  18.722  0.00  0.00    +0.000 A 
ATOM      3  C   UNL     1       0.415   9.827  19.223  0.00  0.00    +0.000 A 
ATOM      4  C   UNL     1       0.163   9.894  20.615  0.00  0.00    +0.000 A 
ATOM      5  C   UNL     1      -0.654  10.857  21.258  0.00  0.00    +0.000 A 
ATOM      6  C   UNL     1      -0.832  10.837  22.645  0.00  0.00    +0.000 A 
ATOM      7  C   UNL     1      -0.186   9.880  23.419  0.00  0.00    +0.000 A 
ATOM      8  C   UNL     1       0.621   8.933  22.797  0.00  0.00    +0.000 A 
ATOM      9  C   UNL     1       0.804   8.925  21.428  0.00  0.00    +0.000 A 
ATOM     10  N   UNL     1       1.609   7.975  20.941  0.00  0.00    +0.000 NA
ENDROOT
BRANCH   1  12
ATOM     11  C   UNL     1       2.209   5.907  18.352  0.00  0.00    +0.000 C 
ATOM     12  C   UNL     1       2.670   6.909  19.111  0.00  0.00    +0.000 C 
BRANCH  11  26
ATOM     13  C   UNL     1       0.420   2.605  18.209  0.00  0.00    +0.000 C 
ATOM     14  C   UNL     1       1.437   3.276  19.121  0.00  0.00    +0.000 C 
ATOM     15  O   UNL     1       1.616   2.551  20.335  0.00  0.00    +0.000 OA
ATOM     16  C   UNL     1       2.901   2.744  20.758  0.00  0.00    +0.000 C 
ATOM     17  O   UNL     1       3.257   2.656  21.920  0.00  0.00    +0.000 OA
ATOM     18  C   UNL     1       3.794   2.938  19.559  0.00  0.00    +0.000 C 
ATOM     19  C   UNL     1       5.047   3.776  19.801  0.00  0.00    +0.000 C 
ATOM     20  C   UNL     1       5.576   4.436  18.515  0.00  0.00    +0.000 C 
ATOM     21  C   UNL     1       6.863   5.251  18.790  0.00  0.00    +0.000 C 
ATOM     22  C   UNL     1       7.283   6.186  17.642  0.00  0.00    +0.000 C 
ATOM     23  C   UNL     1       6.136   6.999  17.051  0.00  0.00    +0.000 C 
ATOM     24  C   UNL     1       4.965   6.096  16.709  0.00  0.00    +0.000 C 
ATOM     25  C   UNL     1       4.507   5.391  17.997  0.00  0.00    +0.000 C 
ATOM     26  C   UNL     1       3.093   4.807  17.846  0.00  0.00    +0.000 C 
ATOM     27  C   UNL     1       2.828   3.431  18.490  0.00  0.00    +0.000 C 
ENDBRANCH  11  26
ENDBRANCH   1  12
BRANCH   3  28
ATOM     28  O   UNL     1      -0.048  10.827  18.382  0.00  0.00    +0.000 OA
BRANCH  28  29
ATOM     29  C   UNL     1      -0.963  10.329  17.377  0.00  0.00    +0.000 C 
BRANCH  29  30
ATOM     30  C   UNL     1      -2.340  10.924  17.406  0.00  0.00    +0.000 A 
ATOM     31  C   UNL     1      -3.200  10.835  16.306  0.00  0.00    +0.000 A 
ATOM     32  C   UNL     1      -4.514  11.290  16.406  0.00  0.00    +0.000 A 
ATOM     33  C   UNL     1      -4.982  11.820  17.607  0.00  0.00    +0.000 A 
ATOM     34  C   UNL     1      -4.142  11.897  18.713  0.00  0.00    +0.000 A 
ATOM     35  C   UNL     1      -2.829  11.445  18.616  0.00  0.00    +0.000 A 
ENDBRANCH  29  30
ENDBRANCH  28  29
ENDBRANCH   3  28
TORSDOF 5
ENDMDL
MODEL 2
REMARK VINA RESULT:      -9.6      2.796      3.292
REMARK  Name = 
REMARK  6 active torsions:
REMARK  status: ('A' for Active; 'I' for Inactive)
REMARK    1  A    between atoms: C_1  and  C_2
REMARK    2  A    between atoms: C_14  and  C_15
REMARK    3  A    between atoms: C_16  and  C_17
REMARK    4  A    between atoms: C_19  and  O_20
REMARK    5  A    between atoms: O_20  and  C_21
REMARK    6  A    between atoms: C_21  and  C_22
REMARK                            x       y       z     vdW  Elec       q    Type
REMARK                         _______ _______ _______ _____ _____    ______ ____
ROOT
ATOM      1  C   UNL     1       1.691   8.754  18.879  0.00  0.00    +0.000 A 
ATOM      2  C   UNL     1       1.467  10.003  18.353  0.00  0.00    +0.000 A 
ATOM      3  C   UNL     1       0.927  10.978  19.182  0.00  0.00    +0.000 A 
ATOM      4  C   UNL     1       0.469  10.610  20.470  0.00  0.00    +0.000 A 
ATOM      5  C   UNL     1      -0.188  11.469  21.387  0.00  0.00    +0.000 A 
ATOM      6  C   UNL     1      -0.595  11.003  22.642  0.00  0.00    +0.000 A 
ATOM      7  C   UNL     1      -0.339   9.690  23.017  0.00  0.00    +0.000 A 
ATOM      8  C   UNL     1       0.307   8.840  22.125  0.00  0.00    +0.000 A 
ATOM      9  C   UNL     1       0.710   9.273  20.877  0.00  0.00    +0.000 A 
ATOM     10  N   UNL     1       1.331   8.373  20.107  0.00  0.00    +0.000 NA
ENDROOT
BRANCH   1  12
ATOM     11  C   UNL     1       2.836   6.641  18.625  0.00  0.00    +0.000 C 
ATOM     12  C   UNL     1       2.393   7.778  18.075  0.00  0.00    +0.000 C 
BRANCH  11  26
ATOM     13  C   UNL     1       0.758   3.630  17.766  0.00  0.00    +0.000 C 
ATOM     14  C   UNL     1       1.839   3.978  18.779  0.00  0.00    +0.000 C 
ATOM     15  O   UNL     1       1.964   2.974  19.783  0.00  0.00    +0.000 OA
ATOM     16  C   UNL     1       3.264   2.952  20.200  0.00  0.00    +0.000 C 
ATOM     17  O   UNL     1       3.621   2.562  21.299  0.00  0.00    +0.000 OA
ATOM     18  C   UNL     1       4.161   3.347  19.055  0.00  0.00    +0.000 C 
ATOM     19  C   UNL     1       5.485   3.995  19.450  0.00  0.00    +0.000 C 
ATOM     20  C   UNL     1       6.060   4.893  18.338  0.00  0.00    +0.000 C 
ATOM     21  C   UNL     1       7.417   5.508  18.758  0.00  0.00    +0.000 C 
ATOM     22  C   UNL     1       7.908   6.648  17.850  0.00  0.00    +0.000 C 
ATOM     23  C   UNL     1       6.834   7.672  17.501  0.00  0.00    +0.000 C 
ATOM     24  C   UNL     1       5.583   6.978  16.991  0.00  0.00    +0.000 C 
ATOM     25  C   UNL     1       5.076   6.030  18.091  0.00  0.00    +0.000 C 
ATOM     26  C   UNL     1       3.614   5.620  17.849  0.00  0.00    +0.000 C 
ATOM     27  C   UNL     1       3.233   4.159  18.160  0.00  0.00    +0.000 C 
ENDBRANCH  11  26
ENDBRANCH   1  12
BRANCH   3  28
ATOM     28  O   UNL     1       0.867  12.301  18.773  0.00  0.00    +0.000 OA
BRANCH  28  29
ATOM     29  C   UNL     1       2.178  12.888  18.596  0.00  0.00    +0.000 C 
BRANCH  29  30
ATOM     30  C   UNL     1       2.201  14.381  18.450  0.00  0.00    +0.000 A 
ATOM     31  C   UNL     1       3.240  15.036  17.778  0.00  0.00    +0.000 A 
ATOM     32  C   UNL     1       3.172  16.410  17.554  0.00  0.00    +0.000 A 
ATOM     33  C   UNL     1       2.062  17.136  17.983  0.00  0.00    +0.000 A 
ATOM     34  C   UNL     1       1.016  16.493  18.637  0.00  0.00    +0.000 A 
ATOM     35  C   UNL     1       1.081  15.122  18.864  0.00  0.00    +0.000 A 
ENDBRANCH  29  30
ENDBRANCH  28  29
ENDBRANCH   3  28
TORSDOF 5
ENDMDL
MODEL 3
REMARK VINA RESULT:      -9.6      2.177      2.696
REMARK  Name = 
REMARK  6 active torsions:
REMARK  status: ('A' for Active; 'I' for Inactive)
REMARK    1  A    between atoms: C_1  and  C_2
REMARK    2  A    between atoms: C_14  and  C_15
REMARK    3  A    between atoms: C_16  and  C_17
REMARK    4  A    between atoms: C_19  and  O_20
REMARK    5  A    between atoms: O_20  and  C_21
REMARK    6  A    between atoms: C_21  and  C_22
REMARK                            x       y       z     vdW  Elec       q    Type
REMARK                         _______ _______ _______ _____ _____    ______ ____
ROOT
ATOM      1  C   UNL     1       1.778   7.990  19.729  0.00  0.00    +0.000 A 
ATOM      2  C   UNL     1       1.473   8.966  18.811  0.00  0.00    +0.000 A 
ATOM      3  C   UNL     1       0.787  10.091  19.251  0.00  0.00    +0.000 A 
ATOM      4  C   UNL     1       0.278  10.114  20.573  0.00  0.00    +0.000 A 
ATOM      5  C   UNL     1      -0.518  11.145  21.130  0.00  0.00    +0.000 A 
ATOM      6  C   UNL     1      -0.965  11.072  22.454  0.00  0.00    +0.000 A 
ATOM      7  C   UNL     1      -0.612   9.990  23.252  0.00  0.00    +0.000 A 
ATOM      8  C   UNL     1       0.173   8.975  22.714  0.00  0.00    +0.000 A 
ATOM      9  C   UNL     1       0.617   9.019  21.408  0.00  0.00    +0.000 A 
ATOM     10  N   UNL     1       1.372   7.993  21.001  0.00  0.00    +0.000 NA
ENDROOT
BRANCH   1  12
ATOM     11  C   UNL     1       2.277   6.121  18.281  0.00  0.00    +0.000 C 
ATOM     12  C   UNL     1       2.624   6.892  19.319  0.00  0.00    +0.000 C 
BRANCH  11  26
ATOM     13  C   UNL     1       0.258   2.952  18.222  0.00  0.00    +0.000 C 
ATOM     14  C   UNL     1       1.296   3.588  19.135  0.00  0.00    +0.000 C 
ATOM     15  O   UNL     1       1.390   2.905  20.382  0.00  0.00    +0.000 OA
ATOM     16  C   UNL     1       2.674   3.023  20.834  0.00  0.00    +0.000 C 
ATOM     17  O   UNL     1       2.992   2.961  22.009  0.00  0.00    +0.000 OA
ATOM     18  C   UNL     1       3.611   3.102  19.656  0.00  0.00    +0.000 C 
ATOM     19  C   UNL     1       4.914   3.857  19.900  0.00  0.00    +0.000 C 
ATOM     20  C   UNL     1       5.523   4.422  18.603  0.00  0.00    +0.000 C 
ATOM     21  C   UNL     1       6.858   5.154  18.882  0.00  0.00    +0.000 C 
ATOM     22  C   UNL     1       7.375   6.006  17.710  0.00  0.00    +0.000 C 
ATOM     23  C   UNL     1       6.306   6.873  17.053  0.00  0.00    +0.000 C 
ATOM     24  C   UNL     1       5.082   6.042  16.713  0.00  0.00    +0.000 C 
ATOM     25  C   UNL     1       4.541   5.427  18.015  0.00  0.00    +0.000 C 
ATOM     26  C   UNL     1       3.092   4.940  17.847  0.00  0.00    +0.000 C 
ATOM     27  C   UNL     1       2.711   3.616  18.538  0.00  0.00    +0.000 C 
ENDBRANCH  11  26
ENDBRANCH   1  12
BRANCH   3  28
ATOM     28  O   UNL     1       0.630  11.192  18.425  0.00  0.00    +0.000 OA
BRANCH  28  29
ATOM     29  C   UNL     1       1.764  12.091  18.474  0.00  0.00    +0.000 C 
BRANCH  29  30
ATOM     30  C   UNL     1       1.426  13.551  18.544  0.00  0.00    +0.000 A 
ATOM     31  C   UNL     1       0.108  13.991  18.712  0.00  0.00    +0.000 A 
ATOM     32  C   UNL     1      -0.160  15.347  18.895  0.00  0.00    +0.000 A 
ATOM     33  C   UNL     1       0.885  16.269  18.927  0.00  0.00    +0.000 A 
ATOM     34  C   UNL     1       2.201  15.841  18.779  0.00  0.00    +0.000 A 
ATOM     35  C   UNL     1       2.472  14.489  18.595  0.00  0.00    +0.000 A 
ENDBRANCH  29  30
ENDBRANCH  28  29
ENDBRANCH   3  28
TORSDOF 5
ENDMDL
MODEL 4
REMARK VINA RESULT:      -9.5      0.887      1.287
REMARK  Name = 
REMARK  6 active torsions:
REMARK  status: ('A' for Active; 'I' for Inactive)
REMARK    1  A    between atoms: C_1  and  C_2
REMARK    2  A    between atoms: C_14  and  C_15
REMARK    3  A    between atoms: C_16  and  C_17
REMARK    4  A    between atoms: C_19  and  O_20
REMARK    5  A    between atoms: O_20  and  C_21
REMARK    6  A    between atoms: C_21  and  C_22
REMARK                            x       y       z     vdW  Elec       q    Type
REMARK                         _______ _______ _______ _____ _____    ______ ____
ROOT
ATOM      1  C   UNL     1       1.548   8.508  18.869  0.00  0.00    +0.000 A 
ATOM      2  C   UNL     1       0.822   9.496  18.248  0.00  0.00    +0.000 A 
ATOM      3  C   UNL     1       0.156  10.420  19.044  0.00  0.00    +0.000 A 
ATOM      4  C   UNL     1       0.104  10.212  20.444  0.00  0.00    +0.000 A 
ATOM      5  C   UNL     1      -0.613  11.012  21.368  0.00  0.00    +0.000 A 
ATOM      6  C   UNL     1      -0.592  10.723  22.736  0.00  0.00    +0.000 A 
ATOM      7  C   UNL     1       0.156   9.652  23.213  0.00  0.00    +0.000 A 
ATOM      8  C   UNL     1       0.866   8.864  22.313  0.00  0.00    +0.000 A 
ATOM      9  C   UNL     1       0.853   9.123  20.957  0.00  0.00    +0.000 A 
ATOM     10  N   UNL     1       1.579   8.305  20.188  0.00  0.00    +0.000 NA
ENDROOT
BRANCH   1  12
ATOM     11  C   UNL     1       2.853   6.496  18.565  0.00  0.00    +0.000 C 
ATOM     12  C   UNL     1       2.369   7.637  18.057  0.00  0.00    +0.000 C 
BRANCH  11  26
ATOM     13  C   UNL     1       1.116   3.316  17.570  0.00  0.00    +0.000 C 
ATOM     14  C   UNL     1       2.131   3.743  18.621  0.00  0.00    +0.000 C 
ATOM     15  O   UNL     1       2.334   2.728  19.601  0.00  0.00    +0.000 OA
ATOM     16  C   UNL     1       3.619   2.826  20.053  0.00  0.00    +0.000 C 
ATOM     17  O   UNL     1       3.988   2.443  21.149  0.00  0.00    +0.000 OA
ATOM     18  C   UNL     1       4.498   3.344  18.943  0.00  0.00    +0.000 C 
ATOM     19  C   UNL     1       5.739   4.111  19.390  0.00  0.00    +0.000 C 
ATOM     20  C   UNL     1       6.245   5.096  18.319  0.00  0.00    +0.000 C 
ATOM     21  C   UNL     1       7.521   5.833  18.791  0.00  0.00    +0.000 C 
ATOM     22  C   UNL     1       7.915   7.043  17.927  0.00  0.00    +0.000 C 
ATOM     23  C   UNL     1       6.750   7.962  17.576  0.00  0.00    +0.000 C 
ATOM     24  C   UNL     1       5.590   7.160  17.015  0.00  0.00    +0.000 C 
ATOM     25  C   UNL     1       5.156   6.133  18.076  0.00  0.00    +0.000 C 
ATOM     26  C   UNL     1       3.750   5.584  17.783  0.00  0.00    +0.000 C 
ATOM     27  C   UNL     1       3.513   4.083  18.045  0.00  0.00    +0.000 C 
ENDBRANCH  11  26
ENDBRANCH   1  12
BRANCH   3  28
ATOM     28  O   UNL     1      -0.421  11.549  18.485  0.00  0.00    +0.000 OA
BRANCH  28  29
ATOM     29  C   UNL     1      -1.530  11.233  17.610  0.00  0.00    +0.000 C 
BRANCH  29  30
ATOM     30  C   UNL     1      -2.894  11.413  18.207  0.00  0.00    +0.000 A 
ATOM     31  C   UNL     1      -3.101  12.225  19.328  0.00  0.00    +0.000 A 
ATOM     32  C   UNL     1      -4.396  12.469  19.786  0.00  0.00    +0.000 A 
ATOM     33  C   UNL     1      -5.490  11.919  19.120  0.00  0.00    +0.000 A 
ATOM     34  C   UNL     1      -5.296  11.125  17.995  0.00  0.00    +0.000 A 
ATOM     35  C   UNL     1      -4.006  10.877  17.535  0.00  0.00    +0.000 A 
ENDBRANCH  29  30
ENDBRANCH  28  29
ENDBRANCH   3  28
TORSDOF 5
ENDMDL
MODEL 5
REMARK VINA RESULT:      -9.4      0.515      1.012
REMARK  Name = 
REMARK  6 active torsions:
REMARK  status: ('A' for Active; 'I' for Inactive)
REMARK    1  A    between atoms: C_1  and  C_2
REMARK    2  A    between atoms: C_14  and  C_15
REMARK    3  A    between atoms: C_16  and  C_17
REMARK    4  A    between atoms: C_19  and  O_20
REMARK    5  A    between atoms: O_20  and  C_21
REMARK    6  A    between atoms: C_21  and  C_22
REMARK                            x       y       z     vdW  Elec       q    Type
REMARK                         _______ _______ _______ _____ _____    ______ ____
ROOT
ATOM      1  C   UNL     1       1.758   8.009  19.633  0.00  0.00    +0.000 A 
ATOM      2  C   UNL     1       1.224   8.911  18.745  0.00  0.00    +0.000 A 
ATOM      3  C   UNL     1       0.491   9.977  19.251  0.00  0.00    +0.000 A 
ATOM      4  C   UNL     1       0.176  10.002  20.631  0.00  0.00    +0.000 A 
ATOM      5  C   UNL     1      -0.639  10.968  21.272  0.00  0.00    +0.000 A 
ATOM      6  C   UNL     1      -0.882  10.904  22.648  0.00  0.00    +0.000 A 
ATOM      7  C   UNL     1      -0.307   9.897  23.414  0.00  0.00    +0.000 A 
ATOM      8  C   UNL     1       0.497   8.946  22.794  0.00  0.00    +0.000 A 
ATOM      9  C   UNL     1       0.745   8.982  21.436  0.00  0.00    +0.000 A 
ATOM     10  N   UNL     1       1.539   8.022  20.950  0.00  0.00    +0.000 NA
ENDROOT
BRANCH   1  12
ATOM     11  C   UNL     1       2.180   5.997  18.362  0.00  0.00    +0.000 C 
ATOM     12  C   UNL     1       2.650   6.987  19.132  0.00  0.00    +0.000 C 
BRANCH  11  26
ATOM     13  C   UNL     1       0.350   2.718  18.219  0.00  0.00    +0.000 C 
ATOM     14  C   UNL     1       1.373   3.378  19.133  0.00  0.00    +0.000 C 
ATOM     15  O   UNL     1       1.541   2.651  20.347  0.00  0.00    +0.000 OA
ATOM     16  C   UNL     1       2.826   2.828  20.773  0.00  0.00    +0.000 C 
ATOM     17  O   UNL     1       3.179   2.737  21.936  0.00  0.00    +0.000 OA
ATOM     18  C   UNL     1       3.725   3.010  19.577  0.00  0.00    +0.000 C 
ATOM     19  C   UNL     1       4.988   3.832  19.821  0.00  0.00    +0.000 C 
ATOM     20  C   UNL     1       5.528   4.484  18.535  0.00  0.00    +0.000 C 
ATOM     21  C   UNL     1       6.825   5.283  18.812  0.00  0.00    +0.000 C 
ATOM     22  C   UNL     1       7.259   6.211  17.664  0.00  0.00    +0.000 C 
ATOM     23  C   UNL     1       6.124   7.038  17.070  0.00  0.00    +0.000 C 
ATOM     24  C   UNL     1       4.942   6.150  16.725  0.00  0.00    +0.000 C 
ATOM     25  C   UNL     1       4.473   5.452  18.013  0.00  0.00    +0.000 C 
ATOM     26  C   UNL     1       3.052   4.885  17.859  0.00  0.00    +0.000 C 
ATOM     27  C   UNL     1       2.768   3.514  18.504  0.00  0.00    +0.000 C 
ENDBRANCH  11  26
ENDBRANCH   1  12
BRANCH   3  28
ATOM     28  O   UNL     1       0.102  11.022  18.428  0.00  0.00    +0.000 OA
BRANCH  28  29
ATOM     29  C   UNL     1      -1.261  11.444  18.672  0.00  0.00    +0.000 C 
BRANCH  29  30
ATOM     30  C   UNL     1      -2.264  11.010  17.643  0.00  0.00    +0.000 A 
ATOM     31  C   UNL     1      -3.518  11.623  17.539  0.00  0.00    +0.000 A 
ATOM     32  C   UNL     1      -4.379  11.282  16.497  0.00  0.00    +0.000 A 
ATOM     33  C   UNL     1      -3.989  10.340  15.545  0.00  0.00    +0.000 A 
ATOM     34  C   UNL     1      -2.738   9.738  15.629  0.00  0.00    +0.000 A 
ATOM     35  C   UNL     1      -1.876  10.075  16.668  0.00  0.00    +0.000 A 
ENDBRANCH  29  30
ENDBRANCH  28  29
ENDBRANCH   3  28
TORSDOF 5
ENDMDL
MODEL 6
REMARK VINA RESULT:      -9.2      2.992      4.712
REMARK  Name = 
REMARK  6 active torsions:
REMARK  status: ('A' for Active; 'I' for Inactive)
REMARK    1  A    between atoms: C_1  and  C_2
REMARK    2  A    between atoms: C_14  and  C_15
REMARK    3  A    between atoms: C_16  and  C_17
REMARK    4  A    between atoms: C_19  and  O_20
REMARK    5  A    between atoms: O_20  and  C_21
REMARK    6  A    between atoms: C_21  and  C_22
REMARK                            x       y       z     vdW  Elec       q    Type
REMARK                         _______ _______ _______ _____ _____    ______ ____
ROOT
ATOM      1  C   UNL     1       2.047   7.505  19.565  0.00  0.00    +0.000 A 
ATOM      2  C   UNL     1       1.926   8.435  18.560  0.00  0.00    +0.000 A 
ATOM      3  C   UNL     1       1.392   9.678  18.875  0.00  0.00    +0.000 A 
ATOM      4  C   UNL     1       0.838   9.883  20.162  0.00  0.00    +0.000 A 
ATOM      5  C   UNL     1       0.177  11.059  20.595  0.00  0.00    +0.000 A 
ATOM      6  C   UNL     1      -0.331  11.161  21.894  0.00  0.00    +0.000 A 
ATOM      7  C   UNL     1      -0.172  10.111  22.791  0.00  0.00    +0.000 A 
ATOM      8  C   UNL     1       0.478   8.953  22.375  0.00  0.00    +0.000 A 
ATOM      9  C   UNL     1       0.979   8.825  21.095  0.00  0.00    +0.000 A 
ATOM     10  N   UNL     1       1.593   7.672  20.809  0.00  0.00    +0.000 NA
ENDROOT
BRANCH   1  12
ATOM     11  C   UNL     1       4.067   6.184  19.450  0.00  0.00    +0.000 C 
ATOM     12  C   UNL     1       2.741   6.268  19.285  0.00  0.00    +0.000 C 
BRANCH  11  26
ATOM     13  C   UNL     1       7.643   6.933  18.566  0.00  0.00    +0.000 C 
ATOM     14  C   UNL     1       6.367   6.575  17.817  0.00  0.00    +0.000 C 
ATOM     15  O   UNL     1       6.513   6.756  16.411  0.00  0.00    +0.000 OA
ATOM     16  C   UNL     1       5.710   5.849  15.781  0.00  0.00    +0.000 C 
ATOM     17  O   UNL     1       5.258   6.001  14.659  0.00  0.00    +0.000 OA
ATOM     18  C   UNL     1       5.601   4.608  16.630  0.00  0.00    +0.000 C 
ATOM     19  C   UNL     1       4.317   3.802  16.455  0.00  0.00    +0.000 C 
ATOM     20  C   UNL     1       3.977   2.953  17.694  0.00  0.00    +0.000 C 
ATOM     21  C   UNL     1       2.688   2.125  17.473  0.00  0.00    +0.000 C 
ATOM     22  C   UNL     1       2.109   1.493  18.749  0.00  0.00    +0.000 C 
ATOM     23  C   UNL     1       2.051   2.442  19.942  0.00  0.00    +0.000 C 
ATOM     24  C   UNL     1       3.394   3.120  20.149  0.00  0.00    +0.000 C 
ATOM     25  C   UNL     1       3.743   3.897  18.868  0.00  0.00    +0.000 C 
ATOM     26  C   UNL     1       4.842   4.941  19.126  0.00  0.00    +0.000 C 
ATOM     27  C   UNL     1       5.910   5.125  18.030  0.00  0.00    +0.000 C 
ENDBRANCH  11  26
ENDBRANCH   1  12
BRANCH   3  28
ATOM     28  O   UNL     1       1.431  10.717  17.959  0.00  0.00    +0.000 OA
BRANCH  28  29
ATOM     29  C   UNL     1       2.578  11.580  18.146  0.00  0.00    +0.000 C 
BRANCH  29  30
ATOM     30  C   UNL     1       2.272  13.045  18.258  0.00  0.00    +0.000 A 
ATOM     31  C   UNL     1       0.977  13.504  18.527  0.00  0.00    +0.000 A 
ATOM     32  C   UNL     1       0.747  14.861  18.745  0.00  0.00    +0.000 A 
ATOM     33  C   UNL     1       1.807  15.766  18.713  0.00  0.00    +0.000 A 
ATOM     34  C   UNL     1       3.101  15.319  18.465  0.00  0.00    +0.000 A 
ATOM     35  C   UNL     1       3.335  13.965  18.245  0.00  0.00    +0.000 A 
ENDBRANCH  29  30
ENDBRANCH  28  29
ENDBRANCH   3  28
TORSDOF 5
ENDMDL
MODEL 7
REMARK VINA RESULT:      -9.0      2.274      9.069
REMARK  Name = 
REMARK  6 active torsions:
REMARK  status: ('A' for Active; 'I' for Inactive)
REMARK    1  A    between atoms: C_1  and  C_2
REMARK    2  A    between atoms: C_14  and  C_15
REMARK    3  A    between atoms: C_16  and  C_17
REMARK    4  A    between atoms: C_19  and  O_20
REMARK    5  A    between atoms: O_20  and  C_21
REMARK    6  A    between atoms: C_21  and  C_22
REMARK                            x       y       z     vdW  Elec       q    Type
REMARK                         _______ _______ _______ _____ _____    ______ ____
ROOT
ATOM      1  C   UNL     1       2.141   8.290  18.280  0.00  0.00    +0.000 A 
ATOM      2  C   UNL     1       3.063   7.763  17.408  0.00  0.00    +0.000 A 
ATOM      3  C   UNL     1       3.498   6.460  17.619  0.00  0.00    +0.000 A 
ATOM      4  C   UNL     1       3.115   5.791  18.807  0.00  0.00    +0.000 A 
ATOM      5  C   UNL     1       3.554   4.503  19.203  0.00  0.00    +0.000 A 
ATOM      6  C   UNL     1       3.108   3.928  20.398  0.00  0.00    +0.000 A 
ATOM      7  C   UNL     1       2.205   4.608  21.207  0.00  0.00    +0.000 A 
ATOM      8  C   UNL     1       1.766   5.872  20.824  0.00  0.00    +0.000 A 
ATOM      9  C   UNL     1       2.199   6.464  19.654  0.00  0.00    +0.000 A 
ATOM     10  N   UNL     1       1.704   7.677  19.383  0.00  0.00    +0.000 NA
ENDROOT
BRANCH   1  12
ATOM     11  C   UNL     1       0.512  10.030  18.678  0.00  0.00    +0.000 C 
ATOM     12  C   UNL     1       1.566   9.583  17.984  0.00  0.00    +0.000 C 
BRANCH  11  26
ATOM     13  C   UNL     1       2.628  12.960  19.705  0.00  0.00    +0.000 C 
ATOM     14  C   UNL     1       1.405  12.233  20.245  0.00  0.00    +0.000 C 
ATOM     15  O   UNL     1       1.093  12.641  21.574  0.00  0.00    +0.000 OA
ATOM     16  C   UNL     1      -0.259  12.536  21.743  0.00  0.00    +0.000 C 
ATOM     17  O   UNL     1      -0.801  12.374  22.823  0.00  0.00    +0.000 OA
ATOM     18  C   UNL     1      -0.946  12.788  20.425  0.00  0.00    +0.000 C 
ATOM     19  C   UNL     1      -2.301  12.108  20.249  0.00  0.00    +0.000 C 
ATOM     20  C   UNL     1      -2.663  11.885  18.769  0.00  0.00    +0.000 C 
ATOM     21  C   UNL     1      -4.055  11.223  18.625  0.00  0.00    +0.000 C 
ATOM     22  C   UNL     1      -4.363  10.686  17.217  0.00  0.00    +0.000 C 
ATOM     23  C   UNL     1      -3.221   9.893  16.590  0.00  0.00    +0.000 C 
ATOM     24  C   UNL     1      -1.921  10.673  16.678  0.00  0.00    +0.000 C 
ATOM     25  C   UNL     1      -1.624  10.949  18.162  0.00  0.00    +0.000 C 
ATOM     26  C   UNL     1      -0.153  11.340  18.377  0.00  0.00    +0.000 C 
ATOM     27  C   UNL     1       0.136  12.450  19.407  0.00  0.00    +0.000 C 
ENDBRANCH  11  26
ENDBRANCH   1  12
BRANCH   3  28
ATOM     28  O   UNL     1       4.265   5.808  16.668  0.00  0.00    +0.000 OA
BRANCH  28  29
ATOM     29  C   UNL     1       5.399   6.595  16.231  0.00  0.00    +0.000 C 
BRANCH  29  30
ATOM     30  C   UNL     1       6.549   6.657  17.192  0.00  0.00    +0.000 A 
ATOM     31  C   UNL     1       7.225   7.856  17.449  0.00  0.00    +0.000 A 
ATOM     32  C   UNL     1       8.209   7.907  18.436  0.00  0.00    +0.000 A 
ATOM     33  C   UNL     1       8.512   6.769  19.182  0.00  0.00    +0.000 A 
ATOM     34  C   UNL     1       7.835   5.577  18.947  0.00  0.00    +0.000 A 
ATOM     35  C   UNL     1       6.854   5.522  17.962  0.00  0.00    +0.000 A 
ENDBRANCH  29  30
ENDBRANCH  28  29
ENDBRANCH   3  28
TORSDOF 5
ENDMDL
MODEL 8
REMARK VINA RESULT:      -8.9      1.400      1.859
REMARK  Name = 
REMARK  6 active torsions:
REMARK  status: ('A' for Active; 'I' for Inactive)
REMARK    1  A    between atoms: C_1  and  C_2
REMARK    2  A    between atoms: C_14  and  C_15
REMARK    3  A    between atoms: C_16  and  C_17
REMARK    4  A    between atoms: C_19  and  O_20
REMARK    5  A    between atoms: O_20  and  C_21
REMARK    6  A    between atoms: C_21  and  C_22
REMARK                            x       y       z     vdW  Elec       q    Type
REMARK                         _______ _______ _______ _____ _____    ______ ____
ROOT
ATOM      1  C   UNL     1       1.638   8.693  19.034  0.00  0.00    +0.000 A 
ATOM      2  C   UNL     1       1.365   9.951  18.554  0.00  0.00    +0.000 A 
ATOM      3  C   UNL     1       0.831  10.887  19.430  0.00  0.00    +0.000 A 
ATOM      4  C   UNL     1       0.429  10.471  20.722  0.00  0.00    +0.000 A 
ATOM      5  C   UNL     1      -0.214  11.286  21.686  0.00  0.00    +0.000 A 
ATOM      6  C   UNL     1      -0.564  10.775  22.940  0.00  0.00    +0.000 A 
ATOM      7  C   UNL     1      -0.264   9.458  23.268  0.00  0.00    +0.000 A 
ATOM      8  C   UNL     1       0.371   8.652  22.328  0.00  0.00    +0.000 A 
ATOM      9  C   UNL     1       0.718   9.130  21.080  0.00  0.00    +0.000 A 
ATOM     10  N   UNL     1       1.332   8.268  20.262  0.00  0.00    +0.000 NA
ENDROOT
BRANCH   1  12
ATOM     11  C   UNL     1       2.883   6.650  18.690  0.00  0.00    +0.000 C 
ATOM     12  C   UNL     1       2.335   7.759  18.178  0.00  0.00    +0.000 C 
BRANCH  11  26
ATOM     13  C   UNL     1       0.838   3.637  17.763  0.00  0.00    +0.000 C 
ATOM     14  C   UNL     1       1.938   3.966  18.763  0.00  0.00    +0.000 C 
ATOM     15  O   UNL     1       2.106   2.926  19.722  0.00  0.00    +0.000 OA
ATOM     16  C   UNL     1       3.417   2.911  20.107  0.00  0.00    +0.000 C 
ATOM     17  O   UNL     1       3.808   2.486  21.180  0.00  0.00    +0.000 OA
ATOM     18  C   UNL     1       4.277   3.368  18.957  0.00  0.00    +0.000 C 
ATOM     19  C   UNL     1       5.599   4.024  19.344  0.00  0.00    +0.000 C 
ATOM     20  C   UNL     1       6.129   4.977  18.256  0.00  0.00    +0.000 C 
ATOM     21  C   UNL     1       7.485   5.600  18.666  0.00  0.00    +0.000 C 
ATOM     22  C   UNL     1       7.934   6.784  17.792  0.00  0.00    +0.000 C 
ATOM     23  C   UNL     1       6.832   7.800  17.510  0.00  0.00    +0.000 C 
ATOM     24  C   UNL     1       5.582   7.104  17.004  0.00  0.00    +0.000 C 
ATOM     25  C   UNL     1       5.120   6.104  18.078  0.00  0.00    +0.000 C 
ATOM     26  C   UNL     1       3.659   5.676  17.856  0.00  0.00    +0.000 C 
ATOM     27  C   UNL     1       3.312   4.197  18.118  0.00  0.00    +0.000 C 
ENDBRANCH  11  26
ENDBRANCH   1  12
BRANCH   3  28
ATOM     28  O   UNL     1       0.725  12.220  19.062  0.00  0.00    +0.000 OA
BRANCH  28  29
ATOM     29  C   UNL     1      -0.539  12.522  18.425  0.00  0.00    +0.000 C 
BRANCH  29  30
ATOM     30  C   UNL     1      -1.648  12.925  19.351  0.00  0.00    +0.000 A 
ATOM     31  C   UNL     1      -1.567  14.086  20.129  0.00  0.00    +0.000 A 
ATOM     32  C   UNL     1      -2.662  14.498  20.888  0.00  0.00    +0.000 A 
ATOM     33  C   UNL     1      -3.848  13.765  20.862  0.00  0.00    +0.000 A 
ATOM     34  C   UNL     1      -3.946  12.621  20.078  0.00  0.00    +0.000 A 
ATOM     35  C   UNL     1      -2.855  12.205  19.321  0.00  0.00    +0.000 A 
ENDBRANCH  29  30
ENDBRANCH  28  29
ENDBRANCH   3  28
TORSDOF 5
ENDMDL
MODEL 9
REMARK VINA RESULT:      -8.8      2.116      9.023
REMARK  Name = 
REMARK  6 active torsions:
REMARK  status: ('A' for Active; 'I' for Inactive)
REMARK    1  A    between atoms: C_1  and  C_2
REMARK    2  A    between atoms: C_14  and  C_15
REMARK    3  A    between atoms: C_16  and  C_17
REMARK    4  A    between atoms: C_19  and  O_20
REMARK    5  A    between atoms: O_20  and  C_21
REMARK    6  A    between atoms: C_21  and  C_22
REMARK                            x       y       z     vdW  Elec       q    Type
REMARK                         _______ _______ _______ _____ _____    ______ ____
ROOT
ATOM      1  C   UNL     1       2.169   8.753  18.091  0.00  0.00    +0.000 A 
ATOM      2  C   UNL     1       1.835   8.025  19.208  0.00  0.00    +0.000 A 
ATOM      3  C   UNL     1       2.591   6.900  19.510  0.00  0.00    +0.000 A 
ATOM      4  C   UNL     1       3.554   6.447  18.576  0.00  0.00    +0.000 A 
ATOM      5  C   UNL     1       4.331   5.268  18.700  0.00  0.00    +0.000 A 
ATOM      6  C   UNL     1       5.262   4.914  17.719  0.00  0.00    +0.000 A 
ATOM      7  C   UNL     1       5.457   5.732  16.612  0.00  0.00    +0.000 A 
ATOM      8  C   UNL     1       4.702   6.893  16.483  0.00  0.00    +0.000 A 
ATOM      9  C   UNL     1       3.769   7.259  17.433  0.00  0.00    +0.000 A 
ATOM     10  N   UNL     1       3.108   8.400  17.210  0.00  0.00    +0.000 NA
ENDROOT
BRANCH   1  12
ATOM     11  C   UNL     1       0.560  10.448  18.708  0.00  0.00    +0.000 C 
ATOM     12  C   UNL     1       1.492  10.008  17.853  0.00  0.00    +0.000 C 
BRANCH  11  26
ATOM     13  C   UNL     1       2.552  13.494  19.647  0.00  0.00    +0.000 C 
ATOM     14  C   UNL     1       1.418  12.680  20.255  0.00  0.00    +0.000 C 
ATOM     15  O   UNL     1       1.175  13.045  21.610  0.00  0.00    +0.000 OA
ATOM     16  C   UNL     1      -0.152  12.849  21.870  0.00  0.00    +0.000 C 
ATOM     17  O   UNL     1      -0.605  12.635  22.981  0.00  0.00    +0.000 OA
ATOM     18  C   UNL     1      -0.944  13.077  20.608  0.00  0.00    +0.000 C 
ATOM     19  C   UNL     1      -2.262  12.313  20.512  0.00  0.00    +0.000 C 
ATOM     20  C   UNL     1      -2.712  12.090  19.056  0.00  0.00    +0.000 C 
ATOM     21  C   UNL     1      -4.066  11.341  18.995  0.00  0.00    +0.000 C 
ATOM     22  C   UNL     1      -4.437  10.807  17.601  0.00  0.00    +0.000 C 
ATOM     23  C   UNL     1      -3.293  10.101  16.881  0.00  0.00    +0.000 C 
ATOM     24  C   UNL     1      -2.043  10.962  16.894  0.00  0.00    +0.000 C 
ATOM     25  C   UNL     1      -1.661  11.234  18.360  0.00  0.00    +0.000 C 
ATOM     26  C   UNL     1      -0.206  11.716  18.481  0.00  0.00    +0.000 C 
ATOM     27  C   UNL     1       0.083  12.827  19.511  0.00  0.00    +0.000 C 
ENDBRANCH  11  26
ENDBRANCH   1  12
BRANCH   3  28
ATOM     28  O   UNL     1       2.435   6.246  20.722  0.00  0.00    +0.000 OA
BRANCH  28  29
ATOM     29  C   UNL     1       1.341   5.299  20.706  0.00  0.00    +0.000 C 
BRANCH  29  30
ATOM     30  C   UNL     1       1.649   3.967  20.088  0.00  0.00    +0.000 A 
ATOM     31  C   UNL     1       1.122   3.598  18.845  0.00  0.00    +0.000 A 
ATOM     32  C   UNL     1       1.524   2.407  18.241  0.00  0.00    +0.000 A 
ATOM     33  C   UNL     1       2.464   1.587  18.864  0.00  0.00    +0.000 A 
ATOM     34  C   UNL     1       3.007   1.954  20.090  0.00  0.00    +0.000 A 
ATOM     35  C   UNL     1       2.608   3.140  20.697  0.00  0.00    +0.000 A 
ENDBRANCH  29  30
ENDBRANCH  28  29
ENDBRANCH   3  28
TORSDOF 5
ENDMDL
