MODEL 1
REMARK VINA RESULT:      -7.8      0.000      0.000
REMARK  Name = 
REMARK  4 active torsions:
REMARK  status: ('A' for Active; 'I' for Inactive)
REMARK    1  A    between atoms: C_1  and  C_2
REMARK    2  A    between atoms: C_2  and  C_3
REMARK    3  A    between atoms: N_10  and  S_11
REMARK    4  A    between atoms: S_11  and  C_12
REMARK                            x       y       z     vdW  Elec       q    Type
REMARK                         _______ _______ _______ _____ _____    ______ ____
ROOT
ATOM      1  C   UNL     1       0.815   3.245  19.658  0.00  0.00    +0.000 C 
ATOM      2  C   UNL     1       2.033   3.423  20.594  0.00  0.00    +0.000 C 
ATOM      3  C   UNL     1       1.799   2.547  21.837  0.00  0.00    +0.000 C 
ATOM      4  C   UNL     1       2.140   4.904  21.052  0.00  0.00    +0.000 C 
ATOM      5  C   UNL     1       2.462   5.865  19.909  0.00  0.00    +0.000 C 
ATOM      6  O   UNL     1       2.000   7.005  19.891  0.00  0.00    +0.000 OA
ATOM      7  C   UNL     1       3.386   5.330  18.943  0.00  0.00    +0.000 A 
ATOM      8  S   UNL     1       3.997   6.191  17.615  0.00  0.00    +0.000 S 
ATOM      9  C   UNL     1       4.919   4.813  17.187  0.00  0.00    +0.000 A 
ATOM     10  N   UNL     1       5.654   4.734  15.980  0.00  0.00    +0.000 N 
ATOM     11  N   UNL     1       4.772   3.748  17.941  0.00  0.00    +0.000 NA
ATOM     12  C   UNL     1       3.838   4.028  18.924  0.00  0.00    +0.000 A 
ATOM     13  C   UNL     1       3.347   2.977  19.875  0.00  0.00    +0.000 C 
ATOM     14  H   UNL     1       5.256   5.356  15.276  0.00  0.00    +0.000 HD
ENDROOT
BRANCH  10  15
ATOM     15  S   UNL     1       7.258   5.218  16.161  0.00  0.00    +0.000 S 
ATOM     16  C   UNL     1       7.155   6.650  17.207  0.00  0.00    +0.000 C 
ATOM     17  O   UNL     1       7.898   4.156  16.907  0.00  0.00    +0.000 OA
ATOM     18  O   UNL     1       7.780   5.609  14.869  0.00  0.00    +0.000 OA
ENDBRANCH  10  15
TORSDOF 1
ENDMDL
MODEL 2
REMARK VINA RESULT:      -7.6      0.996      1.228
REMARK  Name = 
REMARK  4 active torsions:
REMARK  status: ('A' for Active; 'I' for Inactive)
REMARK    1  A    between atoms: C_1  and  C_2
REMARK    2  A    between atoms: C_2  and  C_3
REMARK    3  A    between atoms: N_10  and  S_11
REMARK    4  A    between atoms: S_11  and  C_12
REMARK                            x       y       z     vdW  Elec       q    Type
REMARK                         _______ _______ _______ _____ _____    ______ ____
ROOT
ATOM      1  C   UNL     1       0.754   3.242  19.788  0.00  0.00    +0.000 C 
ATOM      2  C   UNL     1       2.055   3.368  20.613  0.00  0.00    +0.000 C 
ATOM      3  C   UNL     1       1.912   2.467  21.853  0.00  0.00    +0.000 C 
ATOM      4  C   UNL     1       2.241   4.834  21.093  0.00  0.00    +0.000 C 
ATOM      5  C   UNL     1       2.483   5.816  19.948  0.00  0.00    +0.000 C 
ATOM      6  O   UNL     1       2.051   6.966  19.998  0.00  0.00    +0.000 OA
ATOM      7  C   UNL     1       3.302   5.283  18.890  0.00  0.00    +0.000 A 
ATOM      8  S   UNL     1       3.813   6.162  17.532  0.00  0.00    +0.000 S 
ATOM      9  C   UNL     1       4.657   4.773  16.990  0.00  0.00    +0.000 A 
ATOM     10  N   UNL     1       5.277   4.708  15.720  0.00  0.00    +0.000 N 
ATOM     11  N   UNL     1       4.551   3.695  17.730  0.00  0.00    +0.000 NA
ATOM     12  C   UNL     1       3.717   3.971  18.800  0.00  0.00    +0.000 A 
ATOM     13  C   UNL     1       3.287   2.909  19.767  0.00  0.00    +0.000 C 
ATOM     14  H   UNL     1       4.834   5.356  15.070  0.00  0.00    +0.000 HD
ENDROOT
BRANCH  10  15
ATOM     15  S   UNL     1       6.904   5.149  15.765  0.00  0.00    +0.000 S 
ATOM     16  C   UNL     1       7.425   5.023  14.072  0.00  0.00    +0.000 C 
ATOM     17  O   UNL     1       6.911   6.547  16.141  0.00  0.00    +0.000 OA
ATOM     18  O   UNL     1       7.630   4.184  16.560  0.00  0.00    +0.000 OA
ENDBRANCH  10  15
TORSDOF 1
ENDMDL
MODEL 3
REMARK VINA RESULT:      -7.1      2.931      5.913
REMARK  Name = 
REMARK  4 active torsions:
REMARK  status: ('A' for Active; 'I' for Inactive)
REMARK    1  A    between atoms: C_1  and  C_2
REMARK    2  A    between atoms: C_2  and  C_3
REMARK    3  A    between atoms: N_10  and  S_11
REMARK    4  A    between atoms: S_11  and  C_12
REMARK                            x       y       z     vdW  Elec       q    Type
REMARK                         _______ _______ _______ _____ _____    ______ ____
ROOT
ATOM      1  C   UNL     1       7.369   4.586  16.028  0.00  0.00    +0.000 C 
ATOM      2  C   UNL     1       5.965   4.519  15.385  0.00  0.00    +0.000 C 
ATOM      3  C   UNL     1       6.148   4.187  13.894  0.00  0.00    +0.000 C 
ATOM      4  C   UNL     1       5.262   5.900  15.496  0.00  0.00    +0.000 C 
ATOM      5  C   UNL     1       4.945   6.300  16.936  0.00  0.00    +0.000 C 
ATOM      6  O   UNL     1       4.994   7.476  17.293  0.00  0.00    +0.000 OA
ATOM      7  C   UNL     1       4.528   5.199  17.766  0.00  0.00    +0.000 A 
ATOM      8  S   UNL     1       4.028   5.345  19.380  0.00  0.00    +0.000 S 
ATOM      9  C   UNL     1       3.754   3.655  19.415  0.00  0.00    +0.000 A 
ATOM     10  N   UNL     1       3.420   2.962  20.603  0.00  0.00    +0.000 N 
ATOM     11  N   UNL     1       4.046   2.989  18.322  0.00  0.00    +0.000 NA
ATOM     12  C   UNL     1       4.551   3.874  17.385  0.00  0.00    +0.000 A 
ATOM     13  C   UNL     1       5.101   3.410  16.069  0.00  0.00    +0.000 C 
ATOM     14  H   UNL     1       3.757   3.470  21.421  0.00  0.00    +0.000 HD
ENDROOT
BRANCH  10  15
ATOM     15  S   UNL     1       1.756   2.802  20.819  0.00  0.00    +0.000 S 
ATOM     16  C   UNL     1       1.131   4.439  20.528  0.00  0.00    +0.000 C 
ATOM     17  O   UNL     1       1.311   1.946  19.741  0.00  0.00    +0.000 OA
ATOM     18  O   UNL     1       1.495   2.430  22.192  0.00  0.00    +0.000 OA
ENDBRANCH  10  15
TORSDOF 1
ENDMDL
MODEL 4
REMARK VINA RESULT:      -7.1      2.738      5.938
REMARK  Name = 
REMARK  4 active torsions:
REMARK  status: ('A' for Active; 'I' for Inactive)
REMARK    1  A    between atoms: C_1  and  C_2
REMARK    2  A    between atoms: C_2  and  C_3
REMARK    3  A    between atoms: N_10  and  S_11
REMARK    4  A    between atoms: S_11  and  C_12
REMARK                            x       y       z     vdW  Elec       q    Type
REMARK                         _______ _______ _______ _____ _____    ______ ____
ROOT
ATOM      1  C   UNL     1       7.285   4.423  16.067  0.00  0.00    +0.000 C 
ATOM      2  C   UNL     1       5.888   4.526  15.415  0.00  0.00    +0.000 C 
ATOM      3  C   UNL     1       6.046   4.214  13.916  0.00  0.00    +0.000 C 
ATOM      4  C   UNL     1       5.339   5.973  15.557  0.00  0.00    +0.000 C 
ATOM      5  C   UNL     1       5.055   6.368  17.006  0.00  0.00    +0.000 C 
ATOM      6  O   UNL     1       5.228   7.522  17.393  0.00  0.00    +0.000 OA
ATOM      7  C   UNL     1       4.513   5.299  17.804  0.00  0.00    +0.000 A 
ATOM      8  S   UNL     1       4.018   5.458  19.419  0.00  0.00    +0.000 S 
ATOM      9  C   UNL     1       3.561   3.807  19.407  0.00  0.00    +0.000 A 
ATOM     10  N   UNL     1       3.144   3.126  20.576  0.00  0.00    +0.000 N 
ATOM     11  N   UNL     1       3.788   3.141  18.299  0.00  0.00    +0.000 NA
ATOM     12  C   UNL     1       4.395   3.989  17.389  0.00  0.00    +0.000 A 
ATOM     13  C   UNL     1       4.902   3.501  16.065  0.00  0.00    +0.000 C 
ATOM     14  H   UNL     1       3.526   3.573  21.409  0.00  0.00    +0.000 HD
ENDROOT
BRANCH  10  15
ATOM     15  S   UNL     1       1.471   3.143  20.778  0.00  0.00    +0.000 S 
ATOM     16  C   UNL     1       0.864   2.231  19.379  0.00  0.00    +0.000 C 
ATOM     17  O   UNL     1       1.220   2.364  21.971  0.00  0.00    +0.000 OA
ATOM     18  O   UNL     1       1.002   4.508  20.696  0.00  0.00    +0.000 OA
ENDBRANCH  10  15
TORSDOF 1
ENDMDL
MODEL 5
REMARK VINA RESULT:      -6.7      2.654      5.985
REMARK  Name = 
REMARK  4 active torsions:
REMARK  status: ('A' for Active; 'I' for Inactive)
REMARK    1  A    between atoms: C_1  and  C_2
REMARK    2  A    between atoms: C_2  and  C_3
REMARK    3  A    between atoms: N_10  and  S_11
REMARK    4  A    between atoms: S_11  and  C_12
REMARK                            x       y       z     vdW  Elec       q    Type
REMARK                         _______ _______ _______ _____ _____    ______ ____
ROOT
ATOM      1  C   UNL     1       7.376   4.456  15.938  0.00  0.00    +0.000 C 
ATOM      2  C   UNL     1       5.994   4.510  15.248  0.00  0.00    +0.000 C 
ATOM      3  C   UNL     1       6.196   4.150  13.766  0.00  0.00    +0.000 C 
ATOM      4  C   UNL     1       5.416   5.950  15.327  0.00  0.00    +0.000 C 
ATOM      5  C   UNL     1       5.088   6.390  16.753  0.00  0.00    +0.000 C 
ATOM      6  O   UNL     1       5.231   7.559  17.105  0.00  0.00    +0.000 OA
ATOM      7  C   UNL     1       4.546   5.338  17.574  0.00  0.00    +0.000 A 
ATOM      8  S   UNL     1       4.008   5.542  19.170  0.00  0.00    +0.000 S 
ATOM      9  C   UNL     1       3.581   3.884  19.205  0.00  0.00    +0.000 A 
ATOM     10  N   UNL     1       3.146   3.235  20.385  0.00  0.00    +0.000 N 
ATOM     11  N   UNL     1       3.847   3.185  18.126  0.00  0.00    +0.000 NA
ATOM     12  C   UNL     1       4.461   4.013  17.202  0.00  0.00    +0.000 A 
ATOM     13  C   UNL     1       5.010   3.490  15.909  0.00  0.00    +0.000 C 
ATOM     14  H   UNL     1       3.499   3.717  21.211  0.00  0.00    +0.000 HD
ENDROOT
BRANCH  10  15
ATOM     15  S   UNL     1       1.468   3.228  20.545  0.00  0.00    +0.000 S 
ATOM     16  C   UNL     1       1.192   2.404  22.095  0.00  0.00    +0.000 C 
ATOM     17  O   UNL     1       1.091   4.617  20.695  0.00  0.00    +0.000 OA
ATOM     18  O   UNL     1       0.898   2.437  19.477  0.00  0.00    +0.000 OA
ENDBRANCH  10  15
TORSDOF 1
ENDMDL
MODEL 6
REMARK VINA RESULT:      -6.6      2.903      5.881
REMARK  Name = 
REMARK  4 active torsions:
REMARK  status: ('A' for Active; 'I' for Inactive)
REMARK    1  A    between atoms: C_1  and  C_2
REMARK    2  A    between atoms: C_2  and  C_3
REMARK    3  A    between atoms: N_10  and  S_11
REMARK    4  A    between atoms: S_11  and  C_12
REMARK                            x       y       z     vdW  Elec       q    Type
REMARK                         _______ _______ _______ _____ _____    ______ ____
ROOT
ATOM      1  C   UNL     1       7.255   6.461  17.309  0.00  0.00    +0.000 C 
ATOM      2  C   UNL     1       6.327   5.624  16.399  0.00  0.00    +0.000 C 
ATOM      3  C   UNL     1       7.153   5.162  15.186  0.00  0.00    +0.000 C 
ATOM      4  C   UNL     1       5.153   6.503  15.885  0.00  0.00    +0.000 C 
ATOM      5  C   UNL     1       4.206   6.951  16.997  0.00  0.00    +0.000 C 
ATOM      6  O   UNL     1       3.659   8.051  16.957  0.00  0.00    +0.000 OA
ATOM      7  C   UNL     1       3.981   5.949  18.007  0.00  0.00    +0.000 A 
ATOM      8  S   UNL     1       2.915   6.122  19.315  0.00  0.00    +0.000 S 
ATOM      9  C   UNL     1       3.331   4.540  19.822  0.00  0.00    +0.000 A 
ATOM     10  N   UNL     1       2.887   3.993  21.050  0.00  0.00    +0.000 N 
ATOM     11  N   UNL     1       4.235   3.911  19.107  0.00  0.00    +0.000 NA
ATOM     12  C   UNL     1       4.657   4.750  18.089  0.00  0.00    +0.000 A 
ATOM     13  C   UNL     1       5.781   4.378  17.169  0.00  0.00    +0.000 C 
ATOM     14  H   UNL     1       2.676   4.735  21.717  0.00  0.00    +0.000 HD
ENDROOT
BRANCH  10  15
ATOM     15  S   UNL     1       1.463   3.105  20.891  0.00  0.00    +0.000 S 
ATOM     16  C   UNL     1       1.831   1.940  19.602  0.00  0.00    +0.000 C 
ATOM     17  O   UNL     1       1.325   2.378  22.135  0.00  0.00    +0.000 OA
ATOM     18  O   UNL     1       0.406   3.987  20.449  0.00  0.00    +0.000 OA
ENDBRANCH  10  15
TORSDOF 1
ENDMDL
MODEL 7
REMARK VINA RESULT:      -6.5      2.784      5.964
REMARK  Name = 
REMARK  4 active torsions:
REMARK  status: ('A' for Active; 'I' for Inactive)
REMARK    1  A    between atoms: C_1  and  C_2
REMARK    2  A    between atoms: C_2  and  C_3
REMARK    3  A    between atoms: N_10  and  S_11
REMARK    4  A    between atoms: S_11  and  C_12
REMARK                            x       y       z     vdW  Elec       q    Type
REMARK                         _______ _______ _______ _____ _____    ______ ____
ROOT
ATOM      1  C   UNL     1       6.789   7.354  17.375  0.00  0.00    +0.000 C 
ATOM      2  C   UNL     1       7.228   6.162  18.256  0.00  0.00    +0.000 C 
ATOM      3  C   UNL     1       8.467   6.602  19.056  0.00  0.00    +0.000 C 
ATOM      4  C   UNL     1       7.628   4.957  17.359  0.00  0.00    +0.000 C 
ATOM      5  C   UNL     1       6.453   4.373  16.578  0.00  0.00    +0.000 C 
ATOM      6  O   UNL     1       6.610   3.913  15.448  0.00  0.00    +0.000 OA
ATOM      7  C   UNL     1       5.216   4.356  17.315  0.00  0.00    +0.000 A 
ATOM      8  S   UNL     1       3.764   3.690  16.746  0.00  0.00    +0.000 S 
ATOM      9  C   UNL     1       3.024   4.114  18.231  0.00  0.00    +0.000 A 
ATOM     10  N   UNL     1       1.633   3.975  18.455  0.00  0.00    +0.000 N 
ATOM     11  N   UNL     1       3.774   4.749  19.101  0.00  0.00    +0.000 NA
ATOM     12  C   UNL     1       5.028   4.943  18.549  0.00  0.00    +0.000 A 
ATOM     13  C   UNL     1       6.083   5.754  19.239  0.00  0.00    +0.000 C 
ATOM     14  H   UNL     1       1.123   4.001  17.573  0.00  0.00    +0.000 HD
ENDROOT
BRANCH  10  15
ATOM     15  S   UNL     1       1.232   2.503  19.170  0.00  0.00    +0.000 S 
ATOM     16  C   UNL     1       0.971   2.916  20.877  0.00  0.00    +0.000 C 
ATOM     17  O   UNL     1      -0.042   2.131  18.592  0.00  0.00    +0.000 OA
ATOM     18  O   UNL     1       2.361   1.606  19.064  0.00  0.00    +0.000 OA
ENDBRANCH  10  15
TORSDOF 1
ENDMDL
MODEL 8
REMARK VINA RESULT:      -6.5      1.849      2.054
REMARK  Name = 
REMARK  4 active torsions:
REMARK  status: ('A' for Active; 'I' for Inactive)
REMARK    1  A    between atoms: C_1  and  C_2
REMARK    2  A    between atoms: C_2  and  C_3
REMARK    3  A    between atoms: N_10  and  S_11
REMARK    4  A    between atoms: S_11  and  C_12
REMARK                            x       y       z     vdW  Elec       q    Type
REMARK                         _______ _______ _______ _____ _____    ______ ____
ROOT
ATOM      1  C   UNL     1       2.020   1.432  19.857  0.00  0.00    +0.000 C 
ATOM      2  C   UNL     1       1.887   2.845  20.471  0.00  0.00    +0.000 C 
ATOM      3  C   UNL     1       1.229   2.695  21.854  0.00  0.00    +0.000 C 
ATOM      4  C   UNL     1       0.964   3.725  19.583  0.00  0.00    +0.000 C 
ATOM      5  C   UNL     1       1.557   4.020  18.207  0.00  0.00    +0.000 C 
ATOM      6  O   UNL     1       0.837   4.116  17.215  0.00  0.00    +0.000 OA
ATOM      7  C   UNL     1       2.980   4.238  18.222  0.00  0.00    +0.000 A 
ATOM      8  S   UNL     1       3.903   4.669  16.866  0.00  0.00    +0.000 S 
ATOM      9  C   UNL     1       5.295   4.705  17.864  0.00  0.00    +0.000 A 
ATOM     10  N   UNL     1       6.600   4.878  17.344  0.00  0.00    +0.000 N 
ATOM     11  N   UNL     1       5.123   4.380  19.124  0.00  0.00    +0.000 NA
ATOM     12  C   UNL     1       3.793   4.051  19.320  0.00  0.00    +0.000 A 
ATOM     13  C   UNL     1       3.293   3.511  20.626  0.00  0.00    +0.000 C 
ATOM     14  H   UNL     1       6.642   4.574  16.371  0.00  0.00    +0.000 HD
ENDROOT
BRANCH  10  15
ATOM     15  S   UNL     1       7.090   6.491  17.338  0.00  0.00    +0.000 S 
ATOM     16  C   UNL     1       8.083   6.638  18.804  0.00  0.00    +0.000 C 
ATOM     17  O   UNL     1       7.957   6.623  16.186  0.00  0.00    +0.000 OA
ATOM     18  O   UNL     1       5.925   7.337  17.465  0.00  0.00    +0.000 OA
ENDBRANCH  10  15
TORSDOF 1
ENDMDL
MODEL 9
REMARK VINA RESULT:      -6.5      2.044      2.742
REMARK  Name = 
REMARK  4 active torsions:
REMARK  status: ('A' for Active; 'I' for Inactive)
REMARK    1  A    between atoms: C_1  and  C_2
REMARK    2  A    between atoms: C_2  and  C_3
REMARK    3  A    between atoms: N_10  and  S_11
REMARK    4  A    between atoms: S_11  and  C_12
REMARK                            x       y       z     vdW  Elec       q    Type
REMARK                         _______ _______ _______ _____ _____    ______ ____
ROOT
ATOM      1  C   UNL     1       2.620   4.358  21.280  0.00  0.00    +0.000 C 
ATOM      2  C   UNL     1       2.013   5.346  20.257  0.00  0.00    +0.000 C 
ATOM      3  C   UNL     1       1.171   6.370  21.038  0.00  0.00    +0.000 C 
ATOM      4  C   UNL     1       1.075   4.589  19.277  0.00  0.00    +0.000 C 
ATOM      5  C   UNL     1       1.817   3.601  18.378  0.00  0.00    +0.000 C 
ATOM      6  O   UNL     1       1.294   2.542  18.034  0.00  0.00    +0.000 OA
ATOM      7  C   UNL     1       3.107   4.068  17.941  0.00  0.00    +0.000 A 
ATOM      8  S   UNL     1       4.122   3.233  16.870  0.00  0.00    +0.000 S 
ATOM      9  C   UNL     1       5.246   4.520  16.981  0.00  0.00    +0.000 A 
ATOM     10  N   UNL     1       6.535   4.458  16.399  0.00  0.00    +0.000 N 
ATOM     11  N   UNL     1       4.933   5.506  17.789  0.00  0.00    +0.000 NA
ATOM     12  C   UNL     1       3.721   5.218  18.392  0.00  0.00    +0.000 A 
ATOM     13  C   UNL     1       3.144   6.085  19.471  0.00  0.00    +0.000 C 
ATOM     14  H   UNL     1       6.835   3.489  16.294  0.00  0.00    +0.000 HD
ENDROOT
BRANCH  10  15
ATOM     15  S   UNL     1       6.584   5.120  14.850  0.00  0.00    +0.000 S 
ATOM     16  C   UNL     1       6.106   3.771  13.797  0.00  0.00    +0.000 C 
ATOM     17  O   UNL     1       5.531   6.112  14.824  0.00  0.00    +0.000 OA
ATOM     18  O   UNL     1       7.944   5.502  14.545  0.00  0.00    +0.000 OA
ENDBRANCH  10  15
TORSDOF 1
ENDMDL
