MODEL 1
REMARK VINA RESULT:      -8.6      0.000      0.000
REMARK  Name = 
REMARK  5 active torsions:
REMARK  status: ('A' for Active; 'I' for Inactive)
REMARK    1  A    between atoms: C_1  and  C_2
REMARK    2  A    between atoms: C_2  and  C_8
REMARK    3  A    between atoms: N_3  and  N_4
REMARK    4  A    between atoms: N_10  and  S_11
REMARK    5  A    between atoms: S_11  and  C_14
REMARK                            x       y       z     vdW  Elec       q    Type
REMARK                         _______ _______ _______ _____ _____    ______ ____
ROOT
ATOM      1  C   UNL     1       2.523   6.665  19.782  0.00  0.00    +0.000 A 
ATOM      2  C   UNL     1       3.855   6.600  19.372  0.00  0.00    +0.000 A 
ATOM      3  N   UNL     1       4.283   5.285  19.442  0.00  0.00    +0.000 N 
ATOM      4  C   UNL     1       3.238   4.462  19.832  0.00  0.00    +0.000 A 
ATOM      5  C   UNL     1       3.126   3.066  19.997  0.00  0.00    +0.000 A 
ATOM      6  C   UNL     1       1.900   2.539  20.416  0.00  0.00    +0.000 A 
ATOM      7  C   UNL     1       0.807   3.352  20.674  0.00  0.00    +0.000 A 
ATOM      8  C   UNL     1       0.921   4.728  20.511  0.00  0.00    +0.000 A 
ATOM      9  C   UNL     1       2.139   5.307  20.075  0.00  0.00    +0.000 A 
ENDROOT
BRANCH   1  11
ATOM     10  C   UNL     1       1.554   8.790  18.664  0.00  0.00    +0.000 C 
ATOM     11  C   UNL     1       1.665   7.879  19.865  0.00  0.00    +0.000 C 
ATOM     12  N   UNL     1       1.046   8.078  20.995  0.00  0.00    +0.000 NA
BRANCH  12  13
ATOM     13  N   UNL     1       0.275   9.197  21.176  0.00  0.00    +0.000 N 
ATOM     14  C   UNL     1       0.169   9.875  22.360  0.00  0.00    +0.000 C 
ATOM     15  N   UNL     1       0.719   9.519  23.468  0.00  0.00    +0.000 NA
ATOM     16  N   UNL     1      -0.612  10.980  22.332  0.00  0.00    +0.000 N 
ATOM     17  H   UNL     1      -0.221   9.616  20.398  0.00  0.00    +0.000 HD
ATOM     18  H   UNL     1       1.229   8.656  23.232  0.00  0.00    +0.000 HD
ATOM     19  H   UNL     1      -0.368  11.644  21.612  0.00  0.00    +0.000 HD
ATOM     20  H   UNL     1      -0.561  11.419  23.236  0.00  0.00    +0.000 HD
ENDBRANCH  12  13
ENDBRANCH   1  11
BRANCH   3  21
ATOM     21  S   UNL     1       5.866   4.768  18.961  0.00  0.00    +0.000 S 
ATOM     22  O   UNL     1       6.785   5.473  19.830  0.00  0.00    +0.000 OA
ATOM     23  O   UNL     1       5.822   3.321  18.900  0.00  0.00    +0.000 OA
BRANCH  21  24
ATOM     24  C   UNL     1       6.321   5.255  17.344  0.00  0.00    +0.000 A 
ATOM     25  C   UNL     1       7.100   6.289  16.850  0.00  0.00    +0.000 A 
ATOM     26 CL   UNL     1       7.167   7.872  17.432  0.00  0.00    +0.000 Cl
ATOM     27  N   UNL     1       7.756   5.891  15.685  0.00  0.00    +0.000 NA
ATOM     28  C   UNL     1       7.127   4.778  15.369  0.00  0.00    +0.000 A 
ATOM     29  S   UNL     1       6.867   4.178  13.743  0.00  0.00    +0.000 S 
ATOM     30  C   UNL     1       5.140   4.311  14.063  0.00  0.00    +0.000 A 
ATOM     31  C   UNL     1       4.855   4.478  15.373  0.00  0.00    +0.000 A 
ATOM     32  N   UNL     1       6.011   4.631  16.147  0.00  0.00    +0.000 N 
ENDBRANCH  21  24
ENDBRANCH   3  21
TORSDOF 4
ENDMDL
MODEL 2
REMARK VINA RESULT:      -8.6      1.390      1.816
REMARK  Name = 
REMARK  5 active torsions:
REMARK  status: ('A' for Active; 'I' for Inactive)
REMARK    1  A    between atoms: C_1  and  C_2
REMARK    2  A    between atoms: C_2  and  C_8
REMARK    3  A    between atoms: N_3  and  N_4
REMARK    4  A    between atoms: N_10  and  S_11
REMARK    5  A    between atoms: S_11  and  C_14
REMARK                            x       y       z     vdW  Elec       q    Type
REMARK                         _______ _______ _______ _____ _____    ______ ____
ROOT
ATOM      1  C   UNL     1       2.562   6.612  19.842  0.00  0.00    +0.000 A 
ATOM      2  C   UNL     1       3.892   6.545  19.427  0.00  0.00    +0.000 A 
ATOM      3  N   UNL     1       4.301   5.223  19.442  0.00  0.00    +0.000 N 
ATOM      4  C   UNL     1       3.245   4.398  19.800  0.00  0.00    +0.000 A 
ATOM      5  C   UNL     1       3.113   2.999  19.908  0.00  0.00    +0.000 A 
ATOM      6  C   UNL     1       1.880   2.473  20.306  0.00  0.00    +0.000 A 
ATOM      7  C   UNL     1       0.799   3.290  20.599  0.00  0.00    +0.000 A 
ATOM      8  C   UNL     1       0.933   4.670  20.493  0.00  0.00    +0.000 A 
ATOM      9  C   UNL     1       2.158   5.249  20.079  0.00  0.00    +0.000 A 
ENDROOT
BRANCH   1  11
ATOM     10  C   UNL     1       1.065   8.139  21.302  0.00  0.00    +0.000 C 
ATOM     11  C   UNL     1       1.721   7.834  19.976  0.00  0.00    +0.000 C 
ATOM     12  N   UNL     1       1.609   8.582  18.913  0.00  0.00    +0.000 NA
BRANCH  12  13
ATOM     13  N   UNL     1       0.814   9.698  18.932  0.00  0.00    +0.000 N 
ATOM     14  C   UNL     1       1.111  10.867  18.285  0.00  0.00    +0.000 C 
ATOM     15  N   UNL     1       2.198  11.094  17.633  0.00  0.00    +0.000 NA
ATOM     16  N   UNL     1       0.183  11.846  18.390  0.00  0.00    +0.000 N 
ATOM     17  H   UNL     1      -0.087   9.685  19.397  0.00  0.00    +0.000 HD
ATOM     18  H   UNL     1       2.733  10.220  17.719  0.00  0.00    +0.000 HD
ATOM     19  H   UNL     1      -0.749  11.567  18.120  0.00  0.00    +0.000 HD
ATOM     20  H   UNL     1       0.486  12.623  17.827  0.00  0.00    +0.000 HD
ENDBRANCH  12  13
ENDBRANCH   1  11
BRANCH   3  21
ATOM     21  S   UNL     1       5.876   4.702  18.939  0.00  0.00    +0.000 S 
ATOM     22  O   UNL     1       6.808   5.391  19.806  0.00  0.00    +0.000 OA
ATOM     23  O   UNL     1       5.823   3.257  18.858  0.00  0.00    +0.000 OA
BRANCH  21  24
ATOM     24  C   UNL     1       6.317   5.209  17.323  0.00  0.00    +0.000 A 
ATOM     25  C   UNL     1       7.084   6.253  16.834  0.00  0.00    +0.000 A 
ATOM     26 CL   UNL     1       7.140   7.832  17.430  0.00  0.00    +0.000 Cl
ATOM     27  N   UNL     1       7.736   5.872  15.661  0.00  0.00    +0.000 NA
ATOM     28  C   UNL     1       7.116   4.756  15.339  0.00  0.00    +0.000 A 
ATOM     29  S   UNL     1       6.851   4.169  13.709  0.00  0.00    +0.000 S 
ATOM     30  C   UNL     1       5.124   4.283  14.040  0.00  0.00    +0.000 A 
ATOM     31  C   UNL     1       4.847   4.437  15.353  0.00  0.00    +0.000 A 
ATOM     32  N   UNL     1       6.005   4.593  16.122  0.00  0.00    +0.000 N 
ENDBRANCH  21  24
ENDBRANCH   3  21
TORSDOF 4
ENDMDL
MODEL 3
REMARK VINA RESULT:      -7.5      4.563      8.335
REMARK  Name = 
REMARK  5 active torsions:
REMARK  status: ('A' for Active; 'I' for Inactive)
REMARK    1  A    between atoms: C_1  and  C_2
REMARK    2  A    between atoms: C_2  and  C_8
REMARK    3  A    between atoms: N_3  and  N_4
REMARK    4  A    between atoms: N_10  and  S_11
REMARK    5  A    between atoms: S_11  and  C_14
REMARK                            x       y       z     vdW  Elec       q    Type
REMARK                         _______ _______ _______ _____ _____    ______ ____
ROOT
ATOM      1  C   UNL     1       2.134   5.875  20.271  0.00  0.00    +0.000 A 
ATOM      2  C   UNL     1       1.399   6.555  21.242  0.00  0.00    +0.000 A 
ATOM      3  N   UNL     1       1.262   7.878  20.859  0.00  0.00    +0.000 N 
ATOM      4  C   UNL     1       1.840   8.078  19.615  0.00  0.00    +0.000 A 
ATOM      5  C   UNL     1       1.925   9.200  18.764  0.00  0.00    +0.000 A 
ATOM      6  C   UNL     1       2.597   9.065  17.546  0.00  0.00    +0.000 A 
ATOM      7  C   UNL     1       3.181   7.867  17.164  0.00  0.00    +0.000 A 
ATOM      8  C   UNL     1       3.096   6.763  18.005  0.00  0.00    +0.000 A 
ATOM      9  C   UNL     1       2.413   6.846  19.243  0.00  0.00    +0.000 A 
ENDROOT
BRANCH   1  11
ATOM     10  C   UNL     1       1.849   3.495  21.248  0.00  0.00    +0.000 C 
ATOM     11  C   UNL     1       2.518   4.437  20.275  0.00  0.00    +0.000 C 
ATOM     12  N   UNL     1       3.427   4.076  19.413  0.00  0.00    +0.000 NA
BRANCH  12  13
ATOM     13  N   UNL     1       3.878   2.781  19.382  0.00  0.00    +0.000 N 
ATOM     14  C   UNL     1       3.429   1.831  18.506  0.00  0.00    +0.000 C 
ATOM     15  N   UNL     1       2.487   2.004  17.645  0.00  0.00    +0.000 NA
ATOM     16  N   UNL     1       4.022   0.618  18.605  0.00  0.00    +0.000 N 
ATOM     17  H   UNL     1       4.629   2.479  19.993  0.00  0.00    +0.000 HD
ATOM     18  H   UNL     1       2.195   2.981  17.783  0.00  0.00    +0.000 HD
ATOM     19  H   UNL     1       5.030   0.642  18.553  0.00  0.00    +0.000 HD
ATOM     20  H   UNL     1       3.653   0.032  17.875  0.00  0.00    +0.000 HD
ENDBRANCH  12  13
ENDBRANCH   1  11
BRANCH   3  21
ATOM     21  S   UNL     1       0.363   9.050  21.767  0.00  0.00    +0.000 S 
ATOM     22  O   UNL     1      -0.900   8.414  22.077  0.00  0.00    +0.000 OA
ATOM     23  O   UNL     1       1.253   9.538  22.800  0.00  0.00    +0.000 OA
BRANCH  21  24
ATOM     24  C   UNL     1      -0.072  10.481  20.860  0.00  0.00    +0.000 A 
ATOM     25  C   UNL     1      -1.025  10.733  19.887  0.00  0.00    +0.000 A 
ATOM     26 CL   UNL     1      -1.487   9.701  18.633  0.00  0.00    +0.000 Cl
ATOM     27  N   UNL     1      -1.490  12.045  19.987  0.00  0.00    +0.000 NA
ATOM     28  C   UNL     1      -0.607  12.600  20.791  0.00  0.00    +0.000 A 
ATOM     29  S   UNL     1      -0.103  14.278  20.751  0.00  0.00    +0.000 S 
ATOM     30  C   UNL     1       1.524  13.691  20.411  0.00  0.00    +0.000 A 
ATOM     31  C   UNL     1       1.668  12.368  20.641  0.00  0.00    +0.000 A 
ATOM     32  N   UNL     1       0.455  11.757  20.977  0.00  0.00    +0.000 N 
ENDBRANCH  21  24
ENDBRANCH   3  21
TORSDOF 4
ENDMDL
MODEL 4
REMARK VINA RESULT:      -7.4      6.014      9.537
REMARK  Name = 
REMARK  5 active torsions:
REMARK  status: ('A' for Active; 'I' for Inactive)
REMARK    1  A    between atoms: C_1  and  C_2
REMARK    2  A    between atoms: C_2  and  C_8
REMARK    3  A    between atoms: N_3  and  N_4
REMARK    4  A    between atoms: N_10  and  S_11
REMARK    5  A    between atoms: S_11  and  C_14
REMARK                            x       y       z     vdW  Elec       q    Type
REMARK                         _______ _______ _______ _____ _____    ______ ____
ROOT
ATOM      1  C   UNL     1       0.851   9.288  19.583  0.00  0.00    +0.000 A 
ATOM      2  C   UNL     1       0.190  10.190  18.748  0.00  0.00    +0.000 A 
ATOM      3  N   UNL     1      -0.680  10.951  19.509  0.00  0.00    +0.000 N 
ATOM      4  C   UNL     1      -0.565  10.615  20.849  0.00  0.00    +0.000 A 
ATOM      5  C   UNL     1      -1.167  11.118  22.021  0.00  0.00    +0.000 A 
ATOM      6  C   UNL     1      -0.826  10.541  23.248  0.00  0.00    +0.000 A 
ATOM      7  C   UNL     1       0.077   9.493  23.334  0.00  0.00    +0.000 A 
ATOM      8  C   UNL     1       0.669   8.999  22.178  0.00  0.00    +0.000 A 
ATOM      9  C   UNL     1       0.366   9.560  20.912  0.00  0.00    +0.000 A 
ENDROOT
BRANCH   1  11
ATOM     10  C   UNL     1       2.542   8.392  17.839  0.00  0.00    +0.000 C 
ATOM     11  C   UNL     1       1.872   8.278  19.188  0.00  0.00    +0.000 C 
ATOM     12  N   UNL     1       2.130   7.342  20.059  0.00  0.00    +0.000 NA
BRANCH  12  13
ATOM     13  N   UNL     1       3.019   6.343  19.759  0.00  0.00    +0.000 N 
ATOM     14  C   UNL     1       2.708   5.010  19.758  0.00  0.00    +0.000 C 
ATOM     15  N   UNL     1       1.569   4.517  20.100  0.00  0.00    +0.000 NA
ATOM     16  N   UNL     1       3.711   4.176  19.397  0.00  0.00    +0.000 N 
ATOM     17  H   UNL     1       3.963   6.561  19.459  0.00  0.00    +0.000 HD
ATOM     18  H   UNL     1       1.000   5.339  20.345  0.00  0.00    +0.000 HD
ATOM     19  H   UNL     1       4.139   4.398  18.510  0.00  0.00    +0.000 HD
ATOM     20  H   UNL     1       3.344   3.240  19.377  0.00  0.00    +0.000 HD
ENDBRANCH  12  13
ENDBRANCH   1  11
BRANCH   3  21
ATOM     21  S   UNL     1      -1.651  12.232  18.858  0.00  0.00    +0.000 S 
ATOM     22  O   UNL     1      -2.020  13.053  19.991  0.00  0.00    +0.000 OA
ATOM     23  O   UNL     1      -0.920  12.764  17.726  0.00  0.00    +0.000 OA
BRANCH  21  24
ATOM     24  C   UNL     1      -3.174  11.703  18.178  0.00  0.00    +0.000 A 
ATOM     25  C   UNL     1      -3.505  10.980  17.044  0.00  0.00    +0.000 A 
ATOM     26 CL   UNL     1      -2.774  11.088  15.526  0.00  0.00    +0.000 Cl
ATOM     27  N   UNL     1      -4.646  10.210  17.273  0.00  0.00    +0.000 NA
ATOM     28  C   UNL     1      -5.115  10.719  18.393  0.00  0.00    +0.000 A 
ATOM     29  S   UNL     1      -6.805  10.809  18.846  0.00  0.00    +0.000 S 
ATOM     30  C   UNL     1      -6.613  12.561  18.878  0.00  0.00    +0.000 A 
ATOM     31  C   UNL     1      -5.321  12.952  18.864  0.00  0.00    +0.000 A 
ATOM     32  N   UNL     1      -4.445  11.873  18.701  0.00  0.00    +0.000 N 
ENDBRANCH  21  24
ENDBRANCH   3  21
TORSDOF 4
ENDMDL
MODEL 5
REMARK VINA RESULT:      -7.4      3.455      7.565
REMARK  Name = 
REMARK  5 active torsions:
REMARK  status: ('A' for Active; 'I' for Inactive)
REMARK    1  A    between atoms: C_1  and  C_2
REMARK    2  A    between atoms: C_2  and  C_8
REMARK    3  A    between atoms: N_3  and  N_4
REMARK    4  A    between atoms: N_10  and  S_11
REMARK    5  A    between atoms: S_11  and  C_14
REMARK                            x       y       z     vdW  Elec       q    Type
REMARK                         _______ _______ _______ _____ _____    ______ ____
ROOT
ATOM      1  C   UNL     1       3.828   5.986  18.796  0.00  0.00    +0.000 A 
ATOM      2  C   UNL     1       3.267   7.142  19.338  0.00  0.00    +0.000 A 
ATOM      3  N   UNL     1       2.110   6.804  20.019  0.00  0.00    +0.000 N 
ATOM      4  C   UNL     1       1.924   5.431  19.995  0.00  0.00    +0.000 A 
ATOM      5  C   UNL     1       0.957   4.582  20.572  0.00  0.00    +0.000 A 
ATOM      6  C   UNL     1       1.055   3.206  20.346  0.00  0.00    +0.000 A 
ATOM      7  C   UNL     1       2.069   2.666  19.570  0.00  0.00    +0.000 A 
ATOM      8  C   UNL     1       3.020   3.505  19.001  0.00  0.00    +0.000 A 
ATOM      9  C   UNL     1       2.971   4.905  19.213  0.00  0.00    +0.000 A 
ENDROOT
BRANCH   1  11
ATOM     10  C   UNL     1       6.360   5.463  18.657  0.00  0.00    +0.000 C 
ATOM     11  C   UNL     1       5.073   5.883  17.986  0.00  0.00    +0.000 C 
ATOM     12  N   UNL     1       4.966   6.165  16.717  0.00  0.00    +0.000 NA
BRANCH  12  13
ATOM     13  N   UNL     1       6.072   6.145  15.908  0.00  0.00    +0.000 N 
ATOM     14  C   UNL     1       6.370   5.134  15.035  0.00  0.00    +0.000 C 
ATOM     15  N   UNL     1       5.694   4.045  14.907  0.00  0.00    +0.000 NA
ATOM     16  N   UNL     1       7.487   5.312  14.293  0.00  0.00    +0.000 N 
ATOM     17  H   UNL     1       6.708   6.934  15.880  0.00  0.00    +0.000 HD
ATOM     18  H   UNL     1       4.924   4.144  15.583  0.00  0.00    +0.000 HD
ATOM     19  H   UNL     1       7.514   6.183  13.783  0.00  0.00    +0.000 HD
ATOM     20  H   UNL     1       7.563   4.538  13.655  0.00  0.00    +0.000 HD
ENDBRANCH  12  13
ENDBRANCH   1  11
BRANCH   3  21
ATOM     21  S   UNL     1       1.142   7.951  20.888  0.00  0.00    +0.000 S 
ATOM     22  O   UNL     1      -0.096   7.264  21.188  0.00  0.00    +0.000 OA
ATOM     23  O   UNL     1       1.990   8.498  21.927  0.00  0.00    +0.000 OA
BRANCH  21  24
ATOM     24  C   UNL     1       0.660   9.343  19.946  0.00  0.00    +0.000 A 
ATOM     25  C   UNL     1       0.733   9.646  18.596  0.00  0.00    +0.000 A 
ATOM     26 CL   UNL     1       2.000   9.273  17.543  0.00  0.00    +0.000 Cl
ATOM     27  N   UNL     1      -0.347  10.443  18.215  0.00  0.00    +0.000 NA
ATOM     28  C   UNL     1      -0.841  10.827  19.374  0.00  0.00    +0.000 A 
ATOM     29  S   UNL     1      -1.642  12.354  19.686  0.00  0.00    +0.000 S 
ATOM     30  C   UNL     1      -0.358  12.692  20.845  0.00  0.00    +0.000 A 
ATOM     31  C   UNL     1       0.376  11.601  21.155  0.00  0.00    +0.000 A 
ATOM     32  N   UNL     1       0.016  10.488  20.386  0.00  0.00    +0.000 N 
ENDBRANCH  21  24
ENDBRANCH   3  21
TORSDOF 4
ENDMDL
MODEL 6
REMARK VINA RESULT:      -7.4      5.846      8.832
REMARK  Name = 
REMARK  5 active torsions:
REMARK  status: ('A' for Active; 'I' for Inactive)
REMARK    1  A    between atoms: C_1  and  C_2
REMARK    2  A    between atoms: C_2  and  C_8
REMARK    3  A    between atoms: N_3  and  N_4
REMARK    4  A    between atoms: N_10  and  S_11
REMARK    5  A    between atoms: S_11  and  C_14
REMARK                            x       y       z     vdW  Elec       q    Type
REMARK                         _______ _______ _______ _____ _____    ______ ____
ROOT
ATOM      1  C   UNL     1       1.006   9.551  19.619  0.00  0.00    +0.000 A 
ATOM      2  C   UNL     1       0.700  10.674  18.849  0.00  0.00    +0.000 A 
ATOM      3  N   UNL     1      -0.114  11.516  19.587  0.00  0.00    +0.000 N 
ATOM      4  C   UNL     1      -0.305  11.003  20.860  0.00  0.00    +0.000 A 
ATOM      5  C   UNL     1      -0.987  11.484  21.997  0.00  0.00    +0.000 A 
ATOM      6  C   UNL     1      -0.991  10.701  23.155  0.00  0.00    +0.000 A 
ATOM      7  C   UNL     1      -0.352   9.472  23.206  0.00  0.00    +0.000 A 
ATOM      8  C   UNL     1       0.319   9.000  22.083  0.00  0.00    +0.000 A 
ATOM      9  C   UNL     1       0.364   9.764  20.891  0.00  0.00    +0.000 A 
ENDROOT
BRANCH   1  11
ATOM     10  C   UNL     1       2.379   8.309  17.810  0.00  0.00    +0.000 C 
ATOM     11  C   UNL     1       1.851   8.391  19.223  0.00  0.00    +0.000 C 
ATOM     12  N   UNL     1       2.089   7.502  20.147  0.00  0.00    +0.000 NA
BRANCH  12  13
ATOM     13  N   UNL     1       2.815   6.377  19.856  0.00  0.00    +0.000 N 
ATOM     14  C   UNL     1       2.372   5.099  20.065  0.00  0.00    +0.000 C 
ATOM     15  N   UNL     1       1.252   4.787  20.620  0.00  0.00    +0.000 NA
ATOM     16  N   UNL     1       3.218   4.116  19.679  0.00  0.00    +0.000 N 
ATOM     17  H   UNL     1       3.720   6.446  19.406  0.00  0.00    +0.000 HD
ATOM     18  H   UNL     1       0.814   5.693  20.835  0.00  0.00    +0.000 HD
ATOM     19  H   UNL     1       3.528   4.187  18.721  0.00  0.00    +0.000 HD
ATOM     20  H   UNL     1       2.757   3.234  19.827  0.00  0.00    +0.000 HD
ENDBRANCH  12  13
ENDBRANCH   1  11
BRANCH   3  21
ATOM     21  S   UNL     1      -0.672  13.053  19.011  0.00  0.00    +0.000 S 
ATOM     22  O   UNL     1      -0.922  12.870  17.597  0.00  0.00    +0.000 OA
ATOM     23  O   UNL     1      -1.709  13.481  19.927  0.00  0.00    +0.000 OA
BRANCH  21  24
ATOM     24  C   UNL     1       0.524  14.327  19.088  0.00  0.00    +0.000 A 
ATOM     25  C   UNL     1       0.435  15.705  19.194  0.00  0.00    +0.000 A 
ATOM     26 CL   UNL     1      -0.699  16.707  18.444  0.00  0.00    +0.000 Cl
ATOM     27  N   UNL     1       1.514  16.209  19.921  0.00  0.00    +0.000 NA
ATOM     28  C   UNL     1       2.339  15.183  19.956  0.00  0.00    +0.000 A 
ATOM     29  S   UNL     1       4.088  15.280  19.992  0.00  0.00    +0.000 S 
ATOM     30  C   UNL     1       4.082  14.406  18.462  0.00  0.00    +0.000 A 
ATOM     31  C   UNL     1       2.886  13.846  18.177  0.00  0.00    +0.000 A 
ATOM     32  N   UNL     1       1.903  14.201  19.108  0.00  0.00    +0.000 N 
ENDBRANCH  21  24
ENDBRANCH   3  21
TORSDOF 4
ENDMDL
MODEL 7
REMARK VINA RESULT:      -7.4      6.003     10.377
REMARK  Name = 
REMARK  5 active torsions:
REMARK  status: ('A' for Active; 'I' for Inactive)
REMARK    1  A    between atoms: C_1  and  C_2
REMARK    2  A    between atoms: C_2  and  C_8
REMARK    3  A    between atoms: N_3  and  N_4
REMARK    4  A    between atoms: N_10  and  S_11
REMARK    5  A    between atoms: S_11  and  C_14
REMARK                            x       y       z     vdW  Elec       q    Type
REMARK                         _______ _______ _______ _____ _____    ______ ____
ROOT
ATOM      1  C   UNL     1       0.676   9.661  19.732  0.00  0.00    +0.000 A 
ATOM      2  C   UNL     1       0.651  10.368  20.935  0.00  0.00    +0.000 A 
ATOM      3  N   UNL     1      -0.387  11.282  20.897  0.00  0.00    +0.000 N 
ATOM      4  C   UNL     1      -1.096  11.154  19.713  0.00  0.00    +0.000 A 
ATOM      5  C   UNL     1      -2.251  11.789  19.211  0.00  0.00    +0.000 A 
ATOM      6  C   UNL     1      -2.719  11.422  17.946  0.00  0.00    +0.000 A 
ATOM      7  C   UNL     1      -2.075  10.462  17.181  0.00  0.00    +0.000 A 
ATOM      8  C   UNL     1      -0.936   9.838  17.678  0.00  0.00    +0.000 A 
ATOM      9  C   UNL     1      -0.432  10.166  18.961  0.00  0.00    +0.000 A 
ENDROOT
BRANCH   1  11
ATOM     10  C   UNL     1       2.201   8.575  17.944  0.00  0.00    +0.000 C 
ATOM     11  C   UNL     1       1.625   8.583  19.341  0.00  0.00    +0.000 C 
ATOM     12  N   UNL     1       1.909   7.697  20.255  0.00  0.00    +0.000 NA
BRANCH  12  13
ATOM     13  N   UNL     1       2.734   6.642  19.965  0.00  0.00    +0.000 N 
ATOM     14  C   UNL     1       2.377   5.327  20.096  0.00  0.00    +0.000 C 
ATOM     15  N   UNL     1       1.254   4.909  20.567  0.00  0.00    +0.000 NA
ATOM     16  N   UNL     1       3.317   4.427  19.724  0.00  0.00    +0.000 N 
ATOM     17  H   UNL     1       3.656   6.797  19.575  0.00  0.00    +0.000 HD
ATOM     18  H   UNL     1       0.737   5.771  20.791  0.00  0.00    +0.000 HD
ATOM     19  H   UNL     1       3.677   4.562  18.791  0.00  0.00    +0.000 HD
ATOM     20  H   UNL     1       2.916   3.508  19.809  0.00  0.00    +0.000 HD
ENDBRANCH  12  13
ENDBRANCH   1  11
BRANCH   3  21
ATOM     21  S   UNL     1      -0.795  12.321  22.224  0.00  0.00    +0.000 S 
ATOM     22  O   UNL     1      -0.988  11.443  23.359  0.00  0.00    +0.000 OA
ATOM     23  O   UNL     1       0.191  13.382  22.231  0.00  0.00    +0.000 OA
BRANCH  21  24
ATOM     24  C   UNL     1      -2.323  13.153  22.041  0.00  0.00    +0.000 A 
ATOM     25  C   UNL     1      -2.715  14.265  21.315  0.00  0.00    +0.000 A 
ATOM     26 CL   UNL     1      -1.826  15.680  21.073  0.00  0.00    +0.000 Cl
ATOM     27  N   UNL     1      -4.040  14.132  20.896  0.00  0.00    +0.000 NA
ATOM     28  C   UNL     1      -4.469  13.121  21.622  0.00  0.00    +0.000 A 
ATOM     29  S   UNL     1      -6.110  12.898  22.193  0.00  0.00    +0.000 S 
ATOM     30  C   UNL     1      -5.458  12.967  23.829  0.00  0.00    +0.000 A 
ATOM     31  C   UNL     1      -4.114  12.841  23.868  0.00  0.00    +0.000 A 
ATOM     32  N   UNL     1      -3.550  12.812  22.588  0.00  0.00    +0.000 N 
ENDBRANCH  21  24
ENDBRANCH   3  21
TORSDOF 4
ENDMDL
MODEL 8
REMARK VINA RESULT:      -7.3      5.916      9.329
REMARK  Name = 
REMARK  5 active torsions:
REMARK  status: ('A' for Active; 'I' for Inactive)
REMARK    1  A    between atoms: C_1  and  C_2
REMARK    2  A    between atoms: C_2  and  C_8
REMARK    3  A    between atoms: N_3  and  N_4
REMARK    4  A    between atoms: N_10  and  S_11
REMARK    5  A    between atoms: S_11  and  C_14
REMARK                            x       y       z     vdW  Elec       q    Type
REMARK                         _______ _______ _______ _____ _____    ______ ____
ROOT
ATOM      1  C   UNL     1       1.039   9.454  19.510  0.00  0.00    +0.000 A 
ATOM      2  C   UNL     1       0.583  10.535  18.757  0.00  0.00    +0.000 A 
ATOM      3  N   UNL     1      -0.231  11.324  19.551  0.00  0.00    +0.000 N 
ATOM      4  C   UNL     1      -0.275  10.821  20.842  0.00  0.00    +0.000 A 
ATOM      5  C   UNL     1      -0.896  11.268  22.026  0.00  0.00    +0.000 A 
ATOM      6  C   UNL     1      -0.742  10.507  23.189  0.00  0.00    +0.000 A 
ATOM      7  C   UNL     1      -0.005   9.333  23.200  0.00  0.00    +0.000 A 
ATOM      8  C   UNL     1       0.606   8.894  22.030  0.00  0.00    +0.000 A 
ATOM      9  C   UNL     1       0.490   9.638  20.830  0.00  0.00    +0.000 A 
ENDROOT
BRANCH   1  11
ATOM     10  C   UNL     1       2.521   8.404  17.665  0.00  0.00    +0.000 C 
ATOM     11  C   UNL     1       1.938   8.356  19.058  0.00  0.00    +0.000 C 
ATOM     12  N   UNL     1       2.171   7.403  19.918  0.00  0.00    +0.000 NA
BRANCH  12  13
ATOM     13  N   UNL     1       2.945   6.328  19.567  0.00  0.00    +0.000 N 
ATOM     14  C   UNL     1       2.928   5.123  20.215  0.00  0.00    +0.000 C 
ATOM     15  N   UNL     1       2.238   4.861  21.271  0.00  0.00    +0.000 NA
ATOM     16  N   UNL     1       3.737   4.169  19.698  0.00  0.00    +0.000 N 
ATOM     17  H   UNL     1       3.544   6.364  18.750  0.00  0.00    +0.000 HD
ATOM     18  H   UNL     1       1.736   5.737  21.469  0.00  0.00    +0.000 HD
ATOM     19  H   UNL     1       3.601   3.997  18.713  0.00  0.00    +0.000 HD
ATOM     20  H   UNL     1       3.590   3.321  20.220  0.00  0.00    +0.000 HD
ENDBRANCH  12  13
ENDBRANCH   1  11
BRANCH   3  21
ATOM     21  S   UNL     1      -0.956  12.802  19.006  0.00  0.00    +0.000 S 
ATOM     22  O   UNL     1      -1.009  12.700  17.564  0.00  0.00    +0.000 OA
ATOM     23  O   UNL     1      -2.146  12.994  19.809  0.00  0.00    +0.000 OA
BRANCH  21  24
ATOM     24  C   UNL     1       0.007  14.230  19.314  0.00  0.00    +0.000 A 
ATOM     25  C   UNL     1       1.321  14.419  19.706  0.00  0.00    +0.000 A 
ATOM     26 CL   UNL     1       2.186  13.498  20.827  0.00  0.00    +0.000 Cl
ATOM     27  N   UNL     1       1.835  15.588  19.143  0.00  0.00    +0.000 NA
ATOM     28  C   UNL     1       0.752  16.192  18.700  0.00  0.00    +0.000 A 
ATOM     29  S   UNL     1       0.517  17.925  18.598  0.00  0.00    +0.000 S 
ATOM     30  C   UNL     1      -0.827  17.723  19.719  0.00  0.00    +0.000 A 
ATOM     31  C   UNL     1      -1.211  16.435  19.857  0.00  0.00    +0.000 A 
ATOM     32  N   UNL     1      -0.366  15.556  19.170  0.00  0.00    +0.000 N 
ENDBRANCH  21  24
ENDBRANCH   3  21
TORSDOF 4
ENDMDL
MODEL 9
REMARK VINA RESULT:      -7.2      5.943     10.072
REMARK  Name = 
REMARK  5 active torsions:
REMARK  status: ('A' for Active; 'I' for Inactive)
REMARK    1  A    between atoms: C_1  and  C_2
REMARK    2  A    between atoms: C_2  and  C_8
REMARK    3  A    between atoms: N_3  and  N_4
REMARK    4  A    between atoms: N_10  and  S_11
REMARK    5  A    between atoms: S_11  and  C_14
REMARK                            x       y       z     vdW  Elec       q    Type
REMARK                         _______ _______ _______ _____ _____    ______ ____
ROOT
ATOM      1  C   UNL     1       0.871   9.324  19.603  0.00  0.00    +0.000 A 
ATOM      2  C   UNL     1       0.291  10.277  18.766  0.00  0.00    +0.000 A 
ATOM      3  N   UNL     1      -0.557  11.075  19.513  0.00  0.00    +0.000 N 
ATOM      4  C   UNL     1      -0.504  10.711  20.850  0.00  0.00    +0.000 A 
ATOM      5  C   UNL     1      -1.113  11.228  22.011  0.00  0.00    +0.000 A 
ATOM      6  C   UNL     1      -0.846  10.611  23.237  0.00  0.00    +0.000 A 
ATOM      7  C   UNL     1      -0.008   9.511  23.332  0.00  0.00    +0.000 A 
ATOM      8  C   UNL     1       0.591   9.003  22.185  0.00  0.00    +0.000 A 
ATOM      9  C   UNL     1       0.362   9.602  20.922  0.00  0.00    +0.000 A 
ENDROOT
BRANCH   1  11
ATOM     10  C   UNL     1       2.530   8.337  17.877  0.00  0.00    +0.000 C 
ATOM     11  C   UNL     1       1.844   8.264  19.222  0.00  0.00    +0.000 C 
ATOM     12  N   UNL     1       2.050   7.320  20.099  0.00  0.00    +0.000 NA
BRANCH  12  13
ATOM     13  N   UNL     1       2.890   6.277  19.810  0.00  0.00    +0.000 N 
ATOM     14  C   UNL     1       2.626   4.969  20.113  0.00  0.00    +0.000 C 
ATOM     15  N   UNL     1       1.594   4.554  20.761  0.00  0.00    +0.000 NA
ATOM     16  N   UNL     1       3.561   4.076  19.714  0.00  0.00    +0.000 N 
ATOM     17  H   UNL     1       3.748   6.430  19.292  0.00  0.00    +0.000 HD
ATOM     18  H   UNL     1       1.061   5.411  20.964  0.00  0.00    +0.000 HD
ATOM     19  H   UNL     1       3.797   4.129  18.733  0.00  0.00    +0.000 HD
ATOM     20  H   UNL     1       3.226   3.154  19.937  0.00  0.00    +0.000 HD
ENDBRANCH  12  13
ENDBRANCH   1  11
BRANCH   3  21
ATOM     21  S   UNL     1      -1.431  12.421  18.856  0.00  0.00    +0.000 S 
ATOM     22  O   UNL     1      -0.656  13.593  19.203  0.00  0.00    +0.000 OA
ATOM     23  O   UNL     1      -1.737  12.078  17.483  0.00  0.00    +0.000 OA
BRANCH  21  24
ATOM     24  C   UNL     1      -2.995  12.690  19.593  0.00  0.00    +0.000 A 
ATOM     25  C   UNL     1      -4.261  12.192  19.336  0.00  0.00    +0.000 A 
ATOM     26 CL   UNL     1      -4.940  11.885  17.820  0.00  0.00    +0.000 Cl
ATOM     27  N   UNL     1      -4.994  12.089  20.519  0.00  0.00    +0.000 NA
ATOM     28  C   UNL     1      -4.271  12.792  21.365  0.00  0.00    +0.000 A 
ATOM     29  S   UNL     1      -4.893  13.714  22.720  0.00  0.00    +0.000 S 
ATOM     30  C   UNL     1      -4.220  15.146  21.944  0.00  0.00    +0.000 A 
ATOM     31  C   UNL     1      -3.354  14.851  20.950  0.00  0.00    +0.000 A 
ATOM     32  N   UNL     1      -3.295  13.476  20.693  0.00  0.00    +0.000 N 
ENDBRANCH  21  24
ENDBRANCH   3  21
TORSDOF 4
ENDMDL
