MODEL 1
REMARK VINA RESULT:      -6.8      0.000      0.000
REMARK  Name = 
REMARK  3 active torsions:
REMARK  status: ('A' for Active; 'I' for Inactive)
REMARK    1  A    between atoms: C_2  and  C_9
REMARK    2  A    between atoms: C_9  and  S_10
REMARK    3  A    between atoms: S_10  and  C_13
REMARK                            x       y       z     vdW  Elec       q    Type
REMARK                         _______ _______ _______ _____ _____    ______ ____
ROOT
ATOM      1  C   UNL     1       6.473   5.360  18.080  0.00  0.00    +0.000 C 
ATOM      2  C   UNL     1       7.800   5.724  18.703  0.00  0.00    +0.000 C 
ATOM      3  C   UNL     1       7.686   4.482  17.863  0.00  0.00    +0.000 C 
ENDROOT
BRANCH   1   5
ATOM      4  O   UNL     1       5.252   5.179  20.069  0.00  0.00    +0.000 OA
ATOM      5  C   UNL     1       5.345   4.832  18.900  0.00  0.00    +0.000 C 
ATOM      6  N   UNL     1       4.541   3.946  18.223  0.00  0.00    +0.000 N 
ATOM      7  C   UNL     1       3.473   3.320  18.796  0.00  0.00    +0.000 A 
ATOM      8  N   UNL     1       3.101   3.279  20.048  0.00  0.00    +0.000 NA
ATOM      9  C   UNL     1       1.949   2.524  20.153  0.00  0.00    +0.000 A 
ATOM     10  C   UNL     1       1.466   2.005  18.969  0.00  0.00    +0.000 A 
ATOM     11  S   UNL     1       2.506   2.456  17.682  0.00  0.00    +0.000 S 
ATOM     12  H   UNL     1       4.637   3.823  17.218  0.00  0.00    +0.000 HD
ENDBRANCH   1   5
BRANCH   1  13
ATOM     13  S   UNL     1       5.948   6.385  16.692  0.00  0.00    +0.000 S 
ATOM     14  O   UNL     1       4.535   6.626  16.934  0.00  0.00    +0.000 OA
ATOM     15  O   UNL     1       6.875   7.498  16.628  0.00  0.00    +0.000 OA
BRANCH  13  16
ATOM     16  C   UNL     1       6.042   5.544  15.126  0.00  0.00    +0.000 A 
ATOM     17  C   UNL     1       7.248   5.562  14.411  0.00  0.00    +0.000 A 
ATOM     18  C   UNL     1       7.436   4.682  13.343  0.00  0.00    +0.000 A 
ATOM     19  C   UNL     1       6.431   3.777  13.000  0.00  0.00    +0.000 A 
ATOM     20 CL   UNL     1       6.702   2.635  11.743  0.00  0.00    +0.000 Cl
ATOM     21  C   UNL     1       5.225   3.764  13.702  0.00  0.00    +0.000 A 
ATOM     22  C   UNL     1       5.028   4.646  14.768  0.00  0.00    +0.000 A 
ENDBRANCH  13  16
ENDBRANCH   1  13
TORSDOF 3
ENDMDL
MODEL 2
REMARK VINA RESULT:      -6.8      3.489      4.702
REMARK  Name = 
REMARK  3 active torsions:
REMARK  status: ('A' for Active; 'I' for Inactive)
REMARK    1  A    between atoms: C_2  and  C_9
REMARK    2  A    between atoms: C_9  and  S_10
REMARK    3  A    between atoms: S_10  and  C_13
REMARK                            x       y       z     vdW  Elec       q    Type
REMARK                         _______ _______ _______ _____ _____    ______ ____
ROOT
ATOM      1  C   UNL     1       3.097   4.444  19.126  0.00  0.00    +0.000 C 
ATOM      2  C   UNL     1       2.322   3.533  20.048  0.00  0.00    +0.000 C 
ATOM      3  C   UNL     1       2.315   3.276  18.567  0.00  0.00    +0.000 C 
ENDROOT
BRANCH   1   5
ATOM      4  O   UNL     1       2.679   6.229  17.669  0.00  0.00    +0.000 OA
ATOM      5  C   UNL     1       2.630   5.828  18.823  0.00  0.00    +0.000 C 
ATOM      6  N   UNL     1       2.227   6.527  19.936  0.00  0.00    +0.000 N 
ATOM      7  C   UNL     1       1.796   7.820  19.889  0.00  0.00    +0.000 A 
ATOM      8  N   UNL     1       1.827   8.677  18.902  0.00  0.00    +0.000 NA
ATOM      9  C   UNL     1       1.270   9.869  19.321  0.00  0.00    +0.000 A 
ATOM     10  C   UNL     1       0.823   9.894  20.626  0.00  0.00    +0.000 A 
ATOM     11  S   UNL     1       1.136   8.378  21.364  0.00  0.00    +0.000 S 
ATOM     12  H   UNL     1       2.110   6.056  20.829  0.00  0.00    +0.000 HD
ENDBRANCH   1   5
BRANCH   1  13
ATOM     13  S   UNL     1       4.891   4.277  19.179  0.00  0.00    +0.000 S 
ATOM     14  O   UNL     1       5.354   5.522  19.770  0.00  0.00    +0.000 OA
ATOM     15  O   UNL     1       5.168   3.014  19.836  0.00  0.00    +0.000 OA
BRANCH  13  16
ATOM     16  C   UNL     1       5.635   4.191  17.564  0.00  0.00    +0.000 A 
ATOM     17  C   UNL     1       4.821   3.955  16.448  0.00  0.00    +0.000 A 
ATOM     18  C   UNL     1       5.323   4.172  15.163  0.00  0.00    +0.000 A 
ATOM     19  C   UNL     1       6.627   4.638  14.994  0.00  0.00    +0.000 A 
ATOM     20 CL   UNL     1       7.211   4.990  13.415  0.00  0.00    +0.000 Cl
ATOM     21  C   UNL     1       7.444   4.864  16.102  0.00  0.00    +0.000 A 
ATOM     22  C   UNL     1       6.950   4.643  17.391  0.00  0.00    +0.000 A 
ENDBRANCH  13  16
ENDBRANCH   1  13
TORSDOF 3
ENDMDL
MODEL 3
REMARK VINA RESULT:      -6.8      3.598      4.628
REMARK  Name = 
REMARK  3 active torsions:
REMARK  status: ('A' for Active; 'I' for Inactive)
REMARK    1  A    between atoms: C_2  and  C_9
REMARK    2  A    between atoms: C_9  and  S_10
REMARK    3  A    between atoms: S_10  and  C_13
REMARK                            x       y       z     vdW  Elec       q    Type
REMARK                         _______ _______ _______ _____ _____    ______ ____
ROOT
ATOM      1  C   UNL     1       3.067   4.673  19.347  0.00  0.00    +0.000 C 
ATOM      2  C   UNL     1       2.505   3.790  20.437  0.00  0.00    +0.000 C 
ATOM      3  C   UNL     1       2.256   3.445  18.995  0.00  0.00    +0.000 C 
ENDROOT
BRANCH   1   5
ATOM      4  O   UNL     1       2.355   6.365  17.894  0.00  0.00    +0.000 OA
ATOM      5  C   UNL     1       2.492   6.018  19.059  0.00  0.00    +0.000 C 
ATOM      6  N   UNL     1       2.218   6.751  20.189  0.00  0.00    +0.000 N 
ATOM      7  C   UNL     1       1.719   8.020  20.151  0.00  0.00    +0.000 A 
ATOM      8  N   UNL     1       1.565   8.829  19.136  0.00  0.00    +0.000 NA
ATOM      9  C   UNL     1       1.014  10.014  19.582  0.00  0.00    +0.000 A 
ATOM     10  C   UNL     1       0.758  10.082  20.936  0.00  0.00    +0.000 A 
ATOM     11  S   UNL     1       1.250   8.618  21.682  0.00  0.00    +0.000 S 
ATOM     12  H   UNL     1       2.255   6.320  21.108  0.00  0.00    +0.000 HD
ENDBRANCH   1   5
BRANCH   1  13
ATOM     13  S   UNL     1       4.850   4.574  19.097  0.00  0.00    +0.000 S 
ATOM     14  O   UNL     1       5.381   5.721  19.815  0.00  0.00    +0.000 OA
ATOM     15  O   UNL     1       5.246   3.232  19.476  0.00  0.00    +0.000 OA
BRANCH  13  16
ATOM     16  C   UNL     1       5.331   4.792  17.397  0.00  0.00    +0.000 A 
ATOM     17  C   UNL     1       6.547   5.427  17.107  0.00  0.00    +0.000 A 
ATOM     18  C   UNL     1       7.080   5.351  15.817  0.00  0.00    +0.000 A 
ATOM     19  C   UNL     1       6.410   4.631  14.828  0.00  0.00    +0.000 A 
ATOM     20 CL   UNL     1       7.115   4.465  13.268  0.00  0.00    +0.000 Cl
ATOM     21  C   UNL     1       5.195   4.008  15.110  0.00  0.00    +0.000 A 
ATOM     22  C   UNL     1       4.652   4.085  16.396  0.00  0.00    +0.000 A 
ENDBRANCH  13  16
ENDBRANCH   1  13
TORSDOF 3
ENDMDL
MODEL 4
REMARK VINA RESULT:      -6.7      4.024      6.496
REMARK  Name = 
REMARK  3 active torsions:
REMARK  status: ('A' for Active; 'I' for Inactive)
REMARK    1  A    between atoms: C_2  and  C_9
REMARK    2  A    between atoms: C_9  and  S_10
REMARK    3  A    between atoms: S_10  and  C_13
REMARK                            x       y       z     vdW  Elec       q    Type
REMARK                         _______ _______ _______ _____ _____    ______ ____
ROOT
ATOM      1  C   UNL     1       2.609   3.625  18.951  0.00  0.00    +0.000 C 
ATOM      2  C   UNL     1       1.273   2.955  19.172  0.00  0.00    +0.000 C 
ATOM      3  C   UNL     1       2.538   2.248  19.574  0.00  0.00    +0.000 C 
ENDROOT
BRANCH   1   5
ATOM      4  O   UNL     1       2.480   3.570  16.614  0.00  0.00    +0.000 OA
ATOM      5  C   UNL     1       3.195   3.764  17.587  0.00  0.00    +0.000 C 
ATOM      6  N   UNL     1       4.538   4.060  17.594  0.00  0.00    +0.000 N 
ATOM      7  C   UNL     1       5.277   4.197  16.455  0.00  0.00    +0.000 A 
ATOM      8  N   UNL     1       4.961   3.930  15.215  0.00  0.00    +0.000 NA
ATOM      9  C   UNL     1       6.033   4.235  14.400  0.00  0.00    +0.000 A 
ATOM     10  C   UNL     1       7.149   4.731  15.042  0.00  0.00    +0.000 A 
ATOM     11  S   UNL     1       6.855   4.793  16.730  0.00  0.00    +0.000 S 
ATOM     12  H   UNL     1       5.006   4.321  18.457  0.00  0.00    +0.000 HD
ENDBRANCH   1   5
BRANCH   1  13
ATOM     13  S   UNL     1       2.990   5.002  20.051  0.00  0.00    +0.000 S 
ATOM     14  O   UNL     1       2.359   4.644  21.311  0.00  0.00    +0.000 OA
ATOM     15  O   UNL     1       4.426   5.196  19.987  0.00  0.00    +0.000 OA
BRANCH  13  16
ATOM     16  C   UNL     1       2.240   6.533  19.542  0.00  0.00    +0.000 A 
ATOM     17  C   UNL     1       1.642   7.356  20.507  0.00  0.00    +0.000 A 
ATOM     18  C   UNL     1       1.312   8.675  20.187  0.00  0.00    +0.000 A 
ATOM     19  C   UNL     1       1.593   9.175  18.915  0.00  0.00    +0.000 A 
ATOM     20 CL   UNL     1       1.268  10.825  18.555  0.00  0.00    +0.000 Cl
ATOM     21  C   UNL     1       2.177   8.356  17.949  0.00  0.00    +0.000 A 
ATOM     22  C   UNL     1       2.504   7.033  18.260  0.00  0.00    +0.000 A 
ENDBRANCH  13  16
ENDBRANCH   1  13
TORSDOF 3
ENDMDL
MODEL 5
REMARK VINA RESULT:      -6.6      3.976      5.589
REMARK  Name = 
REMARK  3 active torsions:
REMARK  status: ('A' for Active; 'I' for Inactive)
REMARK    1  A    between atoms: C_2  and  C_9
REMARK    2  A    between atoms: C_9  and  S_10
REMARK    3  A    between atoms: S_10  and  C_13
REMARK                            x       y       z     vdW  Elec       q    Type
REMARK                         _______ _______ _______ _____ _____    ______ ____
ROOT
ATOM      1  C   UNL     1       2.353   4.222  19.807  0.00  0.00    +0.000 C 
ATOM      2  C   UNL     1       2.385   3.840  21.268  0.00  0.00    +0.000 C 
ATOM      3  C   UNL     1       1.239   3.391  20.404  0.00  0.00    +0.000 C 
ENDROOT
BRANCH   1   5
ATOM      4  O   UNL     1       2.029   5.870  18.176  0.00  0.00    +0.000 OA
ATOM      5  C   UNL     1       2.051   5.616  19.372  0.00  0.00    +0.000 C 
ATOM      6  N   UNL     1       1.874   6.491  20.417  0.00  0.00    +0.000 N 
ATOM      7  C   UNL     1       1.624   7.821  20.242  0.00  0.00    +0.000 A 
ATOM      8  N   UNL     1       1.664   8.544  19.154  0.00  0.00    +0.000 NA
ATOM      9  C   UNL     1       1.328   9.847  19.464  0.00  0.00    +0.000 A 
ATOM     10  C   UNL     1       1.035  10.088  20.790  0.00  0.00    +0.000 A 
ATOM     11  S   UNL     1       1.214   8.637  21.687  0.00  0.00    +0.000 S 
ATOM     12  H   UNL     1       1.793   6.150  21.371  0.00  0.00    +0.000 HD
ENDBRANCH   1   5
BRANCH   1  13
ATOM     13  S   UNL     1       3.531   3.366  18.745  0.00  0.00    +0.000 S 
ATOM     14  O   UNL     1       4.067   2.304  19.580  0.00  0.00    +0.000 OA
ATOM     15  O   UNL     1       2.824   3.042  17.521  0.00  0.00    +0.000 OA
BRANCH  13  16
ATOM     16  C   UNL     1       4.922   4.378  18.284  0.00  0.00    +0.000 A 
ATOM     17  C   UNL     1       4.969   4.930  16.996  0.00  0.00    +0.000 A 
ATOM     18  C   UNL     1       5.881   5.948  16.709  0.00  0.00    +0.000 A 
ATOM     19  C   UNL     1       6.731   6.423  17.708  0.00  0.00    +0.000 A 
ATOM     20 CL   UNL     1       7.790   7.737  17.374  0.00  0.00    +0.000 Cl
ATOM     21  C   UNL     1       6.695   5.869  18.987  0.00  0.00    +0.000 A 
ATOM     22  C   UNL     1       5.789   4.846  19.280  0.00  0.00    +0.000 A 
ENDBRANCH  13  16
ENDBRANCH   1  13
TORSDOF 3
ENDMDL
MODEL 6
REMARK VINA RESULT:      -6.6      0.552      1.180
REMARK  Name = 
REMARK  3 active torsions:
REMARK  status: ('A' for Active; 'I' for Inactive)
REMARK    1  A    between atoms: C_2  and  C_9
REMARK    2  A    between atoms: C_9  and  S_10
REMARK    3  A    between atoms: S_10  and  C_13
REMARK                            x       y       z     vdW  Elec       q    Type
REMARK                         _______ _______ _______ _____ _____    ______ ____
ROOT
ATOM      1  C   UNL     1       6.681   5.462  18.321  0.00  0.00    +0.000 C 
ATOM      2  C   UNL     1       7.862   5.934  19.138  0.00  0.00    +0.000 C 
ATOM      3  C   UNL     1       7.887   4.568  18.509  0.00  0.00    +0.000 C 
ENDROOT
BRANCH   1   5
ATOM      4  O   UNL     1       4.966   5.749  19.889  0.00  0.00    +0.000 OA
ATOM      5  C   UNL     1       5.394   5.073  18.964  0.00  0.00    +0.000 C 
ATOM      6  N   UNL     1       4.846   3.924  18.445  0.00  0.00    +0.000 N 
ATOM      7  C   UNL     1       3.689   3.372  18.911  0.00  0.00    +0.000 A 
ATOM      8  N   UNL     1       2.987   3.673  19.972  0.00  0.00    +0.000 NA
ATOM      9  C   UNL     1       1.884   2.844  20.034  0.00  0.00    +0.000 A 
ATOM     10  C   UNL     1       1.769   1.925  19.011  0.00  0.00    +0.000 A 
ATOM     11  S   UNL     1       3.105   2.087  17.947  0.00  0.00    +0.000 S 
ATOM     12  H   UNL     1       5.221   3.509  17.596  0.00  0.00    +0.000 HD
ENDBRANCH   1   5
BRANCH   1  13
ATOM     13  S   UNL     1       6.483   6.238  16.706  0.00  0.00    +0.000 S 
ATOM     14  O   UNL     1       5.152   6.822  16.744  0.00  0.00    +0.000 OA
ATOM     15  O   UNL     1       7.643   7.086  16.510  0.00  0.00    +0.000 OA
BRANCH  13  16
ATOM     16  C   UNL     1       6.467   5.068  15.364  0.00  0.00    +0.000 A 
ATOM     17  C   UNL     1       5.365   4.216  15.213  0.00  0.00    +0.000 A 
ATOM     18  C   UNL     1       5.193   3.505  14.022  0.00  0.00    +0.000 A 
ATOM     19  C   UNL     1       6.110   3.657  12.982  0.00  0.00    +0.000 A 
ATOM     20 CL   UNL     1       5.847   2.851  11.486  0.00  0.00    +0.000 Cl
ATOM     21  C   UNL     1       7.215   4.495  13.133  0.00  0.00    +0.000 A 
ATOM     22  C   UNL     1       7.396   5.204  14.324  0.00  0.00    +0.000 A 
ENDBRANCH  13  16
ENDBRANCH   1  13
TORSDOF 3
ENDMDL
MODEL 7
REMARK VINA RESULT:      -6.6      1.291      1.357
REMARK  Name = 
REMARK  3 active torsions:
REMARK  status: ('A' for Active; 'I' for Inactive)
REMARK    1  A    between atoms: C_2  and  C_9
REMARK    2  A    between atoms: C_9  and  S_10
REMARK    3  A    between atoms: S_10  and  C_13
REMARK                            x       y       z     vdW  Elec       q    Type
REMARK                         _______ _______ _______ _____ _____    ______ ____
ROOT
ATOM      1  C   UNL     1       6.188   5.128  17.920  0.00  0.00    +0.000 C 
ATOM      2  C   UNL     1       7.061   5.674  19.025  0.00  0.00    +0.000 C 
ATOM      3  C   UNL     1       7.601   4.620  18.099  0.00  0.00    +0.000 C 
ENDROOT
BRANCH   1   5
ATOM      4  O   UNL     1       4.968   3.159  17.577  0.00  0.00    +0.000 OA
ATOM      5  C   UNL     1       5.053   4.204  18.207  0.00  0.00    +0.000 C 
ATOM      6  N   UNL     1       4.179   4.684  19.153  0.00  0.00    +0.000 N 
ATOM      7  C   UNL     1       3.056   4.014  19.539  0.00  0.00    +0.000 A 
ATOM      8  N   UNL     1       2.501   2.947  19.027  0.00  0.00    +0.000 NA
ATOM      9  C   UNL     1       1.375   2.627  19.760  0.00  0.00    +0.000 A 
ATOM     10  C   UNL     1       1.096   3.463  20.822  0.00  0.00    +0.000 A 
ATOM     11  S   UNL     1       2.272   4.710  20.889  0.00  0.00    +0.000 S 
ATOM     12  H   UNL     1       4.412   5.507  19.702  0.00  0.00    +0.000 HD
ENDBRANCH   1   5
BRANCH   1  13
ATOM     13  S   UNL     1       5.888   6.240  16.533  0.00  0.00    +0.000 S 
ATOM     14  O   UNL     1       4.488   6.610  16.660  0.00  0.00    +0.000 OA
ATOM     15  O   UNL     1       6.917   7.260  16.592  0.00  0.00    +0.000 OA
BRANCH  13  16
ATOM     16  C   UNL     1       6.044   5.442  14.949  0.00  0.00    +0.000 A 
ATOM     17  C   UNL     1       7.287   5.446  14.301  0.00  0.00    +0.000 A 
ATOM     18  C   UNL     1       7.509   4.592  13.218  0.00  0.00    +0.000 A 
ATOM     19  C   UNL     1       6.499   3.726  12.796  0.00  0.00    +0.000 A 
ATOM     20 CL   UNL     1       6.807   2.613  11.521  0.00  0.00    +0.000 Cl
ATOM     21  C   UNL     1       5.258   3.728  13.431  0.00  0.00    +0.000 A 
ATOM     22  C   UNL     1       5.027   4.584  14.511  0.00  0.00    +0.000 A 
ENDBRANCH  13  16
ENDBRANCH   1  13
TORSDOF 3
ENDMDL
MODEL 8
REMARK VINA RESULT:      -6.6      3.087      4.463
REMARK  Name = 
REMARK  3 active torsions:
REMARK  status: ('A' for Active; 'I' for Inactive)
REMARK    1  A    between atoms: C_2  and  C_9
REMARK    2  A    between atoms: C_9  and  S_10
REMARK    3  A    between atoms: S_10  and  C_13
REMARK                            x       y       z     vdW  Elec       q    Type
REMARK                         _______ _______ _______ _____ _____    ______ ____
ROOT
ATOM      1  C   UNL     1       5.380   4.869  16.531  0.00  0.00    +0.000 C 
ATOM      2  C   UNL     1       5.376   3.940  15.339  0.00  0.00    +0.000 C 
ATOM      3  C   UNL     1       5.365   5.428  15.125  0.00  0.00    +0.000 C 
ENDROOT
BRANCH   1   5
ATOM      4  O   UNL     1       3.682   6.163  17.492  0.00  0.00    +0.000 OA
ATOM      5  C   UNL     1       4.171   5.047  17.385  0.00  0.00    +0.000 C 
ATOM      6  N   UNL     1       3.765   3.892  18.010  0.00  0.00    +0.000 N 
ATOM      7  C   UNL     1       2.702   3.839  18.863  0.00  0.00    +0.000 A 
ATOM      8  N   UNL     1       1.993   4.810  19.377  0.00  0.00    +0.000 NA
ATOM      9  C   UNL     1       1.010   4.273  20.185  0.00  0.00    +0.000 A 
ATOM     10  C   UNL     1       0.991   2.896  20.266  0.00  0.00    +0.000 A 
ATOM     11  S   UNL     1       2.266   2.251  19.319  0.00  0.00    +0.000 S 
ATOM     12  H   UNL     1       4.169   2.995  17.754  0.00  0.00    +0.000 HD
ENDBRANCH   1   5
BRANCH   1  13
ATOM     13  S   UNL     1       6.934   4.978  17.438  0.00  0.00    +0.000 S 
ATOM     14  O   UNL     1       6.691   4.239  18.666  0.00  0.00    +0.000 OA
ATOM     15  O   UNL     1       7.975   4.547  16.525  0.00  0.00    +0.000 OA
BRANCH  13  16
ATOM     16  C   UNL     1       7.340   6.638  17.935  0.00  0.00    +0.000 A 
ATOM     17  C   UNL     1       8.287   6.836  18.950  0.00  0.00    +0.000 A 
ATOM     18  C   UNL     1       8.832   8.106  19.153  0.00  0.00    +0.000 A 
ATOM     19  C   UNL     1       8.445   9.170  18.337  0.00  0.00    +0.000 A 
ATOM     20 CL   UNL     1       9.185  10.710  18.533  0.00  0.00    +0.000 Cl
ATOM     21  C   UNL     1       7.494   8.979  17.335  0.00  0.00    +0.000 A 
ATOM     22  C   UNL     1       6.940   7.713  17.130  0.00  0.00    +0.000 A 
ENDBRANCH  13  16
ENDBRANCH   1  13
TORSDOF 3
ENDMDL
MODEL 9
REMARK VINA RESULT:      -6.6      3.410      4.596
REMARK  Name = 
REMARK  3 active torsions:
REMARK  status: ('A' for Active; 'I' for Inactive)
REMARK    1  A    between atoms: C_2  and  C_9
REMARK    2  A    between atoms: C_9  and  S_10
REMARK    3  A    between atoms: S_10  and  C_13
REMARK                            x       y       z     vdW  Elec       q    Type
REMARK                         _______ _______ _______ _____ _____    ______ ____
ROOT
ATOM      1  C   UNL     1       2.837   4.467  19.196  0.00  0.00    +0.000 C 
ATOM      2  C   UNL     1       2.181   3.144  19.513  0.00  0.00    +0.000 C 
ATOM      3  C   UNL     1       2.023   3.745  18.144  0.00  0.00    +0.000 C 
ENDROOT
BRANCH   1   5
ATOM      4  O   UNL     1       1.914   5.774  20.905  0.00  0.00    +0.000 OA
ATOM      5  C   UNL     1       2.315   5.749  19.749  0.00  0.00    +0.000 C 
ATOM      6  N   UNL     1       2.305   6.777  18.837  0.00  0.00    +0.000 N 
ATOM      7  C   UNL     1       1.836   8.025  19.126  0.00  0.00    +0.000 A 
ATOM      8  N   UNL     1       1.184   8.452  20.176  0.00  0.00    +0.000 NA
ATOM      9  C   UNL     1       0.921   9.800  20.027  0.00  0.00    +0.000 A 
ATOM     10  C   UNL     1       1.382  10.373  18.860  0.00  0.00    +0.000 A 
ATOM     11  S   UNL     1       2.149   9.176  17.901  0.00  0.00    +0.000 S 
ATOM     12  H   UNL     1       2.774   6.680  17.941  0.00  0.00    +0.000 HD
ENDBRANCH   1   5
BRANCH   1  13
ATOM     13  S   UNL     1       4.630   4.431  19.009  0.00  0.00    +0.000 S 
ATOM     14  O   UNL     1       5.096   5.584  19.762  0.00  0.00    +0.000 OA
ATOM     15  O   UNL     1       5.057   3.097  19.383  0.00  0.00    +0.000 OA
BRANCH  13  16
ATOM     16  C   UNL     1       5.164   4.692  17.331  0.00  0.00    +0.000 A 
ATOM     17  C   UNL     1       5.787   5.901  16.991  0.00  0.00    +0.000 A 
ATOM     18  C   UNL     1       6.469   6.015  15.777  0.00  0.00    +0.000 A 
ATOM     19  C   UNL     1       6.541   4.921  14.914  0.00  0.00    +0.000 A 
ATOM     20 CL   UNL     1       7.457   5.038  13.463  0.00  0.00    +0.000 Cl
ATOM     21  C   UNL     1       5.913   3.720  15.243  0.00  0.00    +0.000 A 
ATOM     22  C   UNL     1       5.224   3.601  16.453  0.00  0.00    +0.000 A 
ENDBRANCH  13  16
ENDBRANCH   1  13
TORSDOF 3
ENDMDL
