MODEL 1
REMARK VINA RESULT:      -8.3      0.000      0.000
REMARK  Name = 
REMARK  8 active torsions:
REMARK  status: ('A' for Active; 'I' for Inactive)
REMARK    1  A    between atoms: C_1  and  C_2
REMARK    2  A    between atoms: C_4  and  N_5
REMARK    3  A    between atoms: N_5  and  N_6
REMARK    4  A    between atoms: C_7  and  C_8
REMARK    5  A    between atoms: C_11  and  O_12
REMARK    6  A    between atoms: C_14  and  O_15
REMARK    7  A    between atoms: C_20  and  C_21
REMARK    8  A    between atoms: C_23  and  C_24
REMARK                            x       y       z     vdW  Elec       q    Type
REMARK                         _______ _______ _______ _____ _____    ______ ____
ROOT
ATOM      1  C   UNL     1       1.027   2.532  18.587  0.00  0.00    +0.000 C 
ATOM      2  C   UNL     1       1.903   3.746  18.561  0.00  0.00    +0.000 A 
ATOM      3  C   UNL     1       1.772   4.741  19.505  0.00  0.00    +0.000 A 
ATOM      4  C   UNL     1       2.671   5.792  19.459  0.00  0.00    +0.000 A 
ATOM      5  N   UNL     1       3.663   5.814  18.560  0.00  0.00    +0.000 NA
ATOM      6  C   UNL     1       3.716   4.819  17.650  0.00  0.00    +0.000 A 
ATOM      7  N   UNL     1       4.732   4.883  16.627  0.00  0.00    +0.000 N 
ATOM      8  N   UNL     1       4.795   3.951  15.625  0.00  0.00    +0.000 NA
ATOM      9  C   UNL     1       5.718   4.417  14.780  0.00  0.00    +0.000 A 
ATOM     10  C   UNL     1       5.983   3.730  13.490  0.00  0.00    +0.000 C 
ATOM     11  C   UNL     1       6.342   5.573  15.271  0.00  0.00    +0.000 A 
ATOM     12  C   UNL     1       5.726   5.846  16.473  0.00  0.00    +0.000 A 
ATOM     13  C   UNL     1       5.997   6.922  17.460  0.00  0.00    +0.000 C 
ATOM     14  N   UNL     1       2.845   3.789  17.610  0.00  0.00    +0.000 NA
ENDROOT
BRANCH   4  15
ATOM     15  N   UNL     1       2.549   6.795  20.449  0.00  0.00    +0.000 N 
ATOM     16  H   UNL     1       2.793   6.500  21.390  0.00  0.00    +0.000 HD
BRANCH  15  17
ATOM     17  N   UNL     1       1.724   7.848  20.224  0.00  0.00    +0.000 NA
ATOM     18  C   UNL     1       1.022   8.237  21.246  0.00  0.00    +0.000 C 
BRANCH  18  19
ATOM     19  C   UNL     1       0.201   9.467  21.181  0.00  0.00    +0.000 A 
ATOM     20  C   UNL     1      -0.255   9.933  19.940  0.00  0.00    +0.000 A 
ATOM     21  C   UNL     1      -1.002  11.110  19.862  0.00  0.00    +0.000 A 
ATOM     22  C   UNL     1      -1.281  11.819  21.027  0.00  0.00    +0.000 A 
ATOM     23  C   UNL     1      -0.828  11.372  22.266  0.00  0.00    +0.000 A 
ATOM     24  C   UNL     1      -0.083  10.193  22.341  0.00  0.00    +0.000 A 
BRANCH  22  25
ATOM     25  O   UNL     1      -2.002  12.974  20.998  0.00  0.00    +0.000 OA
ATOM     26  H   UNL     1      -2.730  12.875  20.361  0.00  0.00    +0.000 HD
ENDBRANCH  22  25
BRANCH  24  27
ATOM     27  O   UNL     1       0.375   9.756  23.555  0.00  0.00    +0.000 OA
ATOM     28  H   UNL     1       1.030  10.394  23.890  0.00  0.00    +0.000 HD
ENDBRANCH  24  27
ENDBRANCH  18  19
ENDBRANCH  15  17
ENDBRANCH   4  15
TORSDOF 5
ENDMDL
MODEL 2
REMARK VINA RESULT:      -8.1      3.967      9.018
REMARK  Name = 
REMARK  8 active torsions:
REMARK  status: ('A' for Active; 'I' for Inactive)
REMARK    1  A    between atoms: C_1  and  C_2
REMARK    2  A    between atoms: C_4  and  N_5
REMARK    3  A    between atoms: N_5  and  N_6
REMARK    4  A    between atoms: C_7  and  C_8
REMARK    5  A    between atoms: C_11  and  O_12
REMARK    6  A    between atoms: C_14  and  O_15
REMARK    7  A    between atoms: C_20  and  C_21
REMARK    8  A    between atoms: C_23  and  C_24
REMARK                            x       y       z     vdW  Elec       q    Type
REMARK                         _______ _______ _______ _____ _____    ______ ____
ROOT
ATOM      1  C   UNL     1      -0.015  11.631  21.892  0.00  0.00    +0.000 C 
ATOM      2  C   UNL     1      -0.237  11.234  20.466  0.00  0.00    +0.000 A 
ATOM      3  C   UNL     1       0.765  10.649  19.724  0.00  0.00    +0.000 A 
ATOM      4  C   UNL     1       0.456  10.240  18.438  0.00  0.00    +0.000 A 
ATOM      5  N   UNL     1      -0.786  10.364  17.953  0.00  0.00    +0.000 NA
ATOM      6  C   UNL     1      -1.711  10.968  18.727  0.00  0.00    +0.000 A 
ATOM      7  N   UNL     1      -3.029  11.180  18.176  0.00  0.00    +0.000 N 
ATOM      8  N   UNL     1      -3.993  11.857  18.874  0.00  0.00    +0.000 NA
ATOM      9  C   UNL     1      -4.995  12.018  18.008  0.00  0.00    +0.000 A 
ATOM     10  C   UNL     1      -6.190  12.825  18.368  0.00  0.00    +0.000 C 
ATOM     11  C   UNL     1      -4.752  11.355  16.796  0.00  0.00    +0.000 A 
ATOM     12  C   UNL     1      -3.501  10.791  16.926  0.00  0.00    +0.000 A 
ATOM     13  C   UNL     1      -2.738   9.938  15.980  0.00  0.00    +0.000 C 
ATOM     14  N   UNL     1      -1.466  11.431  19.971  0.00  0.00    +0.000 NA
ENDROOT
BRANCH   4  15
ATOM     15  N   UNL     1       1.482   9.613  17.692  0.00  0.00    +0.000 N 
ATOM     16  H   UNL     1       1.651  10.015  16.775  0.00  0.00    +0.000 HD
BRANCH  15  17
ATOM     17  N   UNL     1       1.819   8.332  17.982  0.00  0.00    +0.000 NA
ATOM     18  C   UNL     1       3.041   7.996  17.690  0.00  0.00    +0.000 C 
BRANCH  18  19
ATOM     19  C   UNL     1       3.585   6.681  18.096  0.00  0.00    +0.000 A 
ATOM     20  C   UNL     1       4.383   5.952  17.203  0.00  0.00    +0.000 A 
ATOM     21  C   UNL     1       4.875   4.696  17.562  0.00  0.00    +0.000 A 
ATOM     22  C   UNL     1       4.558   4.172  18.812  0.00  0.00    +0.000 A 
ATOM     23  C   UNL     1       3.760   4.881  19.707  0.00  0.00    +0.000 A 
ATOM     24  C   UNL     1       3.272   6.138  19.346  0.00  0.00    +0.000 A 
BRANCH  22  25
ATOM     25  O   UNL     1       5.011   2.949  19.203  0.00  0.00    +0.000 OA
ATOM     26  H   UNL     1       4.898   2.322  18.468  0.00  0.00    +0.000 HD
ENDBRANCH  22  25
BRANCH  24  27
ATOM     27  O   UNL     1       2.477   6.834  20.217  0.00  0.00    +0.000 OA
ATOM     28  H   UNL     1       2.550   7.784  20.016  0.00  0.00    +0.000 HD
ENDBRANCH  24  27
ENDBRANCH  18  19
ENDBRANCH  15  17
ENDBRANCH   4  15
TORSDOF 5
ENDMDL
MODEL 3
REMARK VINA RESULT:      -8.0      0.891      1.057
REMARK  Name = 
REMARK  8 active torsions:
REMARK  status: ('A' for Active; 'I' for Inactive)
REMARK    1  A    between atoms: C_1  and  C_2
REMARK    2  A    between atoms: C_4  and  N_5
REMARK    3  A    between atoms: N_5  and  N_6
REMARK    4  A    between atoms: C_7  and  C_8
REMARK    5  A    between atoms: C_11  and  O_12
REMARK    6  A    between atoms: C_14  and  O_15
REMARK    7  A    between atoms: C_20  and  C_21
REMARK    8  A    between atoms: C_23  and  C_24
REMARK                            x       y       z     vdW  Elec       q    Type
REMARK                         _______ _______ _______ _____ _____    ______ ____
ROOT
ATOM      1  C   UNL     1       1.070   2.544  18.615  0.00  0.00    +0.000 C 
ATOM      2  C   UNL     1       1.928   3.770  18.574  0.00  0.00    +0.000 A 
ATOM      3  C   UNL     1       1.778   4.777  19.502  0.00  0.00    +0.000 A 
ATOM      4  C   UNL     1       2.662   5.840  19.444  0.00  0.00    +0.000 A 
ATOM      5  N   UNL     1       3.658   5.863  18.548  0.00  0.00    +0.000 NA
ATOM      6  C   UNL     1       3.729   4.855  17.654  0.00  0.00    +0.000 A 
ATOM      7  N   UNL     1       4.749   4.918  16.634  0.00  0.00    +0.000 N 
ATOM      8  N   UNL     1       4.830   3.972  15.647  0.00  0.00    +0.000 NA
ATOM      9  C   UNL     1       5.750   4.438  14.799  0.00  0.00    +0.000 A 
ATOM     10  C   UNL     1       6.031   3.735  13.521  0.00  0.00    +0.000 C 
ATOM     11  C   UNL     1       6.355   5.611  15.275  0.00  0.00    +0.000 A 
ATOM     12  C   UNL     1       5.730   5.893  16.470  0.00  0.00    +0.000 A 
ATOM     13  C   UNL     1       5.981   6.987  17.441  0.00  0.00    +0.000 C 
ATOM     14  N   UNL     1       2.873   3.812  17.626  0.00  0.00    +0.000 NA
ENDROOT
BRANCH   4  15
ATOM     15  N   UNL     1       2.522   6.856  20.418  0.00  0.00    +0.000 N 
ATOM     16  H   UNL     1       3.040   6.701  21.278  0.00  0.00    +0.000 HD
BRANCH  15  17
ATOM     17  N   UNL     1       1.430   7.660  20.379  0.00  0.00    +0.000 NA
ATOM     18  C   UNL     1       1.637   8.863  19.930  0.00  0.00    +0.000 C 
BRANCH  18  19
ATOM     19  C   UNL     1       0.507   9.789  19.689  0.00  0.00    +0.000 A 
ATOM     20  C   UNL     1      -0.063   9.873  18.411  0.00  0.00    +0.000 A 
ATOM     21  C   UNL     1      -1.107  10.766  18.164  0.00  0.00    +0.000 A 
ATOM     22  C   UNL     1      -1.570  11.577  19.197  0.00  0.00    +0.000 A 
ATOM     23  C   UNL     1      -1.009  11.509  20.470  0.00  0.00    +0.000 A 
ATOM     24  C   UNL     1       0.034  10.613  20.715  0.00  0.00    +0.000 A 
BRANCH  22  25
ATOM     25  O   UNL     1      -2.582  12.466  19.000  0.00  0.00    +0.000 OA
ATOM     26  H   UNL     1      -2.625  12.690  18.055  0.00  0.00    +0.000 HD
ENDBRANCH  22  25
BRANCH  24  27
ATOM     27  O   UNL     1       0.597  10.551  21.961  0.00  0.00    +0.000 OA
ATOM     28  H   UNL     1      -0.111  10.604  22.627  0.00  0.00    +0.000 HD
ENDBRANCH  24  27
ENDBRANCH  18  19
ENDBRANCH  15  17
ENDBRANCH   4  15
TORSDOF 5
ENDMDL
MODEL 4
REMARK VINA RESULT:      -7.9      0.962      1.344
REMARK  Name = 
REMARK  8 active torsions:
REMARK  status: ('A' for Active; 'I' for Inactive)
REMARK    1  A    between atoms: C_1  and  C_2
REMARK    2  A    between atoms: C_4  and  N_5
REMARK    3  A    between atoms: N_5  and  N_6
REMARK    4  A    between atoms: C_7  and  C_8
REMARK    5  A    between atoms: C_11  and  O_12
REMARK    6  A    between atoms: C_14  and  O_15
REMARK    7  A    between atoms: C_20  and  C_21
REMARK    8  A    between atoms: C_23  and  C_24
REMARK                            x       y       z     vdW  Elec       q    Type
REMARK                         _______ _______ _______ _____ _____    ______ ____
ROOT
ATOM      1  C   UNL     1       1.064   2.346  18.602  0.00  0.00    +0.000 C 
ATOM      2  C   UNL     1       1.916   3.577  18.607  0.00  0.00    +0.000 A 
ATOM      3  C   UNL     1       1.775   4.539  19.582  0.00  0.00    +0.000 A 
ATOM      4  C   UNL     1       2.653   5.608  19.560  0.00  0.00    +0.000 A 
ATOM      5  N   UNL     1       3.636   5.677  18.653  0.00  0.00    +0.000 NA
ATOM      6  C   UNL     1       3.699   4.712  17.713  0.00  0.00    +0.000 A 
ATOM      7  N   UNL     1       4.704   4.827  16.683  0.00  0.00    +0.000 N 
ATOM      8  N   UNL     1       4.776   3.928  15.653  0.00  0.00    +0.000 NA
ATOM      9  C   UNL     1       5.682   4.437  14.815  0.00  0.00    +0.000 A 
ATOM     10  C   UNL     1       5.948   3.794  13.502  0.00  0.00    +0.000 C 
ATOM     11  C   UNL     1       6.289   5.589  15.335  0.00  0.00    +0.000 A 
ATOM     12  C   UNL     1       5.679   5.813  16.551  0.00  0.00    +0.000 A 
ATOM     13  C   UNL     1       5.939   6.863  17.567  0.00  0.00    +0.000 C 
ATOM     14  N   UNL     1       2.848   3.667  17.648  0.00  0.00    +0.000 NA
ENDROOT
BRANCH   4  15
ATOM     15  N   UNL     1       2.522   6.578  20.582  0.00  0.00    +0.000 N 
ATOM     16  H   UNL     1       2.935   6.320  21.473  0.00  0.00    +0.000 HD
BRANCH  15  17
ATOM     17  N   UNL     1       1.525   7.495  20.497  0.00  0.00    +0.000 NA
ATOM     18  C   UNL     1       1.499   8.382  21.447  0.00  0.00    +0.000 C 
BRANCH  18  19
ATOM     19  C   UNL     1       0.564   9.528  21.391  0.00  0.00    +0.000 A 
ATOM     20  C   UNL     1      -0.136   9.911  22.544  0.00  0.00    +0.000 A 
ATOM     21  C   UNL     1      -1.045  10.969  22.496  0.00  0.00    +0.000 A 
ATOM     22  C   UNL     1      -1.255  11.633  21.290  0.00  0.00    +0.000 A 
ATOM     23  C   UNL     1      -0.572  11.259  20.135  0.00  0.00    +0.000 A 
ATOM     24  C   UNL     1       0.338  10.201  20.187  0.00  0.00    +0.000 A 
BRANCH  22  25
ATOM     25  O   UNL     1      -2.136  12.668  21.195  0.00  0.00    +0.000 OA
ATOM     26  H   UNL     1      -1.742  13.455  21.608  0.00  0.00    +0.000 HD
ENDBRANCH  22  25
BRANCH  24  27
ATOM     27  O   UNL     1       1.002   9.822  19.052  0.00  0.00    +0.000 OA
ATOM     28  H   UNL     1       0.381   9.847  18.303  0.00  0.00    +0.000 HD
ENDBRANCH  24  27
ENDBRANCH  18  19
ENDBRANCH  15  17
ENDBRANCH   4  15
TORSDOF 5
ENDMDL
MODEL 5
REMARK VINA RESULT:      -7.8      4.127      8.984
REMARK  Name = 
REMARK  8 active torsions:
REMARK  status: ('A' for Active; 'I' for Inactive)
REMARK    1  A    between atoms: C_1  and  C_2
REMARK    2  A    between atoms: C_4  and  N_5
REMARK    3  A    between atoms: N_5  and  N_6
REMARK    4  A    between atoms: C_7  and  C_8
REMARK    5  A    between atoms: C_11  and  O_12
REMARK    6  A    between atoms: C_14  and  O_15
REMARK    7  A    between atoms: C_20  and  C_21
REMARK    8  A    between atoms: C_23  and  C_24
REMARK                            x       y       z     vdW  Elec       q    Type
REMARK                         _______ _______ _______ _____ _____    ______ ____
ROOT
ATOM      1  C   UNL     1      -0.075  11.036  21.940  0.00  0.00    +0.000 C 
ATOM      2  C   UNL     1      -0.227  10.798  20.470  0.00  0.00    +0.000 A 
ATOM      3  C   UNL     1       0.810  10.293  19.717  0.00  0.00    +0.000 A 
ATOM      4  C   UNL     1       0.563  10.029  18.381  0.00  0.00    +0.000 A 
ATOM      5  N   UNL     1      -0.654  10.211  17.854  0.00  0.00    +0.000 NA
ATOM      6  C   UNL     1      -1.616  10.732  18.644  0.00  0.00    +0.000 A 
ATOM      7  N   UNL     1      -2.905  11.010  18.057  0.00  0.00    +0.000 N 
ATOM      8  N   UNL     1      -3.902  11.612  18.778  0.00  0.00    +0.000 NA
ATOM      9  C   UNL     1      -4.861  11.872  17.887  0.00  0.00    +0.000 A 
ATOM     10  C   UNL     1      -6.071  12.642  18.276  0.00  0.00    +0.000 C 
ATOM     11  C   UNL     1      -4.560  11.346  16.622  0.00  0.00    +0.000 A 
ATOM     12  C   UNL     1      -3.317  10.764  16.750  0.00  0.00    +0.000 A 
ATOM     13  C   UNL     1      -2.509  10.016  15.754  0.00  0.00    +0.000 C 
ATOM     14  N   UNL     1      -1.431  11.055  19.941  0.00  0.00    +0.000 NA
ENDROOT
BRANCH   4  15
ATOM     15  N   UNL     1       1.623   9.482  17.621  0.00  0.00    +0.000 N 
ATOM     16  H   UNL     1       1.527   9.585  16.615  0.00  0.00    +0.000 HD
BRANCH  15  17
ATOM     17  N   UNL     1       2.392   8.507  18.167  0.00  0.00    +0.000 NA
ATOM     18  C   UNL     1       2.055   7.289  17.857  0.00  0.00    +0.000 C 
BRANCH  18  19
ATOM     19  C   UNL     1       2.900   6.142  18.257  0.00  0.00    +0.000 A 
ATOM     20  C   UNL     1       2.373   5.147  19.092  0.00  0.00    +0.000 A 
ATOM     21  C   UNL     1       3.170   4.077  19.502  0.00  0.00    +0.000 A 
ATOM     22  C   UNL     1       4.496   4.014  19.080  0.00  0.00    +0.000 A 
ATOM     23  C   UNL     1       5.035   4.999  18.256  0.00  0.00    +0.000 A 
ATOM     24  C   UNL     1       4.235   6.067  17.846  0.00  0.00    +0.000 A 
BRANCH  22  25
ATOM     25  O   UNL     1       5.311   2.991  19.460  0.00  0.00    +0.000 OA
ATOM     26  H   UNL     1       6.162   3.079  18.997  0.00  0.00    +0.000 HD
ENDBRANCH  22  25
BRANCH  24  27
ATOM     27  O   UNL     1       4.764   7.043  17.046  0.00  0.00    +0.000 OA
ATOM     28  H   UNL     1       5.053   6.639  16.209  0.00  0.00    +0.000 HD
ENDBRANCH  24  27
ENDBRANCH  18  19
ENDBRANCH  15  17
ENDBRANCH   4  15
TORSDOF 5
ENDMDL
MODEL 6
REMARK VINA RESULT:      -7.7      3.497      9.072
REMARK  Name = 
REMARK  8 active torsions:
REMARK  status: ('A' for Active; 'I' for Inactive)
REMARK    1  A    between atoms: C_1  and  C_2
REMARK    2  A    between atoms: C_4  and  N_5
REMARK    3  A    between atoms: N_5  and  N_6
REMARK    4  A    between atoms: C_7  and  C_8
REMARK    5  A    between atoms: C_11  and  O_12
REMARK    6  A    between atoms: C_14  and  O_15
REMARK    7  A    between atoms: C_20  and  C_21
REMARK    8  A    between atoms: C_23  and  C_24
REMARK                            x       y       z     vdW  Elec       q    Type
REMARK                         _______ _______ _______ _____ _____    ______ ____
ROOT
ATOM      1  C   UNL     1       2.929  13.936  18.172  0.00  0.00    +0.000 C 
ATOM      2  C   UNL     1       2.219  12.692  18.606  0.00  0.00    +0.000 A 
ATOM      3  C   UNL     1       2.366  11.508  17.916  0.00  0.00    +0.000 A 
ATOM      4  C   UNL     1       1.740  10.386  18.428  0.00  0.00    +0.000 A 
ATOM      5  N   UNL     1       1.057  10.439  19.579  0.00  0.00    +0.000 NA
ATOM      6  C   UNL     1       0.934  11.637  20.187  0.00  0.00    +0.000 A 
ATOM      7  N   UNL     1       0.127  11.715  21.383  0.00  0.00    +0.000 N 
ATOM      8  N   UNL     1      -0.107  12.911  22.008  0.00  0.00    +0.000 NA
ATOM      9  C   UNL     1      -1.016  12.636  22.945  0.00  0.00    +0.000 A 
ATOM     10  C   UNL     1      -1.618  13.721  23.762  0.00  0.00    +0.000 C 
ATOM     11  C   UNL     1      -1.292  11.263  23.023  0.00  0.00    +0.000 A 
ATOM     12  C   UNL     1      -0.527  10.675  22.038  0.00  0.00    +0.000 A 
ATOM     13  C   UNL     1      -0.376   9.243  21.677  0.00  0.00    +0.000 C 
ATOM     14  N   UNL     1       1.480  12.779  19.720  0.00  0.00    +0.000 NA
ENDROOT
BRANCH   4  15
ATOM     15  N   UNL     1       1.919   9.168  17.731  0.00  0.00    +0.000 N 
ATOM     16  H   UNL     1       1.299   9.032  16.938  0.00  0.00    +0.000 HD
BRANCH  15  17
ATOM     17  N   UNL     1       2.497   8.121  18.372  0.00  0.00    +0.000 NA
ATOM     18  C   UNL     1       2.417   6.977  17.758  0.00  0.00    +0.000 C 
BRANCH  18  19
ATOM     19  C   UNL     1       3.138   5.789  18.268  0.00  0.00    +0.000 A 
ATOM     20  C   UNL     1       3.863   4.981  17.381  0.00  0.00    +0.000 A 
ATOM     21  C   UNL     1       4.519   3.840  17.845  0.00  0.00    +0.000 A 
ATOM     22  C   UNL     1       4.440   3.509  19.195  0.00  0.00    +0.000 A 
ATOM     23  C   UNL     1       3.717   4.298  20.087  0.00  0.00    +0.000 A 
ATOM     24  C   UNL     1       3.063   5.441  19.620  0.00  0.00    +0.000 A 
BRANCH  22  25
ATOM     25  O   UNL     1       5.060   2.403  19.691  0.00  0.00    +0.000 OA
ATOM     26  H   UNL     1       4.625   1.611  19.332  0.00  0.00    +0.000 HD
ENDBRANCH  22  25
BRANCH  24  27
ATOM     27  O   UNL     1       2.342   6.212  20.490  0.00  0.00    +0.000 OA
ATOM     28  H   UNL     1       1.698   6.737  19.983  0.00  0.00    +0.000 HD
ENDBRANCH  24  27
ENDBRANCH  18  19
ENDBRANCH  15  17
ENDBRANCH   4  15
TORSDOF 5
ENDMDL
MODEL 7
REMARK VINA RESULT:      -7.6      3.752      9.123
REMARK  Name = 
REMARK  8 active torsions:
REMARK  status: ('A' for Active; 'I' for Inactive)
REMARK    1  A    between atoms: C_1  and  C_2
REMARK    2  A    between atoms: C_4  and  N_5
REMARK    3  A    between atoms: N_5  and  N_6
REMARK    4  A    between atoms: C_7  and  C_8
REMARK    5  A    between atoms: C_11  and  O_12
REMARK    6  A    between atoms: C_14  and  O_15
REMARK    7  A    between atoms: C_20  and  C_21
REMARK    8  A    between atoms: C_23  and  C_24
REMARK                            x       y       z     vdW  Elec       q    Type
REMARK                         _______ _______ _______ _____ _____    ______ ____
ROOT
ATOM      1  C   UNL     1       2.971  13.886  18.164  0.00  0.00    +0.000 C 
ATOM      2  C   UNL     1       2.262  12.632  18.573  0.00  0.00    +0.000 A 
ATOM      3  C   UNL     1       2.411  11.463  17.860  0.00  0.00    +0.000 A 
ATOM      4  C   UNL     1       1.784  10.330  18.348  0.00  0.00    +0.000 A 
ATOM      5  N   UNL     1       1.100  10.359  19.498  0.00  0.00    +0.000 NA
ATOM      6  C   UNL     1       0.975  11.545  20.131  0.00  0.00    +0.000 A 
ATOM      7  N   UNL     1       0.167  11.598  21.326  0.00  0.00    +0.000 N 
ATOM      8  N   UNL     1      -0.068  12.781  21.976  0.00  0.00    +0.000 NA
ATOM      9  C   UNL     1      -0.979  12.487  22.906  0.00  0.00    +0.000 A 
ATOM     10  C   UNL     1      -1.582  13.555  23.744  0.00  0.00    +0.000 C 
ATOM     11  C   UNL     1      -1.254  11.112  22.955  0.00  0.00    +0.000 A 
ATOM     12  C   UNL     1      -0.487  10.545  21.960  0.00  0.00    +0.000 A 
ATOM     13  C   UNL     1      -0.334   9.120  21.571  0.00  0.00    +0.000 C 
ATOM     14  N   UNL     1       1.521  12.696  19.687  0.00  0.00    +0.000 NA
ENDROOT
BRANCH   4  15
ATOM     15  N   UNL     1       1.966   9.127  17.627  0.00  0.00    +0.000 N 
ATOM     16  H   UNL     1       1.256   8.935  16.926  0.00  0.00    +0.000 HD
BRANCH  15  17
ATOM     17  N   UNL     1       2.710   8.135  18.176  0.00  0.00    +0.000 NA
ATOM     18  C   UNL     1       2.184   6.946  18.125  0.00  0.00    +0.000 C 
BRANCH  18  19
ATOM     19  C   UNL     1       2.955   5.755  18.545  0.00  0.00    +0.000 A 
ATOM     20  C   UNL     1       2.450   4.918  19.550  0.00  0.00    +0.000 A 
ATOM     21  C   UNL     1       3.183   3.810  19.978  0.00  0.00    +0.000 A 
ATOM     22  C   UNL     1       4.424   3.551  19.402  0.00  0.00    +0.000 A 
ATOM     23  C   UNL     1       4.942   4.377  18.408  0.00  0.00    +0.000 A 
ATOM     24  C   UNL     1       4.205   5.484  17.981  0.00  0.00    +0.000 A 
BRANCH  22  25
ATOM     25  O   UNL     1       5.176   2.484  19.792  0.00  0.00    +0.000 OA
ATOM     26  H   UNL     1       5.031   1.752  19.169  0.00  0.00    +0.000 HD
ENDBRANCH  22  25
BRANCH  24  27
ATOM     27  O   UNL     1       4.716   6.306  17.013  0.00  0.00    +0.000 OA
ATOM     28  H   UNL     1       4.147   7.093  16.939  0.00  0.00    +0.000 HD
ENDBRANCH  24  27
ENDBRANCH  18  19
ENDBRANCH  15  17
ENDBRANCH   4  15
TORSDOF 5
ENDMDL
MODEL 8
REMARK VINA RESULT:      -7.5      4.075      8.896
REMARK  Name = 
REMARK  8 active torsions:
REMARK  status: ('A' for Active; 'I' for Inactive)
REMARK    1  A    between atoms: C_1  and  C_2
REMARK    2  A    between atoms: C_4  and  N_5
REMARK    3  A    between atoms: N_5  and  N_6
REMARK    4  A    between atoms: C_7  and  C_8
REMARK    5  A    between atoms: C_11  and  O_12
REMARK    6  A    between atoms: C_14  and  O_15
REMARK    7  A    between atoms: C_20  and  C_21
REMARK    8  A    between atoms: C_23  and  C_24
REMARK                            x       y       z     vdW  Elec       q    Type
REMARK                         _______ _______ _______ _____ _____    ______ ____
ROOT
ATOM      1  C   UNL     1      -0.204  11.768  21.918  0.00  0.00    +0.000 C 
ATOM      2  C   UNL     1      -0.353  11.345  20.489  0.00  0.00    +0.000 A 
ATOM      3  C   UNL     1       0.698  10.784  19.798  0.00  0.00    +0.000 A 
ATOM      4  C   UNL     1       0.456  10.348  18.507  0.00  0.00    +0.000 A 
ATOM      5  N   UNL     1      -0.767  10.425  17.968  0.00  0.00    +0.000 NA
ATOM      6  C   UNL     1      -1.743  11.010  18.695  0.00  0.00    +0.000 A 
ATOM      7  N   UNL     1      -3.042  11.172  18.086  0.00  0.00    +0.000 N 
ATOM      8  N   UNL     1      -4.057  11.826  18.733  0.00  0.00    +0.000 NA
ATOM      9  C   UNL     1      -5.026  11.943  17.823  0.00  0.00    +0.000 A 
ATOM     10  C   UNL     1      -6.259  12.716  18.122  0.00  0.00    +0.000 C 
ATOM     11  C   UNL     1      -4.711  11.274  16.632  0.00  0.00    +0.000 A 
ATOM     12  C   UNL     1      -3.449  10.752  16.822  0.00  0.00    +0.000 A 
ATOM     13  C   UNL     1      -2.620   9.912  15.921  0.00  0.00    +0.000 C 
ATOM     14  N   UNL     1      -1.566  11.496  19.941  0.00  0.00    +0.000 NA
ENDROOT
BRANCH   4  15
ATOM     15  N   UNL     1       1.532   9.745  17.813  0.00  0.00    +0.000 N 
ATOM     16  H   UNL     1       1.884  10.277  17.023  0.00  0.00    +0.000 HD
BRANCH  15  17
ATOM     17  N   UNL     1       1.704   8.403  17.903  0.00  0.00    +0.000 NA
ATOM     18  C   UNL     1       2.307   7.987  18.978  0.00  0.00    +0.000 C 
BRANCH  18  19
ATOM     19  C   UNL     1       2.420   6.542  19.274  0.00  0.00    +0.000 A 
ATOM     20  C   UNL     1       1.793   6.014  20.411  0.00  0.00    +0.000 A 
ATOM     21  C   UNL     1       1.920   4.658  20.720  0.00  0.00    +0.000 A 
ATOM     22  C   UNL     1       2.682   3.839  19.890  0.00  0.00    +0.000 A 
ATOM     23  C   UNL     1       3.316   4.351  18.761  0.00  0.00    +0.000 A 
ATOM     24  C   UNL     1       3.186   5.707  18.455  0.00  0.00    +0.000 A 
BRANCH  22  25
ATOM     25  O   UNL     1       2.837   2.512  20.155  0.00  0.00    +0.000 OA
ATOM     26  H   UNL     1       2.913   2.030  19.314  0.00  0.00    +0.000 HD
ENDBRANCH  22  25
BRANCH  24  27
ATOM     27  O   UNL     1       3.818   6.217  17.353  0.00  0.00    +0.000 OA
ATOM     28  H   UNL     1       3.961   5.497  16.713  0.00  0.00    +0.000 HD
ENDBRANCH  24  27
ENDBRANCH  18  19
ENDBRANCH  15  17
ENDBRANCH   4  15
TORSDOF 5
ENDMDL
MODEL 9
REMARK VINA RESULT:      -7.5      1.572      1.988
REMARK  Name = 
REMARK  8 active torsions:
REMARK  status: ('A' for Active; 'I' for Inactive)
REMARK    1  A    between atoms: C_1  and  C_2
REMARK    2  A    between atoms: C_4  and  N_5
REMARK    3  A    between atoms: N_5  and  N_6
REMARK    4  A    between atoms: C_7  and  C_8
REMARK    5  A    between atoms: C_11  and  O_12
REMARK    6  A    between atoms: C_14  and  O_15
REMARK    7  A    between atoms: C_20  and  C_21
REMARK    8  A    between atoms: C_23  and  C_24
REMARK                            x       y       z     vdW  Elec       q    Type
REMARK                         _______ _______ _______ _____ _____    ______ ____
ROOT
ATOM      1  C   UNL     1       1.220   3.036  20.368  0.00  0.00    +0.000 C 
ATOM      2  C   UNL     1       1.841   4.314  19.897  0.00  0.00    +0.000 A 
ATOM      3  C   UNL     1       1.568   5.513  20.518  0.00  0.00    +0.000 A 
ATOM      4  C   UNL     1       2.243   6.636  20.072  0.00  0.00    +0.000 A 
ATOM      5  N   UNL     1       3.164   6.549  19.104  0.00  0.00    +0.000 NA
ATOM      6  C   UNL     1       3.363   5.348  18.524  0.00  0.00    +0.000 A 
ATOM      7  N   UNL     1       4.294   5.267  17.423  0.00  0.00    +0.000 N 
ATOM      8  N   UNL     1       4.486   4.098  16.736  0.00  0.00    +0.000 NA
ATOM      9  C   UNL     1       5.256   4.432  15.699  0.00  0.00    +0.000 A 
ATOM     10  C   UNL     1       5.584   3.438  14.644  0.00  0.00    +0.000 C 
ATOM     11  C   UNL     1       5.669   5.771  15.761  0.00  0.00    +0.000 A 
ATOM     12  C   UNL     1       5.073   6.290  16.891  0.00  0.00    +0.000 A 
ATOM     13  C   UNL     1       5.180   7.646  17.486  0.00  0.00    +0.000 C 
ATOM     14  N   UNL     1       2.707   4.222  18.879  0.00  0.00    +0.000 NA
ENDROOT
BRANCH   4  15
ATOM     15  N   UNL     1       1.979   7.857  20.734  0.00  0.00    +0.000 N 
ATOM     16  H   UNL     1       2.475   7.985  21.612  0.00  0.00    +0.000 HD
BRANCH  15  17
ATOM     17  N   UNL     1       0.825   8.518  20.464  0.00  0.00    +0.000 NA
ATOM     18  C   UNL     1       0.906   9.429  19.540  0.00  0.00    +0.000 C 
BRANCH  18  19
ATOM     19  C   UNL     1      -0.307  10.114  19.040  0.00  0.00    +0.000 A 
ATOM     20  C   UNL     1      -0.774   9.846  17.745  0.00  0.00    +0.000 A 
ATOM     21  C   UNL     1      -1.898  10.509  17.251  0.00  0.00    +0.000 A 
ATOM     22  C   UNL     1      -2.545  11.445  18.053  0.00  0.00    +0.000 A 
ATOM     23  C   UNL     1      -2.089  11.727  19.339  0.00  0.00    +0.000 A 
ATOM     24  C   UNL     1      -0.965  11.060  19.831  0.00  0.00    +0.000 A 
BRANCH  22  25
ATOM     25  O   UNL     1      -3.642  12.120  17.610  0.00  0.00    +0.000 OA
ATOM     26  H   UNL     1      -3.792  12.889  18.186  0.00  0.00    +0.000 HD
ENDBRANCH  22  25
BRANCH  24  27
ATOM     27  O   UNL     1      -0.505  11.343  21.089  0.00  0.00    +0.000 OA
ATOM     28  H   UNL     1       0.161  10.678  21.335  0.00  0.00    +0.000 HD
ENDBRANCH  24  27
ENDBRANCH  18  19
ENDBRANCH  15  17
ENDBRANCH   4  15
TORSDOF 5
ENDMDL
