MODEL 1
REMARK VINA RESULT:      -9.3      0.000      0.000
REMARK  Name = 
REMARK  10 active torsions:
REMARK  status: ('A' for Active; 'I' for Inactive)
REMARK    1  A    between atoms: C_1  and  C_2
REMARK    2  A    between atoms: C_2  and  C_3
REMARK    3  A    between atoms: C_2  and  C_4
REMARK    4  A    between atoms: C_2  and  C_5
REMARK    5  A    between atoms: C_8  and  C_9
REMARK    6  A    between atoms: C_9  and  N_10
REMARK    7  A    between atoms: C_12  and  C_13
REMARK    8  A    between atoms: C_13  and  O_14
REMARK    9  A    between atoms: O_14  and  C_15
REMARK   10  A    between atoms: C_20  and  C_21
REMARK                            x       y       z     vdW  Elec       q    Type
REMARK                         _______ _______ _______ _____ _____    ______ ____
ROOT
ATOM      1  N   UNL     1       7.008   6.269  17.160  0.00  0.00    +0.000 N 
ATOM      2  N   UNL     1       6.997   7.620  16.900  0.00  0.00    +0.000 NA
ATOM      3  C   UNL     1       7.798   8.089  17.811  0.00  0.00    +0.000 A 
ATOM      4  O   UNL     1       8.302   7.183  18.678  0.00  0.00    +0.000 OA
ATOM      5  C   UNL     1       7.767   5.995  18.270  0.00  0.00    +0.000 A 
ATOM      6  O   UNL     1       7.946   4.926  18.829  0.00  0.00    +0.000 OA
ENDROOT
BRANCH   1   7
ATOM      7  C   UNL     1       6.137   5.314  16.503  0.00  0.00    +0.000 C 
BRANCH   7  11
ATOM      8  C   UNL     1       2.810   3.937  18.978  0.00  0.00    +0.000 A 
ATOM      9  C   UNL     1       3.890   3.094  18.673  0.00  0.00    +0.000 A 
ATOM     10  C   UNL     1       4.958   3.529  17.870  0.00  0.00    +0.000 A 
ATOM     11  C   UNL     1       4.982   4.828  17.347  0.00  0.00    +0.000 A 
ATOM     12  C   UNL     1       3.915   5.677  17.647  0.00  0.00    +0.000 A 
ATOM     13  C   UNL     1       2.854   5.242  18.453  0.00  0.00    +0.000 A 
BRANCH   8  15
ATOM     14  C   UNL     1       0.784   4.647  20.425  0.00  0.00    +0.000 C 
ATOM     15  C   UNL     1       1.598   3.483  19.816  0.00  0.00    +0.000 C 
ATOM     16  C   UNL     1       2.092   2.607  20.990  0.00  0.00    +0.000 C 
ATOM     17  C   UNL     1       0.622   2.653  18.953  0.00  0.00    +0.000 C 
ENDBRANCH   8  15
ENDBRANCH   7  11
ENDBRANCH   1   7
BRANCH   3  18
ATOM     18  C   UNL     1       8.226   9.518  18.013  0.00  0.00    +0.000 C 
BRANCH  18  19
ATOM     19  O   UNL     1       9.196   9.591  19.055  0.00  0.00    +0.000 OA
BRANCH  19  20
ATOM     20  C   UNL     1       9.596  10.832  19.486  0.00  0.00    +0.000 A 
ATOM     21  C   UNL     1       9.366  11.048  20.850  0.00  0.00    +0.000 A 
ATOM     22  C   UNL     1       9.706  12.262  21.446  0.00  0.00    +0.000 A 
ATOM     23  C   UNL     1      10.274  13.275  20.676  0.00  0.00    +0.000 A 
ATOM     24  F   UNL     1      10.577  14.426  21.299  0.00  0.00    +0.000 F 
ATOM     25  C   UNL     1      10.519  13.096  19.313  0.00  0.00    +0.000 A 
ATOM     26  C   UNL     1      10.180  11.860  18.729  0.00  0.00    +0.000 A 
ATOM     27  F   UNL     1      10.417  11.656  17.424  0.00  0.00    +0.000 F 
BRANCH  25  28
ATOM     28  C   UNL     1      11.115  14.178  18.481  0.00  0.00    +0.000 C 
ATOM     29  N   UNL     1      10.280  15.121  17.947  0.00  0.00    +0.000 N 
ATOM     30  O   UNL     1      12.316  14.248  18.260  0.00  0.00    +0.000 OA
ATOM     31  H   UNL     1       9.280  15.139  18.089  0.00  0.00    +0.000 HD
ATOM     32  H   UNL     1      10.696  15.849  17.377  0.00  0.00    +0.000 HD
ENDBRANCH  25  28
ENDBRANCH  19  20
ENDBRANCH  18  19
ENDBRANCH   3  18
TORSDOF 7
ENDMDL
MODEL 2
REMARK VINA RESULT:      -9.3      1.221      1.233
REMARK  Name = 
REMARK  10 active torsions:
REMARK  status: ('A' for Active; 'I' for Inactive)
REMARK    1  A    between atoms: C_1  and  C_2
REMARK    2  A    between atoms: C_2  and  C_3
REMARK    3  A    between atoms: C_2  and  C_4
REMARK    4  A    between atoms: C_2  and  C_5
REMARK    5  A    between atoms: C_8  and  C_9
REMARK    6  A    between atoms: C_9  and  N_10
REMARK    7  A    between atoms: C_12  and  C_13
REMARK    8  A    between atoms: C_13  and  O_14
REMARK    9  A    between atoms: O_14  and  C_15
REMARK   10  A    between atoms: C_20  and  C_21
REMARK                            x       y       z     vdW  Elec       q    Type
REMARK                         _______ _______ _______ _____ _____    ______ ____
ROOT
ATOM      1  N   UNL     1       7.332   6.031  17.495  0.00  0.00    +0.000 N 
ATOM      2  N   UNL     1       7.232   7.267  16.898  0.00  0.00    +0.000 NA
ATOM      3  C   UNL     1       7.887   8.030  17.721  0.00  0.00    +0.000 A 
ATOM      4  O   UNL     1       8.371   7.427  18.829  0.00  0.00    +0.000 OA
ATOM      5  C   UNL     1       7.988   6.124  18.696  0.00  0.00    +0.000 A 
ATOM      6  O   UNL     1       8.198   5.252  19.522  0.00  0.00    +0.000 OA
ENDROOT
BRANCH   1   7
ATOM      7  C   UNL     1       6.622   4.853  17.034  0.00  0.00    +0.000 C 
BRANCH   7  11
ATOM      8  C   UNL     1       2.991   3.960  19.294  0.00  0.00    +0.000 A 
ATOM      9  C   UNL     1       4.199   3.294  19.560  0.00  0.00    +0.000 A 
ATOM     10  C   UNL     1       5.367   3.572  18.830  0.00  0.00    +0.000 A 
ATOM     11  C   UNL     1       5.366   4.529  17.809  0.00  0.00    +0.000 A 
ATOM     12  C   UNL     1       4.172   5.201  17.538  0.00  0.00    +0.000 A 
ATOM     13  C   UNL     1       3.010   4.926  18.272  0.00  0.00    +0.000 A 
BRANCH   8  15
ATOM     14  C   UNL     1       0.867   4.908  20.429  0.00  0.00    +0.000 C 
ATOM     15  C   UNL     1       1.678   3.651  20.041  0.00  0.00    +0.000 C 
ATOM     16  C   UNL     1       2.003   2.895  21.349  0.00  0.00    +0.000 C 
ATOM     17  C   UNL     1       0.755   2.768  19.172  0.00  0.00    +0.000 C 
ENDBRANCH   8  15
ENDBRANCH   7  11
ENDBRANCH   1   7
BRANCH   3  18
ATOM     18  C   UNL     1       8.166   9.504  17.586  0.00  0.00    +0.000 C 
BRANCH  18  19
ATOM     19  O   UNL     1       8.511  10.051  18.856  0.00  0.00    +0.000 OA
BRANCH  19  20
ATOM     20  C   UNL     1       9.401  11.096  18.895  0.00  0.00    +0.000 A 
ATOM     21  C   UNL     1      10.424  10.923  19.835  0.00  0.00    +0.000 A 
ATOM     22  C   UNL     1      11.404  11.899  20.007  0.00  0.00    +0.000 A 
ATOM     23  C   UNL     1      11.366  13.061  19.240  0.00  0.00    +0.000 A 
ATOM     24  F   UNL     1      12.332  13.971  19.450  0.00  0.00    +0.000 F 
ATOM     25  C   UNL     1      10.362  13.269  18.291  0.00  0.00    +0.000 A 
ATOM     26  C   UNL     1       9.384  12.270  18.122  0.00  0.00    +0.000 A 
ATOM     27  F   UNL     1       8.416  12.436  17.209  0.00  0.00    +0.000 F 
BRANCH  25  28
ATOM     28  C   UNL     1      10.307  14.514  17.477  0.00  0.00    +0.000 C 
ATOM     29  N   UNL     1      11.091  14.595  16.359  0.00  0.00    +0.000 N 
ATOM     30  O   UNL     1       9.591  15.461  17.775  0.00  0.00    +0.000 OA
ATOM     31  H   UNL     1      11.701  13.855  16.039  0.00  0.00    +0.000 HD
ATOM     32  H   UNL     1      11.049  15.450  15.816  0.00  0.00    +0.000 HD
ENDBRANCH  25  28
ENDBRANCH  19  20
ENDBRANCH  18  19
ENDBRANCH   3  18
TORSDOF 7
ENDMDL
MODEL 3
REMARK VINA RESULT:      -8.8      1.662      1.801
REMARK  Name = 
REMARK  10 active torsions:
REMARK  status: ('A' for Active; 'I' for Inactive)
REMARK    1  A    between atoms: C_1  and  C_2
REMARK    2  A    between atoms: C_2  and  C_3
REMARK    3  A    between atoms: C_2  and  C_4
REMARK    4  A    between atoms: C_2  and  C_5
REMARK    5  A    between atoms: C_8  and  C_9
REMARK    6  A    between atoms: C_9  and  N_10
REMARK    7  A    between atoms: C_12  and  C_13
REMARK    8  A    between atoms: C_13  and  O_14
REMARK    9  A    between atoms: O_14  and  C_15
REMARK   10  A    between atoms: C_20  and  C_21
REMARK                            x       y       z     vdW  Elec       q    Type
REMARK                         _______ _______ _______ _____ _____    ______ ____
ROOT
ATOM      1  N   UNL     1       7.032   6.082  17.658  0.00  0.00    +0.000 N 
ATOM      2  N   UNL     1       7.960   6.633  18.512  0.00  0.00    +0.000 NA
ATOM      3  C   UNL     1       8.016   7.867  18.109  0.00  0.00    +0.000 A 
ATOM      4  O   UNL     1       7.248   8.176  17.041  0.00  0.00    +0.000 OA
ATOM      5  C   UNL     1       6.623   7.004  16.728  0.00  0.00    +0.000 A 
ATOM      6  O   UNL     1       5.866   6.852  15.783  0.00  0.00    +0.000 OA
ENDROOT
BRANCH   1   7
ATOM      7  C   UNL     1       6.728   4.665  17.602  0.00  0.00    +0.000 C 
BRANCH   7  11
ATOM      8  C   UNL     1       2.861   3.537  19.295  0.00  0.00    +0.000 A 
ATOM      9  C   UNL     1       3.226   3.160  17.991  0.00  0.00    +0.000 A 
ATOM     10  C   UNL     1       4.464   3.528  17.440  0.00  0.00    +0.000 A 
ATOM     11  C   UNL     1       5.384   4.285  18.176  0.00  0.00    +0.000 A 
ATOM     12  C   UNL     1       5.034   4.662  19.476  0.00  0.00    +0.000 A 
ATOM     13  C   UNL     1       3.801   4.288  20.025  0.00  0.00    +0.000 A 
BRANCH   8  15
ATOM     14  C   UNL     1       0.634   4.428  20.267  0.00  0.00    +0.000 C 
ATOM     15  C   UNL     1       1.495   3.192  19.919  0.00  0.00    +0.000 C 
ATOM     16  C   UNL     1       1.719   2.407  21.231  0.00  0.00    +0.000 C 
ATOM     17  C   UNL     1       0.662   2.319  18.954  0.00  0.00    +0.000 C 
ENDBRANCH   8  15
ENDBRANCH   7  11
ENDBRANCH   1   7
BRANCH   3  18
ATOM     18  C   UNL     1       8.836   8.989  18.690  0.00  0.00    +0.000 C 
BRANCH  18  19
ATOM     19  O   UNL     1       8.520  10.212  18.030  0.00  0.00    +0.000 OA
BRANCH  19  20
ATOM     20  C   UNL     1       9.234  11.336  18.367  0.00  0.00    +0.000 A 
ATOM     21  C   UNL     1      10.269  11.087  19.276  0.00  0.00    +0.000 A 
ATOM     22  C   UNL     1      11.084  12.123  19.728  0.00  0.00    +0.000 A 
ATOM     23  C   UNL     1      10.864  13.423  19.278  0.00  0.00    +0.000 A 
ATOM     24  F   UNL     1      11.675  14.385  19.749  0.00  0.00    +0.000 F 
ATOM     25  C   UNL     1       9.843  13.710  18.370  0.00  0.00    +0.000 A 
ATOM     26  C   UNL     1       9.034  12.651  17.914  0.00  0.00    +0.000 A 
ATOM     27  F   UNL     1       8.054  12.895  17.032  0.00  0.00    +0.000 F 
BRANCH  25  28
ATOM     28  C   UNL     1       9.594  15.099  17.892  0.00  0.00    +0.000 C 
ATOM     29  N   UNL     1      10.316  15.559  16.825  0.00  0.00    +0.000 N 
ATOM     30  O   UNL     1       8.774  15.836  18.422  0.00  0.00    +0.000 OA
ATOM     31  H   UNL     1      11.004  15.011  16.328  0.00  0.00    +0.000 HD
ATOM     32  H   UNL     1      10.142  16.507  16.513  0.00  0.00    +0.000 HD
ENDBRANCH  25  28
ENDBRANCH  19  20
ENDBRANCH  18  19
ENDBRANCH   3  18
TORSDOF 7
ENDMDL
MODEL 4
REMARK VINA RESULT:      -8.8      1.706      2.128
REMARK  Name = 
REMARK  10 active torsions:
REMARK  status: ('A' for Active; 'I' for Inactive)
REMARK    1  A    between atoms: C_1  and  C_2
REMARK    2  A    between atoms: C_2  and  C_3
REMARK    3  A    between atoms: C_2  and  C_4
REMARK    4  A    between atoms: C_2  and  C_5
REMARK    5  A    between atoms: C_8  and  C_9
REMARK    6  A    between atoms: C_9  and  N_10
REMARK    7  A    between atoms: C_12  and  C_13
REMARK    8  A    between atoms: C_13  and  O_14
REMARK    9  A    between atoms: O_14  and  C_15
REMARK   10  A    between atoms: C_20  and  C_21
REMARK                            x       y       z     vdW  Elec       q    Type
REMARK                         _______ _______ _______ _____ _____    ______ ____
ROOT
ATOM      1  N   UNL     1       7.123   6.194  17.842  0.00  0.00    +0.000 N 
ATOM      2  N   UNL     1       8.044   6.769  18.687  0.00  0.00    +0.000 NA
ATOM      3  C   UNL     1       8.104   7.992  18.247  0.00  0.00    +0.000 A 
ATOM      4  O   UNL     1       7.346   8.268  17.164  0.00  0.00    +0.000 OA
ATOM      5  C   UNL     1       6.723   7.087  16.881  0.00  0.00    +0.000 A 
ATOM      6  O   UNL     1       5.975   6.907  15.935  0.00  0.00    +0.000 OA
ENDROOT
BRANCH   1   7
ATOM      7  C   UNL     1       6.819   4.776  17.826  0.00  0.00    +0.000 C 
BRANCH   7  11
ATOM      8  C   UNL     1       2.898   3.737  19.448  0.00  0.00    +0.000 A 
ATOM      9  C   UNL     1       3.610   4.853  19.918  0.00  0.00    +0.000 A 
ATOM     10  C   UNL     1       4.875   5.186  19.405  0.00  0.00    +0.000 A 
ATOM     11  C   UNL     1       5.470   4.413  18.401  0.00  0.00    +0.000 A 
ATOM     12  C   UNL     1       4.770   3.303  17.923  0.00  0.00    +0.000 A 
ATOM     13  C   UNL     1       3.505   2.978  18.431  0.00  0.00    +0.000 A 
BRANCH   8  15
ATOM     14  C   UNL     1       0.684   2.459  19.045  0.00  0.00    +0.000 C 
ATOM     15  C   UNL     1       1.529   3.313  20.017  0.00  0.00    +0.000 C 
ATOM     16  C   UNL     1       0.704   4.576  20.352  0.00  0.00    +0.000 C 
ATOM     17  C   UNL     1       1.712   2.482  21.306  0.00  0.00    +0.000 C 
ENDBRANCH   8  15
ENDBRANCH   7  11
ENDBRANCH   1   7
BRANCH   3  18
ATOM     18  C   UNL     1       8.920   9.130  18.802  0.00  0.00    +0.000 C 
BRANCH  18  19
ATOM     19  O   UNL     1       8.990  10.185  17.846  0.00  0.00    +0.000 OA
BRANCH  19  20
ATOM     20  C   UNL     1       9.452  11.410  18.263  0.00  0.00    +0.000 A 
ATOM     21  C   UNL     1      10.517  11.325  19.168  0.00  0.00    +0.000 A 
ATOM     22  C   UNL     1      11.096  12.478  19.696  0.00  0.00    +0.000 A 
ATOM     23  C   UNL     1      10.609  13.729  19.325  0.00  0.00    +0.000 A 
ATOM     24  F   UNL     1      11.200  14.807  19.867  0.00  0.00    +0.000 F 
ATOM     25  C   UNL     1       9.550  13.854  18.423  0.00  0.00    +0.000 A 
ATOM     26  C   UNL     1       8.982  12.680  17.891  0.00  0.00    +0.000 A 
ATOM     27  F   UNL     1       7.972  12.770  17.013  0.00  0.00    +0.000 F 
BRANCH  25  28
ATOM     28  C   UNL     1       9.015  15.187  18.031  0.00  0.00    +0.000 C 
ATOM     29  N   UNL     1       9.681  15.897  17.070  0.00  0.00    +0.000 N 
ATOM     30  O   UNL     1       8.010  15.665  18.539  0.00  0.00    +0.000 OA
ATOM     31  H   UNL     1      10.511  15.570  16.596  0.00  0.00    +0.000 HD
ATOM     32  H   UNL     1       9.311  16.806  16.815  0.00  0.00    +0.000 HD
ENDBRANCH  25  28
ENDBRANCH  19  20
ENDBRANCH  18  19
ENDBRANCH   3  18
TORSDOF 7
ENDMDL
MODEL 5
REMARK VINA RESULT:      -8.6      1.427      1.526
REMARK  Name = 
REMARK  10 active torsions:
REMARK  status: ('A' for Active; 'I' for Inactive)
REMARK    1  A    between atoms: C_1  and  C_2
REMARK    2  A    between atoms: C_2  and  C_3
REMARK    3  A    between atoms: C_2  and  C_4
REMARK    4  A    between atoms: C_2  and  C_5
REMARK    5  A    between atoms: C_8  and  C_9
REMARK    6  A    between atoms: C_9  and  N_10
REMARK    7  A    between atoms: C_12  and  C_13
REMARK    8  A    between atoms: C_13  and  O_14
REMARK    9  A    between atoms: O_14  and  C_15
REMARK   10  A    between atoms: C_20  and  C_21
REMARK                            x       y       z     vdW  Elec       q    Type
REMARK                         _______ _______ _______ _____ _____    ______ ____
ROOT
ATOM      1  N   UNL     1       6.543   6.799  16.833  0.00  0.00    +0.000 N 
ATOM      2  N   UNL     1       6.710   8.091  17.277  0.00  0.00    +0.000 NA
ATOM      3  C   UNL     1       7.821   8.017  17.949  0.00  0.00    +0.000 A 
ATOM      4  O   UNL     1       8.381   6.790  18.031  0.00  0.00    +0.000 OA
ATOM      5  C   UNL     1       7.535   5.987  17.323  0.00  0.00    +0.000 A 
ATOM      6  O   UNL     1       7.669   4.782  17.194  0.00  0.00    +0.000 OA
ENDROOT
BRANCH   1   7
ATOM      7  C   UNL     1       5.352   6.326  16.156  0.00  0.00    +0.000 C 
BRANCH   7  11
ATOM      8  C   UNL     1       2.629   4.060  18.713  0.00  0.00    +0.000 A 
ATOM      9  C   UNL     1       3.364   3.433  17.694  0.00  0.00    +0.000 A 
ATOM     10  C   UNL     1       4.234   4.159  16.864  0.00  0.00    +0.000 A 
ATOM     11  C   UNL     1       4.400   5.540  17.028  0.00  0.00    +0.000 A 
ATOM     12  C   UNL     1       3.678   6.174  18.041  0.00  0.00    +0.000 A 
ATOM     13  C   UNL     1       2.815   5.445  18.872  0.00  0.00    +0.000 A 
BRANCH   8  15
ATOM     14  C   UNL     1       0.738   4.233  20.473  0.00  0.00    +0.000 C 
ATOM     15  C   UNL     1       1.630   3.307  19.615  0.00  0.00    +0.000 C 
ATOM     16  C   UNL     1       2.411   2.395  20.588  0.00  0.00    +0.000 C 
ATOM     17  C   UNL     1       0.685   2.431  18.763  0.00  0.00    +0.000 C 
ENDBRANCH   8  15
ENDBRANCH   7  11
ENDBRANCH   1   7
BRANCH   3  18
ATOM     18  C   UNL     1       8.550   9.135  18.646  0.00  0.00    +0.000 C 
BRANCH  18  19
ATOM     19  O   UNL     1       8.953  10.118  17.695  0.00  0.00    +0.000 OA
BRANCH  19  20
ATOM     20  C   UNL     1       9.436  11.315  18.163  0.00  0.00    +0.000 A 
ATOM     21  C   UNL     1      10.485  11.173  19.080  0.00  0.00    +0.000 A 
ATOM     22  C   UNL     1      11.081  12.293  19.657  0.00  0.00    +0.000 A 
ATOM     23  C   UNL     1      10.627  13.567  19.326  0.00  0.00    +0.000 A 
ATOM     24  F   UNL     1      11.233  14.611  19.915  0.00  0.00    +0.000 F 
ATOM     25  C   UNL     1       9.584  13.749  18.415  0.00  0.00    +0.000 A 
ATOM     26  C   UNL     1       8.999  12.608  17.832  0.00  0.00    +0.000 A 
ATOM     27  F   UNL     1       8.004  12.753  16.943  0.00  0.00    +0.000 F 
BRANCH  25  28
ATOM     28  C   UNL     1       9.085  15.107  18.064  0.00  0.00    +0.000 C 
ATOM     29  N   UNL     1       9.696  15.781  17.042  0.00  0.00    +0.000 N 
ATOM     30  O   UNL     1       8.156  15.637  18.659  0.00  0.00    +0.000 OA
ATOM     31  H   UNL     1      10.462  15.410  16.496  0.00  0.00    +0.000 HD
ATOM     32  H   UNL     1       9.351  16.707  16.816  0.00  0.00    +0.000 HD
ENDBRANCH  25  28
ENDBRANCH  19  20
ENDBRANCH  18  19
ENDBRANCH   3  18
TORSDOF 7
ENDMDL
MODEL 6
REMARK VINA RESULT:      -8.6      1.369      1.881
REMARK  Name = 
REMARK  10 active torsions:
REMARK  status: ('A' for Active; 'I' for Inactive)
REMARK    1  A    between atoms: C_1  and  C_2
REMARK    2  A    between atoms: C_2  and  C_3
REMARK    3  A    between atoms: C_2  and  C_4
REMARK    4  A    between atoms: C_2  and  C_5
REMARK    5  A    between atoms: C_8  and  C_9
REMARK    6  A    between atoms: C_9  and  N_10
REMARK    7  A    between atoms: C_12  and  C_13
REMARK    8  A    between atoms: C_13  and  O_14
REMARK    9  A    between atoms: O_14  and  C_15
REMARK   10  A    between atoms: C_20  and  C_21
REMARK                            x       y       z     vdW  Elec       q    Type
REMARK                         _______ _______ _______ _____ _____    ______ ____
ROOT
ATOM      1  N   UNL     1       7.130   6.436  17.234  0.00  0.00    +0.000 N 
ATOM      2  N   UNL     1       7.110   7.766  16.879  0.00  0.00    +0.000 NA
ATOM      3  C   UNL     1       7.865   8.310  17.787  0.00  0.00    +0.000 A 
ATOM      4  O   UNL     1       8.345   7.475  18.735  0.00  0.00    +0.000 OA
ATOM      5  C   UNL     1       7.845   6.254  18.390  0.00  0.00    +0.000 A 
ATOM      6  O   UNL     1       8.016   5.228  19.028  0.00  0.00    +0.000 OA
ENDROOT
BRANCH   1   7
ATOM      7  C   UNL     1       6.301   5.423  16.609  0.00  0.00    +0.000 C 
BRANCH   7  11
ATOM      8  C   UNL     1       2.993   4.038  19.106  0.00  0.00    +0.000 A 
ATOM      9  C   UNL     1       3.960   3.146  18.614  0.00  0.00    +0.000 A 
ATOM     10  C   UNL     1       5.020   3.585  17.804  0.00  0.00    +0.000 A 
ATOM     11  C   UNL     1       5.151   4.936  17.460  0.00  0.00    +0.000 A 
ATOM     12  C   UNL     1       4.198   5.834  17.946  0.00  0.00    +0.000 A 
ATOM     13  C   UNL     1       3.145   5.394  18.759  0.00  0.00    +0.000 A 
BRANCH   8  15
ATOM     14  C   UNL     1       0.749   2.750  19.183  0.00  0.00    +0.000 C 
ATOM     15  C   UNL     1       1.790   3.590  19.958  0.00  0.00    +0.000 C 
ATOM     16  C   UNL     1       1.057   4.838  20.500  0.00  0.00    +0.000 C 
ATOM     17  C   UNL     1       2.262   2.732  21.154  0.00  0.00    +0.000 C 
ENDBRANCH   8  15
ENDBRANCH   7  11
ENDBRANCH   1   7
BRANCH   3  18
ATOM     18  C   UNL     1       8.263   9.758  17.906  0.00  0.00    +0.000 C 
BRANCH  18  19
ATOM     19  O   UNL     1       9.327   9.892  18.846  0.00  0.00    +0.000 OA
BRANCH  19  20
ATOM     20  C   UNL     1       9.955  11.109  18.947  0.00  0.00    +0.000 A 
ATOM     21  C   UNL     1      11.048  11.245  18.082  0.00  0.00    +0.000 A 
ATOM     22  C   UNL     1      11.802  12.417  18.067  0.00  0.00    +0.000 A 
ATOM     23  C   UNL     1      11.470  13.464  18.924  0.00  0.00    +0.000 A 
ATOM     24  F   UNL     1      12.232  14.569  18.872  0.00  0.00    +0.000 F 
ATOM     25  C   UNL     1      10.386  13.366  19.799  0.00  0.00    +0.000 A 
ATOM     26  C   UNL     1       9.628  12.179  19.796  0.00  0.00    +0.000 A 
ATOM     27  F   UNL     1       8.574  12.062  20.616  0.00  0.00    +0.000 F 
BRANCH  25  28
ATOM     28  C   UNL     1      10.032  14.476  20.727  0.00  0.00    +0.000 C 
ATOM     29  N   UNL     1       9.496  15.619  20.199  0.00  0.00    +0.000 N 
ATOM     30  O   UNL     1      10.207  14.400  21.935  0.00  0.00    +0.000 OA
ATOM     31  H   UNL     1       9.311  15.757  19.215  0.00  0.00    +0.000 HD
ATOM     32  H   UNL     1       9.264  16.369  20.840  0.00  0.00    +0.000 HD
ENDBRANCH  25  28
ENDBRANCH  19  20
ENDBRANCH  18  19
ENDBRANCH   3  18
TORSDOF 7
ENDMDL
MODEL 7
REMARK VINA RESULT:      -8.6      1.158      1.429
REMARK  Name = 
REMARK  10 active torsions:
REMARK  status: ('A' for Active; 'I' for Inactive)
REMARK    1  A    between atoms: C_1  and  C_2
REMARK    2  A    between atoms: C_2  and  C_3
REMARK    3  A    between atoms: C_2  and  C_4
REMARK    4  A    between atoms: C_2  and  C_5
REMARK    5  A    between atoms: C_8  and  C_9
REMARK    6  A    between atoms: C_9  and  N_10
REMARK    7  A    between atoms: C_12  and  C_13
REMARK    8  A    between atoms: C_13  and  O_14
REMARK    9  A    between atoms: O_14  and  C_15
REMARK   10  A    between atoms: C_20  and  C_21
REMARK                            x       y       z     vdW  Elec       q    Type
REMARK                         _______ _______ _______ _____ _____    ______ ____
ROOT
ATOM      1  N   UNL     1       6.799   6.594  17.151  0.00  0.00    +0.000 N 
ATOM      2  N   UNL     1       7.157   7.918  17.258  0.00  0.00    +0.000 NA
ATOM      3  C   UNL     1       8.110   7.882  18.142  0.00  0.00    +0.000 A 
ATOM      4  O   UNL     1       8.385   6.666  18.664  0.00  0.00    +0.000 OA
ATOM      5  C   UNL     1       7.512   5.826  18.037  0.00  0.00    +0.000 A 
ATOM      6  O   UNL     1       7.413   4.632  18.266  0.00  0.00    +0.000 OA
ENDROOT
BRANCH   1   7
ATOM      7  C   UNL     1       5.656   6.126  16.391  0.00  0.00    +0.000 C 
BRANCH   7  11
ATOM      8  C   UNL     1       2.659   4.034  18.786  0.00  0.00    +0.000 A 
ATOM      9  C   UNL     1       3.419   3.360  17.816  0.00  0.00    +0.000 A 
ATOM     10  C   UNL     1       4.377   4.031  17.038  0.00  0.00    +0.000 A 
ATOM     11  C   UNL     1       4.610   5.401  17.206  0.00  0.00    +0.000 A 
ATOM     12  C   UNL     1       3.864   6.081  18.171  0.00  0.00    +0.000 A 
ATOM     13  C   UNL     1       2.913   5.409  18.950  0.00  0.00    +0.000 A 
BRANCH   8  15
ATOM     14  C   UNL     1       0.547   2.538  18.793  0.00  0.00    +0.000 C 
ATOM     15  C   UNL     1       1.567   3.345  19.628  0.00  0.00    +0.000 C 
ATOM     16  C   UNL     1       0.772   4.418  20.406  0.00  0.00    +0.000 C 
ATOM     17  C   UNL     1       2.200   2.364  20.640  0.00  0.00    +0.000 C 
ENDBRANCH   8  15
ENDBRANCH   7  11
ENDBRANCH   1   7
BRANCH   3  18
ATOM     18  C   UNL     1       8.937   9.032  18.651  0.00  0.00    +0.000 C 
BRANCH  18  19
ATOM     19  O   UNL     1       8.367  10.266  18.221  0.00  0.00    +0.000 OA
BRANCH  19  20
ATOM     20  C   UNL     1       8.998  11.433  18.577  0.00  0.00    +0.000 A 
ATOM     21  C   UNL     1       9.770  11.317  19.740  0.00  0.00    +0.000 A 
ATOM     22  C   UNL     1      10.468  12.413  20.243  0.00  0.00    +0.000 A 
ATOM     23  C   UNL     1      10.395  13.640  19.588  0.00  0.00    +0.000 A 
ATOM     24  F   UNL     1      11.082  14.665  20.118  0.00  0.00    +0.000 F 
ATOM     25  C   UNL     1       9.637  13.795  18.425  0.00  0.00    +0.000 A 
ATOM     26  C   UNL     1       8.945  12.675  17.923  0.00  0.00    +0.000 A 
ATOM     27  F   UNL     1       8.220  12.791  16.801  0.00  0.00    +0.000 F 
BRANCH  25  28
ATOM     28  C   UNL     1       9.543  15.106  17.726  0.00  0.00    +0.000 C 
ATOM     29  N   UNL     1       8.324  15.725  17.667  0.00  0.00    +0.000 N 
ATOM     30  O   UNL     1      10.512  15.641  17.204  0.00  0.00    +0.000 OA
ATOM     31  H   UNL     1       7.479  15.355  18.079  0.00  0.00    +0.000 HD
ATOM     32  H   UNL     1       8.272  16.614  17.183  0.00  0.00    +0.000 HD
ENDBRANCH  25  28
ENDBRANCH  19  20
ENDBRANCH  18  19
ENDBRANCH   3  18
TORSDOF 7
ENDMDL
MODEL 8
REMARK VINA RESULT:      -8.4      1.490      2.036
REMARK  Name = 
REMARK  10 active torsions:
REMARK  status: ('A' for Active; 'I' for Inactive)
REMARK    1  A    between atoms: C_1  and  C_2
REMARK    2  A    between atoms: C_2  and  C_3
REMARK    3  A    between atoms: C_2  and  C_4
REMARK    4  A    between atoms: C_2  and  C_5
REMARK    5  A    between atoms: C_8  and  C_9
REMARK    6  A    between atoms: C_9  and  N_10
REMARK    7  A    between atoms: C_12  and  C_13
REMARK    8  A    between atoms: C_13  and  O_14
REMARK    9  A    between atoms: O_14  and  C_15
REMARK   10  A    between atoms: C_20  and  C_21
REMARK                            x       y       z     vdW  Elec       q    Type
REMARK                         _______ _______ _______ _____ _____    ______ ____
ROOT
ATOM      1  N   UNL     1       7.160   6.299  17.308  0.00  0.00    +0.000 N 
ATOM      2  N   UNL     1       7.093   7.603  16.875  0.00  0.00    +0.000 NA
ATOM      3  C   UNL     1       7.802   8.233  17.765  0.00  0.00    +0.000 A 
ATOM      4  O   UNL     1       8.293   7.476  18.772  0.00  0.00    +0.000 OA
ATOM      5  C   UNL     1       7.854   6.216  18.489  0.00  0.00    +0.000 A 
ATOM      6  O   UNL     1       8.052   5.239  19.192  0.00  0.00    +0.000 OA
ENDROOT
BRANCH   1   7
ATOM      7  C   UNL     1       6.391   5.216  16.728  0.00  0.00    +0.000 C 
BRANCH   7  11
ATOM      8  C   UNL     1       2.893   3.967  19.029  0.00  0.00    +0.000 A 
ATOM      9  C   UNL     1       3.054   5.297  18.609  0.00  0.00    +0.000 A 
ATOM     10  C   UNL     1       4.181   5.705  17.877  0.00  0.00    +0.000 A 
ATOM     11  C   UNL     1       5.186   4.793  17.536  0.00  0.00    +0.000 A 
ATOM     12  C   UNL     1       5.036   3.465  17.944  0.00  0.00    +0.000 A 
ATOM     13  C   UNL     1       3.907   3.060  18.669  0.00  0.00    +0.000 A 
BRANCH   8  15
ATOM     14  C   UNL     1       0.807   4.636  20.408  0.00  0.00    +0.000 C 
ATOM     15  C   UNL     1       1.695   3.489  19.873  0.00  0.00    +0.000 C 
ATOM     16  C   UNL     1       2.216   2.706  21.098  0.00  0.00    +0.000 C 
ATOM     17  C   UNL     1       0.781   2.561  19.042  0.00  0.00    +0.000 C 
ENDBRANCH   8  15
ENDBRANCH   7  11
ENDBRANCH   1   7
BRANCH   3  18
ATOM     18  C   UNL     1       8.135   9.700  17.807  0.00  0.00    +0.000 C 
BRANCH  18  19
ATOM     19  O   UNL     1       9.190   9.932  18.737  0.00  0.00    +0.000 OA
BRANCH  19  20
ATOM     20  C   UNL     1       9.702  11.202  18.837  0.00  0.00    +0.000 A 
ATOM     21  C   UNL     1      10.630  11.509  17.834  0.00  0.00    +0.000 A 
ATOM     22  C   UNL     1      11.251  12.756  17.797  0.00  0.00    +0.000 A 
ATOM     23  C   UNL     1      10.954  13.707  18.770  0.00  0.00    +0.000 A 
ATOM     24  F   UNL     1      11.585  14.890  18.691  0.00  0.00    +0.000 F 
ATOM     25  C   UNL     1      10.033  13.438  19.785  0.00  0.00    +0.000 A 
ATOM     26  C   UNL     1       9.405  12.177  19.803  0.00  0.00    +0.000 A 
ATOM     27  F   UNL     1       8.507  11.896  20.759  0.00  0.00    +0.000 F 
BRANCH  25  28
ATOM     28  C   UNL     1       9.718  14.444  20.837  0.00  0.00    +0.000 C 
ATOM     29  N   UNL     1      10.744  14.928  21.602  0.00  0.00    +0.000 N 
ATOM     30  O   UNL     1       8.580  14.846  21.039  0.00  0.00    +0.000 OA
ATOM     31  H   UNL     1      11.711  14.655  21.492  0.00  0.00    +0.000 HD
ATOM     32  H   UNL     1      10.517  15.608  22.318  0.00  0.00    +0.000 HD
ENDBRANCH  25  28
ENDBRANCH  19  20
ENDBRANCH  18  19
ENDBRANCH   3  18
TORSDOF 7
ENDMDL
MODEL 9
REMARK VINA RESULT:      -8.4      1.925      2.431
REMARK  Name = 
REMARK  10 active torsions:
REMARK  status: ('A' for Active; 'I' for Inactive)
REMARK    1  A    between atoms: C_1  and  C_2
REMARK    2  A    between atoms: C_2  and  C_3
REMARK    3  A    between atoms: C_2  and  C_4
REMARK    4  A    between atoms: C_2  and  C_5
REMARK    5  A    between atoms: C_8  and  C_9
REMARK    6  A    between atoms: C_9  and  N_10
REMARK    7  A    between atoms: C_12  and  C_13
REMARK    8  A    between atoms: C_13  and  O_14
REMARK    9  A    between atoms: O_14  and  C_15
REMARK   10  A    between atoms: C_20  and  C_21
REMARK                            x       y       z     vdW  Elec       q    Type
REMARK                         _______ _______ _______ _____ _____    ______ ____
ROOT
ATOM      1  N   UNL     1       7.195   6.738  17.240  0.00  0.00    +0.000 N 
ATOM      2  N   UNL     1       7.314   8.095  17.046  0.00  0.00    +0.000 NA
ATOM      3  C   UNL     1       8.135   8.444  17.993  0.00  0.00    +0.000 A 
ATOM      4  O   UNL     1       8.533   7.455  18.823  0.00  0.00    +0.000 OA
ATOM      5  C   UNL     1       7.901   6.343  18.348  0.00  0.00    +0.000 A 
ATOM      6  O   UNL     1       7.968   5.236  18.856  0.00  0.00    +0.000 OA
ENDROOT
BRANCH   1   7
ATOM      7  C   UNL     1       6.254   5.901  16.521  0.00  0.00    +0.000 C 
BRANCH   7  11
ATOM      8  C   UNL     1       3.099   4.207  19.024  0.00  0.00    +0.000 A 
ATOM      9  C   UNL     1       3.975   3.384  18.297  0.00  0.00    +0.000 A 
ATOM     10  C   UNL     1       4.986   3.925  17.485  0.00  0.00    +0.000 A 
ATOM     11  C   UNL     1       5.156   5.310  17.373  0.00  0.00    +0.000 A 
ATOM     12  C   UNL     1       4.293   6.139  18.094  0.00  0.00    +0.000 A 
ATOM     13  C   UNL     1       3.290   5.597  18.909  0.00  0.00    +0.000 A 
BRANCH   8  15
ATOM     14  C   UNL     1       0.936   2.788  19.109  0.00  0.00    +0.000 C 
ATOM     15  C   UNL     1       1.950   3.655  19.890  0.00  0.00    +0.000 C 
ATOM     16  C   UNL     1       1.164   4.836  20.504  0.00  0.00    +0.000 C 
ATOM     17  C   UNL     1       2.506   2.779  21.035  0.00  0.00    +0.000 C 
ENDBRANCH   8  15
ENDBRANCH   7  11
ENDBRANCH   1   7
BRANCH   3  18
ATOM     18  C   UNL     1       8.688   9.816  18.273  0.00  0.00    +0.000 C 
BRANCH  18  19
ATOM     19  O   UNL     1       9.197   9.871  19.603  0.00  0.00    +0.000 OA
BRANCH  19  20
ATOM     20  C   UNL     1       9.535  11.098  20.120  0.00  0.00    +0.000 A 
ATOM     21  C   UNL     1      10.619  11.698  19.467  0.00  0.00    +0.000 A 
ATOM     22  C   UNL     1      11.095  12.943  19.875  0.00  0.00    +0.000 A 
ATOM     23  C   UNL     1      10.492  13.596  20.948  0.00  0.00    +0.000 A 
ATOM     24  F   UNL     1      10.993  14.790  21.303  0.00  0.00    +0.000 F 
ATOM     25  C   UNL     1       9.408  13.030  21.623  0.00  0.00    +0.000 A 
ATOM     26  C   UNL     1       8.932  11.776  21.192  0.00  0.00    +0.000 A 
ATOM     27  F   UNL     1       7.885  11.215  21.813  0.00  0.00    +0.000 F 
BRANCH  25  28
ATOM     28  C   UNL     1       8.766  13.716  22.778  0.00  0.00    +0.000 C 
ATOM     29  N   UNL     1       8.785  13.094  23.996  0.00  0.00    +0.000 N 
ATOM     30  O   UNL     1       8.224  14.808  22.672  0.00  0.00    +0.000 OA
ATOM     31  H   UNL     1       9.219  12.198  24.168  0.00  0.00    +0.000 HD
ATOM     32  H   UNL     1       8.340  13.568  24.773  0.00  0.00    +0.000 HD
ENDBRANCH  25  28
ENDBRANCH  19  20
ENDBRANCH  18  19
ENDBRANCH   3  18
TORSDOF 7
ENDMDL
