MODEL 1
REMARK VINA RESULT:      -7.8      0.000      0.000
REMARK  Name = 
REMARK  6 active torsions:
REMARK  status: ('A' for Active; 'I' for Inactive)
REMARK    1  A    between atoms: N_1  and  N_2
REMARK    2  A    between atoms: C_3  and  S_4
REMARK    3  A    between atoms: S_4  and  C_5
REMARK    4  A    between atoms: C_5  and  C_6
REMARK    5  A    between atoms: C_6  and  C_7
REMARK    6  A    between atoms: C_7  and  N_8
REMARK                            x       y       z     vdW  Elec       q    Type
REMARK                         _______ _______ _______ _____ _____    ______ ____
ROOT
ATOM      1  C   UNL     1       1.452   5.257  20.717  0.00  0.00    +0.000 C 
ENDROOT
BRANCH   1   2
ATOM      2  S   UNL     1       2.416   6.499  19.795  0.00  0.00    +0.000 S 
BRANCH   2   4
ATOM      3  N   UNL     1       1.442   8.963  19.215  0.00  0.00    +0.000 N 
ATOM      4  C   UNL     1       1.561   7.984  20.222  0.00  0.00    +0.000 A 
ATOM      5  N   UNL     1       1.058   8.101  21.415  0.00  0.00    +0.000 NA
ATOM      6  C   UNL     1       0.411   9.266  21.656  0.00  0.00    +0.000 A 
ATOM      7  S   UNL     1      -0.251   9.626  23.188  0.00  0.00    +0.000 S 
ATOM      8  C   UNL     1      -0.824  11.151  22.658  0.00  0.00    +0.000 A 
ATOM      9  C   UNL     1      -0.525  11.383  21.334  0.00  0.00    +0.000 A 
ATOM     10  C   UNL     1       0.204  10.294  20.762  0.00  0.00    +0.000 A 
ATOM     11  C   UNL     1       0.731  10.157  19.422  0.00  0.00    +0.000 A 
ATOM     12  O   UNL     1       0.553  11.000  18.543  0.00  0.00    +0.000 OA
BRANCH   3  13
ATOM     13  N   UNL     1       2.063   8.801  17.923  0.00  0.00    +0.000 N 
ATOM     14  H   UNL     1       2.256   9.737  17.566  0.00  0.00    +0.000 HD
ATOM     15  H   UNL     1       2.984   8.378  18.095  0.00  0.00    +0.000 HD
ENDBRANCH   3  13
ENDBRANCH   2   4
ENDBRANCH   1   2
BRANCH   1  16
ATOM     16  C   UNL     1       2.264   4.002  21.073  0.00  0.00    +0.000 C 
BRANCH  16  17
ATOM     17  C   UNL     1       1.977   2.753  20.212  0.00  0.00    +0.000 C 
BRANCH  17  18
ATOM     18  N   UNL     1       3.148   2.307  19.449  0.00  0.00    +0.000 NA
ATOM     19  C   UNL     1       2.945   2.328  17.984  0.00  0.00    +0.000 C 
ATOM     20  C   UNL     1       3.014   3.731  17.345  0.00  0.00    +0.000 C 
ATOM     21  N   UNL     1       4.312   4.338  17.622  0.00  0.00    +0.000 N 
ATOM     22  C   UNL     1       5.226   4.379  16.592  0.00  0.00    +0.000 A 
ATOM     23  N   UNL     1       4.750   4.493  15.338  0.00  0.00    +0.000 NA
ATOM     24  C   UNL     1       5.627   4.585  14.322  0.00  0.00    +0.000 A 
ATOM     25  C   UNL     1       6.983   4.544  14.495  0.00  0.00    +0.000 A 
ATOM     26  C   UNL     1       7.388   4.424  15.802  0.00  0.00    +0.000 A 
ATOM     27  N   UNL     1       6.544   4.347  16.853  0.00  0.00    +0.000 NA
ATOM     28  C   UNL     1       4.721   4.358  19.025  0.00  0.00    +0.000 C 
ATOM     29  C   UNL     1       4.391   3.042  19.785  0.00  0.00    +0.000 C 
ENDBRANCH  17  18
ENDBRANCH  16  17
ENDBRANCH   1  16
TORSDOF 6
ENDMDL
MODEL 2
REMARK VINA RESULT:      -7.8      1.574      2.515
REMARK  Name = 
REMARK  6 active torsions:
REMARK  status: ('A' for Active; 'I' for Inactive)
REMARK    1  A    between atoms: N_1  and  N_2
REMARK    2  A    between atoms: C_3  and  S_4
REMARK    3  A    between atoms: S_4  and  C_5
REMARK    4  A    between atoms: C_5  and  C_6
REMARK    5  A    between atoms: C_6  and  C_7
REMARK    6  A    between atoms: C_7  and  N_8
REMARK                            x       y       z     vdW  Elec       q    Type
REMARK                         _______ _______ _______ _____ _____    ______ ____
ROOT
ATOM      1  C   UNL     1       2.070   6.299  19.993  0.00  0.00    +0.000 C 
ENDROOT
BRANCH   1   2
ATOM      2  S   UNL     1       2.367   7.778  18.970  0.00  0.00    +0.000 S 
BRANCH   2   4
ATOM      3  N   UNL     1       0.912  10.065  18.997  0.00  0.00    +0.000 N 
ATOM      4  C   UNL     1       1.330   8.963  19.769  0.00  0.00    +0.000 A 
ATOM      5  N   UNL     1       0.975   8.759  21.002  0.00  0.00    +0.000 NA
ATOM      6  C   UNL     1       0.172   9.711  21.535  0.00  0.00    +0.000 A 
ATOM      7  S   UNL     1      -0.336   9.650  23.164  0.00  0.00    +0.000 S 
ATOM      8  C   UNL     1      -1.230  11.104  23.011  0.00  0.00    +0.000 A 
ATOM      9  C   UNL     1      -1.152  11.626  21.739  0.00  0.00    +0.000 A 
ATOM     10  C   UNL     1      -0.326  10.824  20.892  0.00  0.00    +0.000 A 
ATOM     11  C   UNL     1       0.037  11.038  19.508  0.00  0.00    +0.000 A 
ATOM     12  O   UNL     1      -0.399  11.976  18.840  0.00  0.00    +0.000 OA
BRANCH   3  13
ATOM     13  N   UNL     1       1.377  10.266  17.646  0.00  0.00    +0.000 N 
ATOM     14  H   UNL     1       2.283  10.730  17.709  0.00  0.00    +0.000 HD
ATOM     15  H   UNL     1       1.574   9.331  17.266  0.00  0.00    +0.000 HD
ENDBRANCH   3  13
ENDBRANCH   2   4
ENDBRANCH   1   2
BRANCH   1  16
ATOM     16  C   UNL     1       3.125   5.200  19.792  0.00  0.00    +0.000 C 
BRANCH  16  17
ATOM     17  C   UNL     1       4.352   5.597  18.944  0.00  0.00    +0.000 C 
BRANCH  17  18
ATOM     18  N   UNL     1       4.082   5.569  17.503  0.00  0.00    +0.000 NA
ATOM     19  C   UNL     1       4.981   6.438  16.713  0.00  0.00    +0.000 C 
ATOM     20  C   UNL     1       6.400   5.869  16.498  0.00  0.00    +0.000 C 
ATOM     21  N   UNL     1       6.319   4.580  15.819  0.00  0.00    +0.000 N 
ATOM     22  C   UNL     1       6.651   4.545  14.482  0.00  0.00    +0.000 A 
ATOM     23  N   UNL     1       7.587   5.410  14.049  0.00  0.00    +0.000 NA
ATOM     24  C   UNL     1       7.962   5.358  12.757  0.00  0.00    +0.000 A 
ATOM     25  C   UNL     1       7.423   4.485  11.853  0.00  0.00    +0.000 A 
ATOM     26  C   UNL     1       6.475   3.639  12.373  0.00  0.00    +0.000 A 
ATOM     27  N   UNL     1       6.081   3.643  13.665  0.00  0.00    +0.000 NA
ATOM     28  C   UNL     1       5.423   3.595  16.423  0.00  0.00    +0.000 C 
ATOM     29  C   UNL     1       4.083   4.203  16.925  0.00  0.00    +0.000 C 
ENDBRANCH  17  18
ENDBRANCH  16  17
ENDBRANCH   1  16
TORSDOF 6
ENDMDL
MODEL 3
REMARK VINA RESULT:      -7.6      7.627      9.887
REMARK  Name = 
REMARK  6 active torsions:
REMARK  status: ('A' for Active; 'I' for Inactive)
REMARK    1  A    between atoms: N_1  and  N_2
REMARK    2  A    between atoms: C_3  and  S_4
REMARK    3  A    between atoms: S_4  and  C_5
REMARK    4  A    between atoms: C_5  and  C_6
REMARK    5  A    between atoms: C_6  and  C_7
REMARK    6  A    between atoms: C_7  and  N_8
REMARK                            x       y       z     vdW  Elec       q    Type
REMARK                         _______ _______ _______ _____ _____    ______ ____
ROOT
ATOM      1  C   UNL     1       7.462   8.347  17.830  0.00  0.00    +0.000 C 
ENDROOT
BRANCH   1   2
ATOM      2  S   UNL     1       7.915   6.688  18.435  0.00  0.00    +0.000 S 
BRANCH   2   4
ATOM      3  N   UNL     1       6.361   5.323  16.682  0.00  0.00    +0.000 N 
ATOM      4  C   UNL     1       6.470   5.763  18.016  0.00  0.00    +0.000 A 
ATOM      5  N   UNL     1       5.597   5.503  18.944  0.00  0.00    +0.000 NA
ATOM      6  C   UNL     1       4.525   4.781  18.540  0.00  0.00    +0.000 A 
ATOM      7  S   UNL     1       3.242   4.405  19.601  0.00  0.00    +0.000 S 
ATOM      8  C   UNL     1       2.391   3.554  18.382  0.00  0.00    +0.000 A 
ATOM      9  C   UNL     1       3.074   3.547  17.186  0.00  0.00    +0.000 A 
ATOM     10  C   UNL     1       4.302   4.272  17.278  0.00  0.00    +0.000 A 
ATOM     11  C   UNL     1       5.286   4.527  16.249  0.00  0.00    +0.000 A 
ATOM     12  O   UNL     1       5.196   4.073  15.109  0.00  0.00    +0.000 OA
BRANCH   3  13
ATOM     13  N   UNL     1       7.337   5.683  15.682  0.00  0.00    +0.000 N 
ATOM     14  H   UNL     1       6.945   5.423  14.777  0.00  0.00    +0.000 HD
ATOM     15  H   UNL     1       7.381   6.710  15.677  0.00  0.00    +0.000 HD
ENDBRANCH   3  13
ENDBRANCH   2   4
ENDBRANCH   1   2
BRANCH   1  16
ATOM     16  C   UNL     1       8.643   9.329  17.813  0.00  0.00    +0.000 C 
BRANCH  16  17
ATOM     17  C   UNL     1       8.934  10.049  19.147  0.00  0.00    +0.000 C 
BRANCH  17  18
ATOM     18  N   UNL     1      10.181  10.821  19.118  0.00  0.00    +0.000 NA
ATOM     19  C   UNL     1      10.393  11.559  17.854  0.00  0.00    +0.000 C 
ATOM     20  C   UNL     1       9.548  12.843  17.709  0.00  0.00    +0.000 C 
ATOM     21  N   UNL     1       9.842  13.755  18.810  0.00  0.00    +0.000 N 
ATOM     22  C   UNL     1      10.631  14.850  18.535  0.00  0.00    +0.000 A 
ATOM     23  N   UNL     1      10.552  15.382  17.301  0.00  0.00    +0.000 NA
ATOM     24  C   UNL     1      11.277  16.482  17.027  0.00  0.00    +0.000 A 
ATOM     25  C   UNL     1      12.113  17.075  17.932  0.00  0.00    +0.000 A 
ATOM     26  C   UNL     1      12.138  16.472  19.165  0.00  0.00    +0.000 A 
ATOM     27  N   UNL     1      11.414  15.379  19.490  0.00  0.00    +0.000 NA
ATOM     28  C   UNL     1       9.743  13.187  20.154  0.00  0.00    +0.000 C 
ATOM     29  C   UNL     1      10.330  11.751  20.264  0.00  0.00    +0.000 C 
ENDBRANCH  17  18
ENDBRANCH  16  17
ENDBRANCH   1  16
TORSDOF 6
ENDMDL
MODEL 4
REMARK VINA RESULT:      -7.3      4.067      9.557
REMARK  Name = 
REMARK  6 active torsions:
REMARK  status: ('A' for Active; 'I' for Inactive)
REMARK    1  A    between atoms: N_1  and  N_2
REMARK    2  A    between atoms: C_3  and  S_4
REMARK    3  A    between atoms: S_4  and  C_5
REMARK    4  A    between atoms: C_5  and  C_6
REMARK    5  A    between atoms: C_6  and  C_7
REMARK    6  A    between atoms: C_7  and  N_8
REMARK                            x       y       z     vdW  Elec       q    Type
REMARK                         _______ _______ _______ _____ _____    ______ ____
ROOT
ATOM      1  C   UNL     1       1.982   8.668  18.463  0.00  0.00    +0.000 C 
ENDROOT
BRANCH   1   2
ATOM      2  S   UNL     1       3.312   7.787  17.581  0.00  0.00    +0.000 S 
BRANCH   2   4
ATOM      3  N   UNL     1       4.557   5.561  18.503  0.00  0.00    +0.000 N 
ATOM      4  C   UNL     1       3.324   6.240  18.434  0.00  0.00    +0.000 A 
ATOM      5  N   UNL     1       2.224   5.813  18.979  0.00  0.00    +0.000 NA
ATOM      6  C   UNL     1       2.324   4.624  19.621  0.00  0.00    +0.000 A 
ATOM      7  S   UNL     1       0.968   3.872  20.335  0.00  0.00    +0.000 S 
ATOM      8  C   UNL     1       1.903   2.539  20.870  0.00  0.00    +0.000 A 
ATOM      9  C   UNL     1       3.229   2.665  20.519  0.00  0.00    +0.000 A 
ATOM     10  C   UNL     1       3.465   3.867  19.782  0.00  0.00    +0.000 A 
ATOM     11  C   UNL     1       4.700   4.354  19.208  0.00  0.00    +0.000 A 
ATOM     12  O   UNL     1       5.775   3.772  19.343  0.00  0.00    +0.000 OA
BRANCH   3  13
ATOM     13  N   UNL     1       5.736   6.059  17.837  0.00  0.00    +0.000 N 
ATOM     14  H   UNL     1       6.494   6.042  18.520  0.00  0.00    +0.000 HD
ATOM     15  H   UNL     1       5.988   5.356  17.131  0.00  0.00    +0.000 HD
ENDBRANCH   3  13
ENDBRANCH   2   4
ENDBRANCH   1   2
BRANCH   1  16
ATOM     16  C   UNL     1       1.703  10.068  17.897  0.00  0.00    +0.000 C 
BRANCH  16  17
ATOM     17  C   UNL     1       0.724  10.938  18.714  0.00  0.00    +0.000 C 
BRANCH  17  18
ATOM     18  N   UNL     1      -0.549  10.261  18.984  0.00  0.00    +0.000 NA
ATOM     19  C   UNL     1      -1.359  10.917  20.034  0.00  0.00    +0.000 C 
ATOM     20  C   UNL     1      -2.091  12.197  19.576  0.00  0.00    +0.000 C 
ATOM     21  N   UNL     1      -2.979  11.887  18.460  0.00  0.00    +0.000 N 
ATOM     22  C   UNL     1      -4.329  11.817  18.723  0.00  0.00    +0.000 A 
ATOM     23  N   UNL     1      -4.818  12.611  19.694  0.00  0.00    +0.000 NA
ATOM     24  C   UNL     1      -6.142  12.594  19.933  0.00  0.00    +0.000 A 
ATOM     25  C   UNL     1      -7.017  11.792  19.255  0.00  0.00    +0.000 A 
ATOM     26  C   UNL     1      -6.441  11.012  18.283  0.00  0.00    +0.000 A 
ATOM     27  N   UNL     1      -5.121  11.010  17.997  0.00  0.00    +0.000 NA
ATOM     28  C   UNL     1      -2.368  11.177  17.337  0.00  0.00    +0.000 C 
ATOM     29  C   UNL     1      -1.382  10.057  17.774  0.00  0.00    +0.000 C 
ENDBRANCH  17  18
ENDBRANCH  16  17
ENDBRANCH   1  16
TORSDOF 6
ENDMDL
MODEL 5
REMARK VINA RESULT:      -7.3      7.779     10.697
REMARK  Name = 
REMARK  6 active torsions:
REMARK  status: ('A' for Active; 'I' for Inactive)
REMARK    1  A    between atoms: N_1  and  N_2
REMARK    2  A    between atoms: C_3  and  S_4
REMARK    3  A    between atoms: S_4  and  C_5
REMARK    4  A    between atoms: C_5  and  C_6
REMARK    5  A    between atoms: C_6  and  C_7
REMARK    6  A    between atoms: C_7  and  N_8
REMARK                            x       y       z     vdW  Elec       q    Type
REMARK                         _______ _______ _______ _____ _____    ______ ____
ROOT
ATOM      1  C   UNL     1       7.556   8.531  17.707  0.00  0.00    +0.000 C 
ENDROOT
BRANCH   1   2
ATOM      2  S   UNL     1       7.830   6.867  18.401  0.00  0.00    +0.000 S 
BRANCH   2   4
ATOM      3  N   UNL     1       6.009   5.056  17.532  0.00  0.00    +0.000 N 
ATOM      4  C   UNL     1       7.108   5.850  17.151  0.00  0.00    +0.000 A 
ATOM      5  N   UNL     1       7.591   5.896  15.945  0.00  0.00    +0.000 NA
ATOM      6  C   UNL     1       6.974   5.093  15.046  0.00  0.00    +0.000 A 
ATOM      7  S   UNL     1       7.516   4.967  13.431  0.00  0.00    +0.000 S 
ATOM      8  C   UNL     1       6.287   3.841  13.034  0.00  0.00    +0.000 A 
ATOM      9  C   UNL     1       5.470   3.569  14.110  0.00  0.00    +0.000 A 
ATOM     10  C   UNL     1       5.882   4.285  15.276  0.00  0.00    +0.000 A 
ATOM     11  C   UNL     1       5.317   4.255  16.608  0.00  0.00    +0.000 A 
ATOM     12  O   UNL     1       4.313   3.602  16.894  0.00  0.00    +0.000 OA
BRANCH   3  13
ATOM     13  N   UNL     1       5.545   5.008  18.897  0.00  0.00    +0.000 N 
ATOM     14  H   UNL     1       6.046   5.735  19.408  0.00  0.00    +0.000 HD
ATOM     15  H   UNL     1       4.563   5.313  18.880  0.00  0.00    +0.000 HD
ENDBRANCH   3  13
ENDBRANCH   2   4
ENDBRANCH   1   2
BRANCH   1  16
ATOM     16  C   UNL     1       8.794   9.435  17.793  0.00  0.00    +0.000 C 
BRANCH  16  17
ATOM     17  C   UNL     1       9.021  10.132  19.152  0.00  0.00    +0.000 C 
BRANCH  17  18
ATOM     18  N   UNL     1      10.235  10.957  19.173  0.00  0.00    +0.000 NA
ATOM     19  C   UNL     1      10.479  11.687  17.911  0.00  0.00    +0.000 C 
ATOM     20  C   UNL     1       9.589  12.932  17.705  0.00  0.00    +0.000 C 
ATOM     21  N   UNL     1       9.788  13.869  18.806  0.00  0.00    +0.000 N 
ATOM     22  C   UNL     1      10.543  14.994  18.554  0.00  0.00    +0.000 A 
ATOM     23  N   UNL     1      10.503  15.507  17.310  0.00  0.00    +0.000 NA
ATOM     24  C   UNL     1      11.195  16.633  17.056  0.00  0.00    +0.000 A 
ATOM     25  C   UNL     1      11.958  17.273  17.994  0.00  0.00    +0.000 A 
ATOM     26  C   UNL     1      11.947  16.686  19.235  0.00  0.00    +0.000 A 
ATOM     27  N   UNL     1      11.254  15.568  19.539  0.00  0.00    +0.000 NA
ATOM     28  C   UNL     1       9.645  13.314  20.151  0.00  0.00    +0.000 C 
ATOM     29  C   UNL     1      10.287  11.907  20.311  0.00  0.00    +0.000 C 
ENDBRANCH  17  18
ENDBRANCH  16  17
ENDBRANCH   1  16
TORSDOF 6
ENDMDL
MODEL 6
REMARK VINA RESULT:      -7.3      6.674      8.024
REMARK  Name = 
REMARK  6 active torsions:
REMARK  status: ('A' for Active; 'I' for Inactive)
REMARK    1  A    between atoms: N_1  and  N_2
REMARK    2  A    between atoms: C_3  and  S_4
REMARK    3  A    between atoms: S_4  and  C_5
REMARK    4  A    between atoms: C_5  and  C_6
REMARK    5  A    between atoms: C_6  and  C_7
REMARK    6  A    between atoms: C_7  and  N_8
REMARK                            x       y       z     vdW  Elec       q    Type
REMARK                         _______ _______ _______ _____ _____    ______ ____
ROOT
ATOM      1  C   UNL     1       8.149   9.667  18.007  0.00  0.00    +0.000 C 
ENDROOT
BRANCH   1   2
ATOM      2  S   UNL     1       9.442  10.261  19.146  0.00  0.00    +0.000 S 
BRANCH   2   4
ATOM      3  N   UNL     1      10.713  12.311  17.907  0.00  0.00    +0.000 N 
ATOM      4  C   UNL     1       9.577  11.954  18.660  0.00  0.00    +0.000 A 
ATOM      5  N   UNL     1       8.627  12.780  18.982  0.00  0.00    +0.000 NA
ATOM      6  C   UNL     1       8.805  14.055  18.562  0.00  0.00    +0.000 A 
ATOM      7  S   UNL     1       7.698  15.294  18.954  0.00  0.00    +0.000 S 
ATOM      8  C   UNL     1       8.609  16.471  18.106  0.00  0.00    +0.000 A 
ATOM      9  C   UNL     1       9.736  15.932  17.526  0.00  0.00    +0.000 A 
ATOM     10  C   UNL     1       9.853  14.535  17.806  0.00  0.00    +0.000 A 
ATOM     11  C   UNL     1      10.897  13.614  17.414  0.00  0.00    +0.000 A 
ATOM     12  O   UNL     1      11.844  13.941  16.699  0.00  0.00    +0.000 OA
BRANCH   3  13
ATOM     13  N   UNL     1      11.762  11.362  17.619  0.00  0.00    +0.000 N 
ATOM     14  H   UNL     1      11.358  10.431  17.725  0.00  0.00    +0.000 HD
ATOM     15  H   UNL     1      11.971  11.457  16.617  0.00  0.00    +0.000 HD
ENDBRANCH   3  13
ENDBRANCH   2   4
ENDBRANCH   1   2
BRANCH   1  16
ATOM     16  C   UNL     1       8.263   8.169  17.688  0.00  0.00    +0.000 C 
BRANCH  16  17
ATOM     17  C   UNL     1       6.964   7.485  17.209  0.00  0.00    +0.000 C 
BRANCH  17  18
ATOM     18  N   UNL     1       6.596   6.325  18.027  0.00  0.00    +0.000 NA
ATOM     19  C   UNL     1       5.279   6.457  18.687  0.00  0.00    +0.000 C 
ATOM     20  C   UNL     1       4.068   6.235  17.755  0.00  0.00    +0.000 C 
ATOM     21  N   UNL     1       4.136   4.902  17.165  0.00  0.00    +0.000 N 
ATOM     22  C   UNL     1       3.285   3.941  17.665  0.00  0.00    +0.000 A 
ATOM     23  N   UNL     1       2.088   4.347  18.127  0.00  0.00    +0.000 NA
ATOM     24  C   UNL     1       1.222   3.419  18.574  0.00  0.00    +0.000 A 
ATOM     25  C   UNL     1       1.506   2.081  18.605  0.00  0.00    +0.000 A 
ATOM     26  C   UNL     1       2.746   1.750  18.119  0.00  0.00    +0.000 A 
ATOM     27  N   UNL     1       3.639   2.645  17.644  0.00  0.00    +0.000 NA
ATOM     28  C   UNL     1       5.397   4.558  16.509  0.00  0.00    +0.000 C 
ATOM     29  C   UNL     1       6.653   5.038  17.292  0.00  0.00    +0.000 C 
ENDBRANCH  17  18
ENDBRANCH  16  17
ENDBRANCH   1  16
TORSDOF 6
ENDMDL
MODEL 7
REMARK VINA RESULT:      -7.2      6.880      8.190
REMARK  Name = 
REMARK  6 active torsions:
REMARK  status: ('A' for Active; 'I' for Inactive)
REMARK    1  A    between atoms: N_1  and  N_2
REMARK    2  A    between atoms: C_3  and  S_4
REMARK    3  A    between atoms: S_4  and  C_5
REMARK    4  A    between atoms: C_5  and  C_6
REMARK    5  A    between atoms: C_6  and  C_7
REMARK    6  A    between atoms: C_7  and  N_8
REMARK                            x       y       z     vdW  Elec       q    Type
REMARK                         _______ _______ _______ _____ _____    ______ ____
ROOT
ATOM      1  C   UNL     1       8.496  10.062  18.226  0.00  0.00    +0.000 C 
ENDROOT
BRANCH   1   2
ATOM      2  S   UNL     1      10.196  10.708  18.349  0.00  0.00    +0.000 S 
BRANCH   2   4
ATOM      3  N   UNL     1      10.950  13.211  17.627  0.00  0.00    +0.000 N 
ATOM      4  C   UNL     1       9.916  12.445  18.201  0.00  0.00    +0.000 A 
ATOM      5  N   UNL     1       8.777  12.935  18.592  0.00  0.00    +0.000 NA
ATOM      6  C   UNL     1       8.641  14.274  18.434  0.00  0.00    +0.000 A 
ATOM      7  S   UNL     1       7.243  15.104  18.957  0.00  0.00    +0.000 S 
ATOM      8  C   UNL     1       7.856  16.612  18.424  0.00  0.00    +0.000 A 
ATOM      9  C   UNL     1       9.102  16.489  17.849  0.00  0.00    +0.000 A 
ATOM     10  C   UNL     1       9.559  15.135  17.872  0.00  0.00    +0.000 A 
ATOM     11  C   UNL     1      10.815  14.591  17.403  0.00  0.00    +0.000 A 
ATOM     12  O   UNL     1      11.672  15.274  16.843  0.00  0.00    +0.000 OA
BRANCH   3  13
ATOM     13  N   UNL     1      12.214  12.621  17.255  0.00  0.00    +0.000 N 
ATOM     14  H   UNL     1      12.710  13.311  16.691  0.00  0.00    +0.000 HD
ATOM     15  H   UNL     1      12.758  12.534  18.123  0.00  0.00    +0.000 HD
ENDBRANCH   3  13
ENDBRANCH   2   4
ENDBRANCH   1   2
BRANCH   1  16
ATOM     16  C   UNL     1       8.425   8.529  18.269  0.00  0.00    +0.000 C 
BRANCH  16  17
ATOM     17  C   UNL     1       7.361   7.882  17.358  0.00  0.00    +0.000 C 
BRANCH  17  18
ATOM     18  N   UNL     1       7.333   6.419  17.463  0.00  0.00    +0.000 NA
ATOM     19  C   UNL     1       6.864   5.927  18.776  0.00  0.00    +0.000 C 
ATOM     20  C   UNL     1       5.336   6.010  18.986  0.00  0.00    +0.000 C 
ATOM     21  N   UNL     1       4.653   5.239  17.952  0.00  0.00    +0.000 N 
ATOM     22  C   UNL     1       4.126   4.018  18.314  0.00  0.00    +0.000 A 
ATOM     23  N   UNL     1       3.683   3.880  19.578  0.00  0.00    +0.000 NA
ATOM     24  C   UNL     1       3.120   2.712  19.938  0.00  0.00    +0.000 A 
ATOM     25  C   UNL     1       2.994   1.646  19.091  0.00  0.00    +0.000 A 
ATOM     26  C   UNL     1       3.471   1.867  17.822  0.00  0.00    +0.000 A 
ATOM     27  N   UNL     1       4.027   3.028  17.412  0.00  0.00    +0.000 NA
ATOM     28  C   UNL     1       5.031   5.544  16.573  0.00  0.00    +0.000 C 
ATOM     29  C   UNL     1       6.559   5.760  16.383  0.00  0.00    +0.000 C 
ENDBRANCH  17  18
ENDBRANCH  16  17
ENDBRANCH   1  16
TORSDOF 6
ENDMDL
MODEL 8
REMARK VINA RESULT:      -7.2      6.686      7.699
REMARK  Name = 
REMARK  6 active torsions:
REMARK  status: ('A' for Active; 'I' for Inactive)
REMARK    1  A    between atoms: N_1  and  N_2
REMARK    2  A    between atoms: C_3  and  S_4
REMARK    3  A    between atoms: S_4  and  C_5
REMARK    4  A    between atoms: C_5  and  C_6
REMARK    5  A    between atoms: C_6  and  C_7
REMARK    6  A    between atoms: C_7  and  N_8
REMARK                            x       y       z     vdW  Elec       q    Type
REMARK                         _______ _______ _______ _____ _____    ______ ____
ROOT
ATOM      1  C   UNL     1       8.846   9.887  18.886  0.00  0.00    +0.000 C 
ENDROOT
BRANCH   1   2
ATOM      2  S   UNL     1       9.759  11.197  18.007  0.00  0.00    +0.000 S 
BRANCH   2   4
ATOM      3  N   UNL     1       9.646  13.852  18.543  0.00  0.00    +0.000 N 
ATOM      4  C   UNL     1       9.541  12.563  19.103  0.00  0.00    +0.000 A 
ATOM      5  N   UNL     1       9.266  12.332  20.353  0.00  0.00    +0.000 NA
ATOM      6  C   UNL     1       9.105  13.435  21.122  0.00  0.00    +0.000 A 
ATOM      7  S   UNL     1       8.812  13.326  22.800  0.00  0.00    +0.000 S 
ATOM      8  C   UNL     1       8.747  15.030  22.969  0.00  0.00    +0.000 A 
ATOM      9  C   UNL     1       8.938  15.675  21.767  0.00  0.00    +0.000 A 
ATOM     10  C   UNL     1       9.160  14.747  20.703  0.00  0.00    +0.000 A 
ATOM     11  C   UNL     1       9.430  15.012  19.307  0.00  0.00    +0.000 A 
ATOM     12  O   UNL     1       9.449  16.148  18.833  0.00  0.00    +0.000 OA
BRANCH   3  13
ATOM     13  N   UNL     1      10.001  14.051  17.159  0.00  0.00    +0.000 N 
ATOM     14  H   UNL     1      10.113  15.056  17.022  0.00  0.00    +0.000 HD
ATOM     15  H   UNL     1      10.941  13.652  17.041  0.00  0.00    +0.000 HD
ENDBRANCH   3  13
ENDBRANCH   2   4
ENDBRANCH   1   2
BRANCH   1  16
ATOM     16  C   UNL     1       8.230   8.840  17.945  0.00  0.00    +0.000 C 
BRANCH  16  17
ATOM     17  C   UNL     1       8.223   7.389  18.470  0.00  0.00    +0.000 C 
BRANCH  17  18
ATOM     18  N   UNL     1       7.524   6.462  17.574  0.00  0.00    +0.000 NA
ATOM     19  C   UNL     1       7.446   5.079  18.093  0.00  0.00    +0.000 C 
ATOM     20  C   UNL     1       6.392   4.866  19.200  0.00  0.00    +0.000 C 
ATOM     21  N   UNL     1       5.069   5.228  18.699  0.00  0.00    +0.000 N 
ATOM     22  C   UNL     1       4.206   4.201  18.384  0.00  0.00    +0.000 A 
ATOM     23  N   UNL     1       4.304   3.063  19.097  0.00  0.00    +0.000 NA
ATOM     24  C   UNL     1       3.438   2.066  18.838  0.00  0.00    +0.000 A 
ATOM     25  C   UNL     1       2.476   2.139  17.868  0.00  0.00    +0.000 A 
ATOM     26  C   UNL     1       2.444   3.330  17.186  0.00  0.00    +0.000 A 
ATOM     27  N   UNL     1       3.280   4.363  17.424  0.00  0.00    +0.000 NA
ATOM     28  C   UNL     1       4.958   6.551  18.088  0.00  0.00    +0.000 C 
ATOM     29  C   UNL     1       6.168   6.920  17.185  0.00  0.00    +0.000 C 
ENDBRANCH  17  18
ENDBRANCH  16  17
ENDBRANCH   1  16
TORSDOF 6
ENDMDL
MODEL 9
REMARK VINA RESULT:      -7.2      1.046      1.188
REMARK  Name = 
REMARK  6 active torsions:
REMARK  status: ('A' for Active; 'I' for Inactive)
REMARK    1  A    between atoms: N_1  and  N_2
REMARK    2  A    between atoms: C_3  and  S_4
REMARK    3  A    between atoms: S_4  and  C_5
REMARK    4  A    between atoms: C_5  and  C_6
REMARK    5  A    between atoms: C_6  and  C_7
REMARK    6  A    between atoms: C_7  and  N_8
REMARK                            x       y       z     vdW  Elec       q    Type
REMARK                         _______ _______ _______ _____ _____    ______ ____
ROOT
ATOM      1  C   UNL     1       1.061   4.964  20.393  0.00  0.00    +0.000 C 
ENDROOT
BRANCH   1   2
ATOM      2  S   UNL     1       2.322   6.129  21.005  0.00  0.00    +0.000 S 
BRANCH   2   4
ATOM      3  N   UNL     1       2.008   8.065  19.132  0.00  0.00    +0.000 N 
ATOM      4  C   UNL     1       1.669   7.670  20.442  0.00  0.00    +0.000 A 
ATOM      5  N   UNL     1       0.891   8.351  21.230  0.00  0.00    +0.000 NA
ATOM      6  C   UNL     1       0.426   9.515  20.717  0.00  0.00    +0.000 A 
ATOM      7  S   UNL     1      -0.549  10.576  21.633  0.00  0.00    +0.000 S 
ATOM      8  C   UNL     1      -0.669  11.693  20.339  0.00  0.00    +0.000 A 
ATOM      9  C   UNL     1       0.015  11.264  19.222  0.00  0.00    +0.000 A 
ATOM     10  C   UNL     1       0.661  10.010  19.452  0.00  0.00    +0.000 A 
ATOM     11  C   UNL     1       1.497   9.241  18.556  0.00  0.00    +0.000 A 
ATOM     12  O   UNL     1       1.721   9.578  17.394  0.00  0.00    +0.000 OA
BRANCH   3  13
ATOM     13  N   UNL     1       2.915   7.293  18.318  0.00  0.00    +0.000 N 
ATOM     14  H   UNL     1       2.519   6.356  18.237  0.00  0.00    +0.000 HD
ATOM     15  H   UNL     1       2.867   7.694  17.373  0.00  0.00    +0.000 HD
ENDBRANCH   3  13
ENDBRANCH   2   4
ENDBRANCH   1   2
BRANCH   1  16
ATOM     16  C   UNL     1       1.337   3.507  20.792  0.00  0.00    +0.000 C 
BRANCH  16  17
ATOM     17  C   UNL     1       1.149   2.459  19.673  0.00  0.00    +0.000 C 
BRANCH  17  18
ATOM     18  N   UNL     1       2.415   2.054  19.053  0.00  0.00    +0.000 NA
ATOM     19  C   UNL     1       2.485   2.340  17.604  0.00  0.00    +0.000 C 
ATOM     20  C   UNL     1       2.741   3.821  17.252  0.00  0.00    +0.000 C 
ATOM     21  N   UNL     1       3.996   4.262  17.852  0.00  0.00    +0.000 N 
ATOM     22  C   UNL     1       5.084   4.402  17.018  0.00  0.00    +0.000 A 
ATOM     23  N   UNL     1       4.851   4.766  15.743  0.00  0.00    +0.000 NA
ATOM     24  C   UNL     1       5.903   4.956  14.926  0.00  0.00    +0.000 A 
ATOM     25  C   UNL     1       7.201   4.775  15.318  0.00  0.00    +0.000 A 
ATOM     26  C   UNL     1       7.353   4.402  16.631  0.00  0.00    +0.000 A 
ATOM     27  N   UNL     1       6.328   4.218  17.491  0.00  0.00    +0.000 NA
ATOM     28  C   UNL     1       4.142   4.011  19.284  0.00  0.00    +0.000 C 
ATOM     29  C   UNL     1       3.612   2.617  19.725  0.00  0.00    +0.000 C 
ENDBRANCH  17  18
ENDBRANCH  16  17
ENDBRANCH   1  16
TORSDOF 6
ENDMDL
