MODEL 1
REMARK VINA RESULT:      -7.9      0.000      0.000
REMARK  Name = 
REMARK  2 active torsions:
REMARK  status: ('A' for Active; 'I' for Inactive)
REMARK    1  A    between atoms: C_4  and  N_5
REMARK    2  A    between atoms: C_7  and  C_8
REMARK                            x       y       z     vdW  Elec       q    Type
REMARK                         _______ _______ _______ _____ _____    ______ ____
ROOT
ATOM      1  N   UNL     1       1.345   8.822  19.754  0.00  0.00    +0.000 N 
ATOM      2  C   UNL     1       2.129   7.693  19.666  0.00  0.00    +0.000 A 
ATOM      3  C   UNL     1       2.559   7.580  18.358  0.00  0.00    +0.000 A 
ATOM      4  C   UNL     1       1.957   8.690  17.724  0.00  0.00    +0.000 A 
ATOM      5  N   UNL     1       1.245   9.452  18.558  0.00  0.00    +0.000 NA
ENDROOT
BRANCH   3   6
ATOM      6  C   UNL     1       3.383   6.488  17.851  0.00  0.00    +0.000 A 
ATOM      7  C   UNL     1       4.655   6.809  17.356  0.00  0.00    +0.000 A 
ATOM      8  C   UNL     1       5.469   5.796  16.901  0.00  0.00    +0.000 A 
ATOM      9  N   UNL     1       5.121   4.498  16.922  0.00  0.00    +0.000 NA
ATOM     10  C   UNL     1       3.909   4.172  17.393  0.00  0.00    +0.000 A 
ATOM     11  C   UNL     1       3.579   2.823  17.408  0.00  0.00    +0.000 A 
ATOM     12  C   UNL     1       2.342   2.368  17.866  0.00  0.00    +0.000 A 
ATOM     13  C   UNL     1       1.397   3.284  18.297  0.00  0.00    +0.000 A 
ATOM     14  C   UNL     1       1.701   4.645  18.280  0.00  0.00    +0.000 A 
ATOM     15  C   UNL     1       2.971   5.125  17.861  0.00  0.00    +0.000 A 
ENDBRANCH   3   6
BRANCH   1  19
ATOM     16  C   UNL     1      -0.397   9.633  22.881  0.00  0.00    +0.000 A 
ATOM     17  C   UNL     1      -0.496  10.906  22.356  0.00  0.00    +0.000 A 
ATOM     18  S   UNL     1       0.242  11.021  20.816  0.00  0.00    +0.000 S 
ATOM     19  C   UNL     1       0.673   9.379  20.842  0.00  0.00    +0.000 A 
ATOM     20  C   UNL     1       0.288   8.744  22.002  0.00  0.00    +0.000 A 
ENDBRANCH   1  19
TORSDOF 2
ENDMDL
MODEL 2
REMARK VINA RESULT:      -7.6      0.940      2.609
REMARK  Name = 
REMARK  2 active torsions:
REMARK  status: ('A' for Active; 'I' for Inactive)
REMARK    1  A    between atoms: C_4  and  N_5
REMARK    2  A    between atoms: C_7  and  C_8
REMARK                            x       y       z     vdW  Elec       q    Type
REMARK                         _______ _______ _______ _____ _____    ______ ____
ROOT
ATOM      1  N   UNL     1       1.519   8.559  19.806  0.00  0.00    +0.000 N 
ATOM      2  C   UNL     1       2.021   7.279  19.716  0.00  0.00    +0.000 A 
ATOM      3  C   UNL     1       2.551   7.123  18.450  0.00  0.00    +0.000 A 
ATOM      4  C   UNL     1       2.299   8.371  17.838  0.00  0.00    +0.000 A 
ATOM      5  N   UNL     1       1.700   9.245  18.650  0.00  0.00    +0.000 NA
ENDROOT
BRANCH   3   6
ATOM      6  C   UNL     1       3.147   5.887  17.951  0.00  0.00    +0.000 A 
ATOM      7  C   UNL     1       2.325   4.754  17.875  0.00  0.00    +0.000 A 
ATOM      8  C   UNL     1       2.850   3.582  17.378  0.00  0.00    +0.000 A 
ATOM      9  N   UNL     1       4.113   3.463  16.936  0.00  0.00    +0.000 NA
ATOM     10  C   UNL     1       4.914   4.537  17.000  0.00  0.00    +0.000 A 
ATOM     11  C   UNL     1       6.212   4.386  16.531  0.00  0.00    +0.000 A 
ATOM     12  C   UNL     1       7.135   5.431  16.558  0.00  0.00    +0.000 A 
ATOM     13  C   UNL     1       6.764   6.655  17.091  0.00  0.00    +0.000 A 
ATOM     14  C   UNL     1       5.468   6.827  17.579  0.00  0.00    +0.000 A 
ATOM     15  C   UNL     1       4.500   5.788  17.518  0.00  0.00    +0.000 A 
ENDBRANCH   3   6
BRANCH   1  19
ATOM     16  C   UNL     1       0.129   9.772  22.978  0.00  0.00    +0.000 A 
ATOM     17  C   UNL     1      -0.470  10.747  22.205  0.00  0.00    +0.000 A 
ATOM     18  S   UNL     1      -0.068  10.585  20.549  0.00  0.00    +0.000 S 
ATOM     19  C   UNL     1       0.883   9.213  20.860  0.00  0.00    +0.000 A 
ATOM     20  C   UNL     1       0.921   8.881  22.196  0.00  0.00    +0.000 A 
ENDBRANCH   1  19
TORSDOF 2
ENDMDL
MODEL 3
REMARK VINA RESULT:      -7.5      1.751      2.178
REMARK  Name = 
REMARK  2 active torsions:
REMARK  status: ('A' for Active; 'I' for Inactive)
REMARK    1  A    between atoms: C_4  and  N_5
REMARK    2  A    between atoms: C_7  and  C_8
REMARK                            x       y       z     vdW  Elec       q    Type
REMARK                         _______ _______ _______ _____ _____    ______ ____
ROOT
ATOM      1  N   UNL     1       1.177   9.410  18.873  0.00  0.00    +0.000 N 
ATOM      2  C   UNL     1       1.829   8.640  17.935  0.00  0.00    +0.000 A 
ATOM      3  C   UNL     1       2.350   7.537  18.583  0.00  0.00    +0.000 A 
ATOM      4  C   UNL     1       1.972   7.746  19.929  0.00  0.00    +0.000 A 
ATOM      5  N   UNL     1       1.251   8.855  20.108  0.00  0.00    +0.000 NA
ENDROOT
BRANCH   3   6
ATOM      6  C   UNL     1       3.146   6.499  17.936  0.00  0.00    +0.000 A 
ATOM      7  C   UNL     1       4.324   6.893  17.287  0.00  0.00    +0.000 A 
ATOM      8  C   UNL     1       5.113   5.931  16.696  0.00  0.00    +0.000 A 
ATOM      9  N   UNL     1       4.828   4.618  16.721  0.00  0.00    +0.000 NA
ATOM     10  C   UNL     1       3.705   4.223  17.338  0.00  0.00    +0.000 A 
ATOM     11  C   UNL     1       3.439   2.860  17.354  0.00  0.00    +0.000 A 
ATOM     12  C   UNL     1       2.297   2.336  17.957  0.00  0.00    +0.000 A 
ATOM     13  C   UNL     1       1.378   3.194  18.540  0.00  0.00    +0.000 A 
ATOM     14  C   UNL     1       1.618   4.568  18.526  0.00  0.00    +0.000 A 
ATOM     15  C   UNL     1       2.799   5.118  17.957  0.00  0.00    +0.000 A 
ENDBRANCH   3   6
BRANCH   1  19
ATOM     16  C   UNL     1      -0.039  12.871  18.785  0.00  0.00    +0.000 A 
ATOM     17  C   UNL     1      -1.215  12.320  18.317  0.00  0.00    +0.000 A 
ATOM     18  S   UNL     1      -1.107  10.618  18.166  0.00  0.00    +0.000 S 
ATOM     19  C   UNL     1       0.491  10.616  18.740  0.00  0.00    +0.000 A 
ATOM     20  C   UNL     1       0.957  11.880  19.028  0.00  0.00    +0.000 A 
ENDBRANCH   1  19
TORSDOF 2
ENDMDL
MODEL 4
REMARK VINA RESULT:      -7.4      3.948      7.665
REMARK  Name = 
REMARK  2 active torsions:
REMARK  status: ('A' for Active; 'I' for Inactive)
REMARK    1  A    between atoms: C_4  and  N_5
REMARK    2  A    between atoms: C_7  and  C_8
REMARK                            x       y       z     vdW  Elec       q    Type
REMARK                         _______ _______ _______ _____ _____    ______ ____
ROOT
ATOM      1  N   UNL     1       6.179   4.280  15.563  0.00  0.00    +0.000 N 
ATOM      2  C   UNL     1       5.025   4.052  16.281  0.00  0.00    +0.000 A 
ATOM      3  C   UNL     1       5.305   4.282  17.613  0.00  0.00    +0.000 A 
ATOM      4  C   UNL     1       6.675   4.628  17.600  0.00  0.00    +0.000 A 
ATOM      5  N   UNL     1       7.201   4.649  16.373  0.00  0.00    +0.000 NA
ENDROOT
BRANCH   3   6
ATOM      6  C   UNL     1       4.347   4.110  18.700  0.00  0.00    +0.000 A 
ATOM      7  C   UNL     1       4.318   2.868  19.350  0.00  0.00    +0.000 A 
ATOM      8  C   UNL     1       3.447   2.687  20.402  0.00  0.00    +0.000 A 
ATOM      9  N   UNL     1       2.626   3.646  20.861  0.00  0.00    +0.000 NA
ATOM     10  C   UNL     1       2.641   4.841  20.251  0.00  0.00    +0.000 A 
ATOM     11  C   UNL     1       1.787   5.815  20.750  0.00  0.00    +0.000 A 
ATOM     12  C   UNL     1       1.709   7.090  20.189  0.00  0.00    +0.000 A 
ATOM     13  C   UNL     1       2.485   7.396  19.084  0.00  0.00    +0.000 A 
ATOM     14  C   UNL     1       3.343   6.430  18.557  0.00  0.00    +0.000 A 
ATOM     15  C   UNL     1       3.469   5.140  19.142  0.00  0.00    +0.000 A 
ENDBRANCH   3   6
BRANCH   1  19
ATOM     16  C   UNL     1       6.326   3.556  11.969  0.00  0.00    +0.000 A 
ATOM     17  C   UNL     1       7.371   4.458  11.951  0.00  0.00    +0.000 A 
ATOM     18  S   UNL     1       7.674   5.115  13.502  0.00  0.00    +0.000 S 
ATOM     19  C   UNL     1       6.432   4.187  14.195  0.00  0.00    +0.000 A 
ATOM     20  C   UNL     1       5.775   3.400  13.275  0.00  0.00    +0.000 A 
ENDBRANCH   1  19
TORSDOF 2
ENDMDL
MODEL 5
REMARK VINA RESULT:      -7.4      1.275      1.353
REMARK  Name = 
REMARK  2 active torsions:
REMARK  status: ('A' for Active; 'I' for Inactive)
REMARK    1  A    between atoms: C_4  and  N_5
REMARK    2  A    between atoms: C_7  and  C_8
REMARK                            x       y       z     vdW  Elec       q    Type
REMARK                         _______ _______ _______ _____ _____    ______ ____
ROOT
ATOM      1  N   UNL     1       1.516   8.656  19.602  0.00  0.00    +0.000 N 
ATOM      2  C   UNL     1       2.128   7.488  20.003  0.00  0.00    +0.000 A 
ATOM      3  C   UNL     1       2.777   6.955  18.907  0.00  0.00    +0.000 A 
ATOM      4  C   UNL     1       2.478   7.874  17.876  0.00  0.00    +0.000 A 
ATOM      5  N   UNL     1       1.740   8.907  18.288  0.00  0.00    +0.000 NA
ENDROOT
BRANCH   3   6
ATOM      6  C   UNL     1       3.513   5.695  18.916  0.00  0.00    +0.000 A 
ATOM      7  C   UNL     1       4.909   5.759  19.026  0.00  0.00    +0.000 A 
ATOM      8  C   UNL     1       5.628   4.585  19.070  0.00  0.00    +0.000 A 
ATOM      9  N   UNL     1       5.064   3.366  19.034  0.00  0.00    +0.000 NA
ATOM     10  C   UNL     1       3.729   3.286  18.929  0.00  0.00    +0.000 A 
ATOM     11  C   UNL     1       3.173   2.014  18.900  0.00  0.00    +0.000 A 
ATOM     12  C   UNL     1       1.799   1.810  18.784  0.00  0.00    +0.000 A 
ATOM     13  C   UNL     1       0.955   2.901  18.667  0.00  0.00    +0.000 A 
ATOM     14  C   UNL     1       1.491   4.189  18.682  0.00  0.00    +0.000 A 
ATOM     15  C   UNL     1       2.884   4.419  18.846  0.00  0.00    +0.000 A 
ENDBRANCH   3   6
BRANCH   1  19
ATOM     16  C   UNL     1      -0.509  10.566  21.993  0.00  0.00    +0.000 A 
ATOM     17  C   UNL     1      -0.596  11.507  20.986  0.00  0.00    +0.000 A 
ATOM     18  S   UNL     1       0.269  11.027  19.589  0.00  0.00    +0.000 S 
ATOM     19  C   UNL     1       0.739   9.567  20.316  0.00  0.00    +0.000 A 
ATOM     20  C   UNL     1       0.272   9.437  21.606  0.00  0.00    +0.000 A 
ENDBRANCH   1  19
TORSDOF 2
ENDMDL
MODEL 6
REMARK VINA RESULT:      -7.4      1.937      2.155
REMARK  Name = 
REMARK  2 active torsions:
REMARK  status: ('A' for Active; 'I' for Inactive)
REMARK    1  A    between atoms: C_4  and  N_5
REMARK    2  A    between atoms: C_7  and  C_8
REMARK                            x       y       z     vdW  Elec       q    Type
REMARK                         _______ _______ _______ _____ _____    ______ ____
ROOT
ATOM      1  N   UNL     1       1.504   8.897  18.901  0.00  0.00    +0.000 N 
ATOM      2  C   UNL     1       1.995   7.762  19.511  0.00  0.00    +0.000 A 
ATOM      3  C   UNL     1       2.857   7.148  18.624  0.00  0.00    +0.000 A 
ATOM      4  C   UNL     1       2.803   7.986  17.487  0.00  0.00    +0.000 A 
ATOM      5  N   UNL     1       2.011   9.048  17.653  0.00  0.00    +0.000 NA
ENDROOT
BRANCH   3   6
ATOM      6  C   UNL     1       3.553   5.892  18.885  0.00  0.00    +0.000 A 
ATOM      7  C   UNL     1       4.883   5.784  18.455  0.00  0.00    +0.000 A 
ATOM      8  C   UNL     1       5.576   4.623  18.716  0.00  0.00    +0.000 A 
ATOM      9  N   UNL     1       5.054   3.581  19.385  0.00  0.00    +0.000 NA
ATOM     10  C   UNL     1       3.783   3.667  19.805  0.00  0.00    +0.000 A 
ATOM     11  C   UNL     1       3.272   2.578  20.498  0.00  0.00    +0.000 A 
ATOM     12  C   UNL     1       1.961   2.551  20.973  0.00  0.00    +0.000 A 
ATOM     13  C   UNL     1       1.126   3.629  20.728  0.00  0.00    +0.000 A 
ATOM     14  C   UNL     1       1.613   4.729  20.023  0.00  0.00    +0.000 A 
ATOM     15  C   UNL     1       2.959   4.794  19.571  0.00  0.00    +0.000 A 
ENDBRANCH   3   6
BRANCH   1  19
ATOM     16  C   UNL     1      -1.137  11.381  19.466  0.00  0.00    +0.000 A 
ATOM     17  C   UNL     1      -0.576  11.517  20.720  0.00  0.00    +0.000 A 
ATOM     18  S   UNL     1       0.763  10.473  20.937  0.00  0.00    +0.000 S 
ATOM     19  C   UNL     1       0.606   9.859  19.362  0.00  0.00    +0.000 A 
ATOM     20  C   UNL     1      -0.452  10.412  18.675  0.00  0.00    +0.000 A 
ENDBRANCH   1  19
TORSDOF 2
ENDMDL
MODEL 7
REMARK VINA RESULT:      -7.4      3.828      7.310
REMARK  Name = 
REMARK  2 active torsions:
REMARK  status: ('A' for Active; 'I' for Inactive)
REMARK    1  A    between atoms: C_4  and  N_5
REMARK    2  A    between atoms: C_7  and  C_8
REMARK                            x       y       z     vdW  Elec       q    Type
REMARK                         _______ _______ _______ _____ _____    ______ ____
ROOT
ATOM      1  N   UNL     1       5.997   5.080  15.368  0.00  0.00    +0.000 N 
ATOM      2  C   UNL     1       4.813   5.046  16.073  0.00  0.00    +0.000 A 
ATOM      3  C   UNL     1       5.025   5.677  17.283  0.00  0.00    +0.000 A 
ATOM      4  C   UNL     1       6.388   6.044  17.221  0.00  0.00    +0.000 A 
ATOM      5  N   UNL     1       6.973   5.708  16.069  0.00  0.00    +0.000 NA
ENDROOT
BRANCH   3   6
ATOM      6  C   UNL     1       4.018   5.814  18.330  0.00  0.00    +0.000 A 
ATOM      7  C   UNL     1       3.333   7.034  18.418  0.00  0.00    +0.000 A 
ATOM      8  C   UNL     1       2.354   7.181  19.375  0.00  0.00    +0.000 A 
ATOM      9  N   UNL     1       1.997   6.207  20.228  0.00  0.00    +0.000 NA
ATOM     10  C   UNL     1       2.640   5.033  20.158  0.00  0.00    +0.000 A 
ATOM     11  C   UNL     1       2.246   4.042  21.047  0.00  0.00    +0.000 A 
ATOM     12  C   UNL     1       2.851   2.786  21.073  0.00  0.00    +0.000 A 
ATOM     13  C   UNL     1       3.896   2.515  20.205  0.00  0.00    +0.000 A 
ATOM     14  C   UNL     1       4.318   3.499  19.310  0.00  0.00    +0.000 A 
ATOM     15  C   UNL     1       3.684   4.769  19.238  0.00  0.00    +0.000 A 
ENDBRANCH   3   6
BRANCH   1  19
ATOM     16  C   UNL     1       6.273   3.364  12.136  0.00  0.00    +0.000 A 
ATOM     17  C   UNL     1       7.409   4.128  11.963  0.00  0.00    +0.000 A 
ATOM     18  S   UNL     1       7.691   5.165  13.295  0.00  0.00    +0.000 S 
ATOM     19  C   UNL     1       6.317   4.584  14.105  0.00  0.00    +0.000 A 
ATOM     20  C   UNL     1       5.633   3.632  13.382  0.00  0.00    +0.000 A 
ENDBRANCH   1  19
TORSDOF 2
ENDMDL
MODEL 8
REMARK VINA RESULT:      -7.3      4.154      7.650
REMARK  Name = 
REMARK  2 active torsions:
REMARK  status: ('A' for Active; 'I' for Inactive)
REMARK    1  A    between atoms: C_4  and  N_5
REMARK    2  A    between atoms: C_7  and  C_8
REMARK                            x       y       z     vdW  Elec       q    Type
REMARK                         _______ _______ _______ _____ _____    ______ ____
ROOT
ATOM      1  N   UNL     1       6.193   4.376  15.500  0.00  0.00    +0.000 N 
ATOM      2  C   UNL     1       4.949   3.974  15.936  0.00  0.00    +0.000 A 
ATOM      3  C   UNL     1       4.961   3.995  17.317  0.00  0.00    +0.000 A 
ATOM      4  C   UNL     1       6.277   4.407  17.623  0.00  0.00    +0.000 A 
ATOM      5  N   UNL     1       7.016   4.658  16.540  0.00  0.00    +0.000 NA
ENDROOT
BRANCH   3   6
ATOM      6  C   UNL     1       3.836   3.596  18.158  0.00  0.00    +0.000 A 
ATOM      7  C   UNL     1       3.515   2.233  18.211  0.00  0.00    +0.000 A 
ATOM      8  C   UNL     1       2.479   1.823  19.021  0.00  0.00    +0.000 A 
ATOM      9  N   UNL     1       1.762   2.660  19.790  0.00  0.00    +0.000 NA
ATOM     10  C   UNL     1       2.056   3.967  19.753  0.00  0.00    +0.000 A 
ATOM     11  C   UNL     1       1.303   4.808  20.562  0.00  0.00    +0.000 A 
ATOM     12  C   UNL     1       1.513   6.186  20.598  0.00  0.00    +0.000 A 
ATOM     13  C   UNL     1       2.483   6.748  19.785  0.00  0.00    +0.000 A 
ATOM     14  C   UNL     1       3.245   5.926  18.955  0.00  0.00    +0.000 A 
ATOM     15  C   UNL     1       3.077   4.515  18.938  0.00  0.00    +0.000 A 
ENDBRANCH   3   6
BRANCH   1  19
ATOM     16  C   UNL     1       7.907   5.286  12.385  0.00  0.00    +0.000 A 
ATOM     17  C   UNL     1       7.131   4.299  11.810  0.00  0.00    +0.000 A 
ATOM     18  S   UNL     1       6.119   3.532  12.958  0.00  0.00    +0.000 S 
ATOM     19  C   UNL     1       6.699   4.524  14.209  0.00  0.00    +0.000 A 
ATOM     20  C   UNL     1       7.659   5.415  13.784  0.00  0.00    +0.000 A 
ENDBRANCH   1  19
TORSDOF 2
ENDMDL
MODEL 9
REMARK VINA RESULT:      -7.3      1.169      2.390
REMARK  Name = 
REMARK  2 active torsions:
REMARK  status: ('A' for Active; 'I' for Inactive)
REMARK    1  A    between atoms: C_4  and  N_5
REMARK    2  A    between atoms: C_7  and  C_8
REMARK                            x       y       z     vdW  Elec       q    Type
REMARK                         _______ _______ _______ _____ _____    ______ ____
ROOT
ATOM      1  N   UNL     1       1.268   8.701  20.244  0.00  0.00    +0.000 N 
ATOM      2  C   UNL     1       1.796   7.431  20.336  0.00  0.00    +0.000 A 
ATOM      3  C   UNL     1       2.393   7.134  19.127  0.00  0.00    +0.000 A 
ATOM      4  C   UNL     1       2.152   8.293  18.355  0.00  0.00    +0.000 A 
ATOM      5  N   UNL     1       1.497   9.245  19.024  0.00  0.00    +0.000 NA
ENDROOT
BRANCH   3   6
ATOM      6  C   UNL     1       3.034   5.861  18.813  0.00  0.00    +0.000 A 
ATOM      7  C   UNL     1       2.715   4.758  19.616  0.00  0.00    +0.000 A 
ATOM      8  C   UNL     1       3.279   3.536  19.323  0.00  0.00    +0.000 A 
ATOM      9  N   UNL     1       4.112   3.330  18.290  0.00  0.00    +0.000 NA
ATOM     10  C   UNL     1       4.428   4.375  17.510  0.00  0.00    +0.000 A 
ATOM     11  C   UNL     1       5.286   4.133  16.446  0.00  0.00    +0.000 A 
ATOM     12  C   UNL     1       5.692   5.144  15.577  0.00  0.00    +0.000 A 
ATOM     13  C   UNL     1       5.252   6.441  15.787  0.00  0.00    +0.000 A 
ATOM     14  C   UNL     1       4.398   6.711  16.856  0.00  0.00    +0.000 A 
ATOM     15  C   UNL     1       3.937   5.686  17.726  0.00  0.00    +0.000 A 
ENDBRANCH   3   6
BRANCH   1  19
ATOM     16  C   UNL     1      -0.500  10.144  23.118  0.00  0.00    +0.000 A 
ATOM     17  C   UNL     1      -0.695  11.236  22.297  0.00  0.00    +0.000 A 
ATOM     18  S   UNL     1       0.018  11.014  20.758  0.00  0.00    +0.000 S 
ATOM     19  C   UNL     1       0.568   9.463  21.178  0.00  0.00    +0.000 A 
ATOM     20  C   UNL     1       0.240   9.112  22.469  0.00  0.00    +0.000 A 
ENDBRANCH   1  19
TORSDOF 2
ENDMDL
