MODEL 1
REMARK VINA RESULT:      -7.0      0.000      0.000
REMARK  Name = 
REMARK  5 active torsions:
REMARK  status: ('A' for Active; 'I' for Inactive)
REMARK    1  A    between atoms: C_1  and  N_2
REMARK    2  A    between atoms: N_2  and  C_3
REMARK    3  A    between atoms: N_2  and  C_4
REMARK    4  A    between atoms: C_7  and  C_8
REMARK    5  A    between atoms: C_9  and  C_10
REMARK                            x       y       z     vdW  Elec       q    Type
REMARK                         _______ _______ _______ _____ _____    ______ ____
ROOT
ATOM      1  C   UNL     1       3.112   7.038  17.831  0.00  0.00    +0.000 C 
ATOM      2  C   UNL     1       4.094   6.210  18.220  0.00  0.00    +0.000 C 
ENDROOT
BRANCH   2   3
ATOM      3  C   UNL     1       4.965   5.545  17.233  0.00  0.00    +0.000 A 
ATOM      4  C   UNL     1       4.583   4.313  16.673  0.00  0.00    +0.000 A 
ATOM      5 CL   UNL     1       3.076   3.550  17.068  0.00  0.00    +0.000 Cl
ATOM      6  C   UNL     1       5.411   3.648  15.763  0.00  0.00    +0.000 A 
ATOM      7  C   UNL     1       6.633   4.203  15.393  0.00  0.00    +0.000 A 
ATOM      8  C   UNL     1       7.021   5.430  15.927  0.00  0.00    +0.000 A 
ATOM      9  C   UNL     1       6.195   6.100  16.840  0.00  0.00    +0.000 A 
ATOM     10 CL   UNL     1       6.752   7.623  17.444  0.00  0.00    +0.000 Cl
ENDBRANCH   2   3
BRANCH   1  14
ATOM     11  C   UNL     1       0.667   9.317  20.600  0.00  0.00    +0.000 A 
ATOM     12  C   UNL     1       1.302   8.117  20.955  0.00  0.00    +0.000 A 
ATOM     13  C   UNL     1       2.094   7.394  20.048  0.00  0.00    +0.000 A 
ATOM     14  C   UNL     1       2.292   7.849  18.744  0.00  0.00    +0.000 A 
ATOM     15  C   UNL     1       1.713   9.065  18.385  0.00  0.00    +0.000 A 
ATOM     16  C   UNL     1       0.914   9.778  19.295  0.00  0.00    +0.000 A 
BRANCH  11  18
ATOM     17  C   UNL     1      -0.376  11.456  21.277  0.00  0.00    +0.000 C 
ATOM     18  N   UNL     1      -0.139  10.032  21.491  0.00  0.00    +0.000 N 
ATOM     19  C   UNL     1      -0.253   9.549  22.865  0.00  0.00    +0.000 C 
ENDBRANCH  11  18
ENDBRANCH   1  14
TORSDOF 3
ENDMDL
MODEL 2
REMARK VINA RESULT:      -6.9      0.274      2.508
REMARK  Name = 
REMARK  5 active torsions:
REMARK  status: ('A' for Active; 'I' for Inactive)
REMARK    1  A    between atoms: C_1  and  N_2
REMARK    2  A    between atoms: N_2  and  C_3
REMARK    3  A    between atoms: N_2  and  C_4
REMARK    4  A    between atoms: C_7  and  C_8
REMARK    5  A    between atoms: C_9  and  C_10
REMARK                            x       y       z     vdW  Elec       q    Type
REMARK                         _______ _______ _______ _____ _____    ______ ____
ROOT
ATOM      1  C   UNL     1       3.180   6.959  17.778  0.00  0.00    +0.000 C 
ATOM      2  C   UNL     1       4.146   6.109  18.163  0.00  0.00    +0.000 C 
ENDROOT
BRANCH   2   3
ATOM      3  C   UNL     1       5.013   5.442  17.174  0.00  0.00    +0.000 A 
ATOM      4  C   UNL     1       6.227   6.037  16.786  0.00  0.00    +0.000 A 
ATOM      5 CL   UNL     1       6.778   7.532  17.473  0.00  0.00    +0.000 Cl
ATOM      6  C   UNL     1       7.047   5.440  15.824  0.00  0.00    +0.000 A 
ATOM      7  C   UNL     1       6.671   4.236  15.234  0.00  0.00    +0.000 A 
ATOM      8  C   UNL     1       5.479   3.624  15.616  0.00  0.00    +0.000 A 
ATOM      9  C   UNL     1       4.655   4.220  16.581  0.00  0.00    +0.000 A 
ATOM     10 CL   UNL     1       3.198   3.384  17.003  0.00  0.00    +0.000 Cl
ENDBRANCH   2   3
BRANCH   1  14
ATOM     11  C   UNL     1       0.809   9.471  20.405  0.00  0.00    +0.000 A 
ATOM     12  C   UNL     1       1.057   9.794  19.062  0.00  0.00    +0.000 A 
ATOM     13  C   UNL     1       1.823   8.968  18.223  0.00  0.00    +0.000 A 
ATOM     14  C   UNL     1       2.368   7.772  18.694  0.00  0.00    +0.000 A 
ATOM     15  C   UNL     1       2.091   7.405  20.010  0.00  0.00    +0.000 A 
ATOM     16  C   UNL     1       1.331   8.243  20.845  0.00  0.00    +0.000 A 
BRANCH  11  18
ATOM     17  C   UNL     1      -0.259   9.855  22.602  0.00  0.00    +0.000 C 
ATOM     18  N   UNL     1       0.064  10.298  21.250  0.00  0.00    +0.000 N 
ATOM     19  C   UNL     1      -0.840  11.274  20.647  0.00  0.00    +0.000 C 
ENDBRANCH  11  18
ENDBRANCH   1  14
TORSDOF 3
ENDMDL
MODEL 3
REMARK VINA RESULT:      -6.9      0.279      2.260
REMARK  Name = 
REMARK  5 active torsions:
REMARK  status: ('A' for Active; 'I' for Inactive)
REMARK    1  A    between atoms: C_1  and  N_2
REMARK    2  A    between atoms: N_2  and  C_3
REMARK    3  A    between atoms: N_2  and  C_4
REMARK    4  A    between atoms: C_7  and  C_8
REMARK    5  A    between atoms: C_9  and  C_10
REMARK                            x       y       z     vdW  Elec       q    Type
REMARK                         _______ _______ _______ _____ _____    ______ ____
ROOT
ATOM      1  C   UNL     1       3.151   7.009  17.731  0.00  0.00    +0.000 C 
ATOM      2  C   UNL     1       4.174   6.245  18.146  0.00  0.00    +0.000 C 
ENDROOT
BRANCH   2   3
ATOM      3  C   UNL     1       5.013   5.507  17.185  0.00  0.00    +0.000 A 
ATOM      4  C   UNL     1       6.251   6.036  16.779  0.00  0.00    +0.000 A 
ATOM      5 CL   UNL     1       6.864   7.531  17.411  0.00  0.00    +0.000 Cl
ATOM      6  C   UNL     1       7.047   5.371  15.841  0.00  0.00    +0.000 A 
ATOM      7  C   UNL     1       6.622   4.162  15.294  0.00  0.00    +0.000 A 
ATOM      8  C   UNL     1       5.405   3.615  15.696  0.00  0.00    +0.000 A 
ATOM      9  C   UNL     1       4.605   4.279  16.636  0.00  0.00    +0.000 A 
ATOM     10 CL   UNL     1       3.115   3.522  17.084  0.00  0.00    +0.000 Cl
ENDBRANCH   2   3
BRANCH   1  14
ATOM     11  C   UNL     1       0.769   9.488  20.379  0.00  0.00    +0.000 A 
ATOM     12  C   UNL     1       1.346   8.275  20.786  0.00  0.00    +0.000 A 
ATOM     13  C   UNL     1       2.118   7.486  19.917  0.00  0.00    +0.000 A 
ATOM     14  C   UNL     1       2.355   7.886  18.601  0.00  0.00    +0.000 A 
ATOM     15  C   UNL     1       1.836   9.113  18.192  0.00  0.00    +0.000 A 
ATOM     16  C   UNL     1       1.056   9.891  19.064  0.00  0.00    +0.000 A 
BRANCH  11  18
ATOM     17  C   UNL     1      -0.374   9.767  22.555  0.00  0.00    +0.000 C 
ATOM     18  N   UNL     1      -0.017  10.269  21.232  0.00  0.00    +0.000 N 
ATOM     19  C   UNL     1      -0.920  11.251  20.639  0.00  0.00    +0.000 C 
ENDBRANCH  11  18
ENDBRANCH   1  14
TORSDOF 3
ENDMDL
MODEL 4
REMARK VINA RESULT:      -6.9      0.232      1.367
REMARK  Name = 
REMARK  5 active torsions:
REMARK  status: ('A' for Active; 'I' for Inactive)
REMARK    1  A    between atoms: C_1  and  N_2
REMARK    2  A    between atoms: N_2  and  C_3
REMARK    3  A    between atoms: N_2  and  C_4
REMARK    4  A    between atoms: C_7  and  C_8
REMARK    5  A    between atoms: C_9  and  C_10
REMARK                            x       y       z     vdW  Elec       q    Type
REMARK                         _______ _______ _______ _____ _____    ______ ____
ROOT
ATOM      1  C   UNL     1       3.137   7.027  17.833  0.00  0.00    +0.000 C 
ATOM      2  C   UNL     1       4.117   6.190  18.212  0.00  0.00    +0.000 C 
ENDROOT
BRANCH   2   3
ATOM      3  C   UNL     1       4.983   5.532  17.217  0.00  0.00    +0.000 A 
ATOM      4  C   UNL     1       4.601   4.301  16.653  0.00  0.00    +0.000 A 
ATOM      5 CL   UNL     1       3.099   3.533  17.056  0.00  0.00    +0.000 Cl
ATOM      6  C   UNL     1       5.425   3.642  15.735  0.00  0.00    +0.000 A 
ATOM      7  C   UNL     1       6.643   4.203  15.360  0.00  0.00    +0.000 A 
ATOM      8  C   UNL     1       7.031   5.428  15.897  0.00  0.00    +0.000 A 
ATOM      9  C   UNL     1       6.209   6.092  16.817  0.00  0.00    +0.000 A 
ATOM     10 CL   UNL     1       6.766   7.614  17.424  0.00  0.00    +0.000 Cl
ENDBRANCH   2   3
BRANCH   1  14
ATOM     11  C   UNL     1       0.761   9.516  20.478  0.00  0.00    +0.000 A 
ATOM     12  C   UNL     1       1.013   9.852  19.139  0.00  0.00    +0.000 A 
ATOM     13  C   UNL     1       1.781   9.033  18.294  0.00  0.00    +0.000 A 
ATOM     14  C   UNL     1       2.323   7.832  18.755  0.00  0.00    +0.000 A 
ATOM     15  C   UNL     1       2.041   7.453  20.067  0.00  0.00    +0.000 A 
ATOM     16  C   UNL     1       1.280   8.283  20.907  0.00  0.00    +0.000 A 
BRANCH  11  18
ATOM     17  C   UNL     1      -0.318   9.878  22.674  0.00  0.00    +0.000 C 
ATOM     18  N   UNL     1       0.015  10.336  21.329  0.00  0.00    +0.000 N 
ATOM     19  C   UNL     1      -0.883  11.321  20.733  0.00  0.00    +0.000 C 
ENDBRANCH  11  18
ENDBRANCH   1  14
TORSDOF 3
ENDMDL
MODEL 5
REMARK VINA RESULT:      -6.7      2.360      3.514
REMARK  Name = 
REMARK  5 active torsions:
REMARK  status: ('A' for Active; 'I' for Inactive)
REMARK    1  A    between atoms: C_1  and  N_2
REMARK    2  A    between atoms: N_2  and  C_3
REMARK    3  A    between atoms: N_2  and  C_4
REMARK    4  A    between atoms: C_7  and  C_8
REMARK    5  A    between atoms: C_9  and  C_10
REMARK                            x       y       z     vdW  Elec       q    Type
REMARK                         _______ _______ _______ _____ _____    ______ ____
ROOT
ATOM      1  C   UNL     1       2.566   6.610  19.037  0.00  0.00    +0.000 C 
ATOM      2  C   UNL     1       2.198   5.669  18.152  0.00  0.00    +0.000 C 
ENDROOT
BRANCH   2   3
ATOM      3  C   UNL     1       2.631   4.268  18.305  0.00  0.00    +0.000 A 
ATOM      4  C   UNL     1       3.702   3.773  17.539  0.00  0.00    +0.000 A 
ATOM      5 CL   UNL     1       4.582   4.778  16.432  0.00  0.00    +0.000 Cl
ATOM      6  C   UNL     1       4.105   2.438  17.642  0.00  0.00    +0.000 A 
ATOM      7  C   UNL     1       3.448   1.574  18.515  0.00  0.00    +0.000 A 
ATOM      8  C   UNL     1       2.395   2.051  19.293  0.00  0.00    +0.000 A 
ATOM      9  C   UNL     1       1.988   3.388  19.192  0.00  0.00    +0.000 A 
ATOM     10 CL   UNL     1       0.678   3.896  20.204  0.00  0.00    +0.000 Cl
ENDBRANCH   2   3
BRANCH   1  14
ATOM     11  C   UNL     1       1.007  10.658  19.153  0.00  0.00    +0.000 A 
ATOM     12  C   UNL     1       0.916   9.776  20.241  0.00  0.00    +0.000 A 
ATOM     13  C   UNL     1       1.429   8.470  20.189  0.00  0.00    +0.000 A 
ATOM     14  C   UNL     1       2.068   7.993  19.043  0.00  0.00    +0.000 A 
ATOM     15  C   UNL     1       2.216   8.869  17.969  0.00  0.00    +0.000 A 
ATOM     16  C   UNL     1       1.691  10.171  18.026  0.00  0.00    +0.000 A 
BRANCH  11  18
ATOM     17  C   UNL     1       1.333  13.095  18.882  0.00  0.00    +0.000 C 
ATOM     18  N   UNL     1       0.480  11.953  19.191  0.00  0.00    +0.000 N 
ATOM     19  C   UNL     1      -0.670  12.209  20.054  0.00  0.00    +0.000 C 
ENDBRANCH  11  18
ENDBRANCH   1  14
TORSDOF 3
ENDMDL
MODEL 6
REMARK VINA RESULT:      -6.7      2.396      3.216
REMARK  Name = 
REMARK  5 active torsions:
REMARK  status: ('A' for Active; 'I' for Inactive)
REMARK    1  A    between atoms: C_1  and  N_2
REMARK    2  A    between atoms: N_2  and  C_3
REMARK    3  A    between atoms: N_2  and  C_4
REMARK    4  A    between atoms: C_7  and  C_8
REMARK    5  A    between atoms: C_9  and  C_10
REMARK                            x       y       z     vdW  Elec       q    Type
REMARK                         _______ _______ _______ _____ _____    ______ ____
ROOT
ATOM      1  C   UNL     1       2.593   6.520  18.991  0.00  0.00    +0.000 C 
ATOM      2  C   UNL     1       2.227   5.594  18.091  0.00  0.00    +0.000 C 
ENDROOT
BRANCH   2   3
ATOM      3  C   UNL     1       2.660   4.190  18.223  0.00  0.00    +0.000 A 
ATOM      4  C   UNL     1       2.011   3.336  19.132  0.00  0.00    +0.000 A 
ATOM      5 CL   UNL     1       0.664   3.864  20.090  0.00  0.00    +0.000 Cl
ATOM      6  C   UNL     1       2.428   2.012  19.301  0.00  0.00    +0.000 A 
ATOM      7  C   UNL     1       3.499   1.516  18.561  0.00  0.00    +0.000 A 
ATOM      8  C   UNL     1       4.145   2.344  17.645  0.00  0.00    +0.000 A 
ATOM      9  C   UNL     1       3.730   3.672  17.474  0.00  0.00    +0.000 A 
ATOM     10 CL   UNL     1       4.582   4.625  16.307  0.00  0.00    +0.000 Cl
ENDBRANCH   2   3
BRANCH   1  14
ATOM     11  C   UNL     1       1.036  10.567  19.167  0.00  0.00    +0.000 A 
ATOM     12  C   UNL     1       0.972   9.679  20.252  0.00  0.00    +0.000 A 
ATOM     13  C   UNL     1       1.485   8.374  20.180  0.00  0.00    +0.000 A 
ATOM     14  C   UNL     1       2.095   7.904  19.016  0.00  0.00    +0.000 A 
ATOM     15  C   UNL     1       2.216   8.786  17.944  0.00  0.00    +0.000 A 
ATOM     16  C   UNL     1       1.691  10.087  18.021  0.00  0.00    +0.000 A 
BRANCH  11  18
ATOM     17  C   UNL     1      -0.776  12.153  18.600  0.00  0.00    +0.000 C 
ATOM     18  N   UNL     1       0.509  11.861  19.225  0.00  0.00    +0.000 N 
ATOM     19  C   UNL     1       1.435  12.982  19.370  0.00  0.00    +0.000 C 
ENDBRANCH  11  18
ENDBRANCH   1  14
TORSDOF 3
ENDMDL
MODEL 7
REMARK VINA RESULT:      -6.7      2.396      3.680
REMARK  Name = 
REMARK  5 active torsions:
REMARK  status: ('A' for Active; 'I' for Inactive)
REMARK    1  A    between atoms: C_1  and  N_2
REMARK    2  A    between atoms: N_2  and  C_3
REMARK    3  A    between atoms: N_2  and  C_4
REMARK    4  A    between atoms: C_7  and  C_8
REMARK    5  A    between atoms: C_9  and  C_10
REMARK                            x       y       z     vdW  Elec       q    Type
REMARK                         _______ _______ _______ _____ _____    ______ ____
ROOT
ATOM      1  C   UNL     1       2.519   6.584  19.100  0.00  0.00    +0.000 C 
ATOM      2  C   UNL     1       2.246   5.680  18.146  0.00  0.00    +0.000 C 
ENDROOT
BRANCH   2   3
ATOM      3  C   UNL     1       2.655   4.271  18.291  0.00  0.00    +0.000 A 
ATOM      4  C   UNL     1       3.716   3.761  17.521  0.00  0.00    +0.000 A 
ATOM      5 CL   UNL     1       4.611   4.756  16.417  0.00  0.00    +0.000 Cl
ATOM      6  C   UNL     1       4.096   2.420  17.617  0.00  0.00    +0.000 A 
ATOM      7  C   UNL     1       3.426   1.563  18.487  0.00  0.00    +0.000 A 
ATOM      8  C   UNL     1       2.383   2.054  19.269  0.00  0.00    +0.000 A 
ATOM      9  C   UNL     1       1.999   3.398  19.175  0.00  0.00    +0.000 A 
ATOM     10 CL   UNL     1       0.700   3.924  20.192  0.00  0.00    +0.000 Cl
ENDBRANCH   2   3
BRANCH   1  14
ATOM     11  C   UNL     1       1.164  10.706  19.012  0.00  0.00    +0.000 A 
ATOM     12  C   UNL     1       1.799  10.090  17.923  0.00  0.00    +0.000 A 
ATOM     13  C   UNL     1       2.228   8.753  17.966  0.00  0.00    +0.000 A 
ATOM     14  C   UNL     1       2.028   7.970  19.104  0.00  0.00    +0.000 A 
ATOM     15  C   UNL     1       1.353   8.546  20.179  0.00  0.00    +0.000 A 
ATOM     16  C   UNL     1       0.936   9.887  20.131  0.00  0.00    +0.000 A 
BRANCH  11  18
ATOM     17  C   UNL     1       1.662  13.074  18.497  0.00  0.00    +0.000 C 
ATOM     18  N   UNL     1       0.753  12.042  18.984  0.00  0.00    +0.000 N 
ATOM     19  C   UNL     1      -0.281  12.471  19.923  0.00  0.00    +0.000 C 
ENDBRANCH  11  18
ENDBRANCH   1  14
TORSDOF 3
ENDMDL
MODEL 8
REMARK VINA RESULT:      -6.7      5.043      8.043
REMARK  Name = 
REMARK  5 active torsions:
REMARK  status: ('A' for Active; 'I' for Inactive)
REMARK    1  A    between atoms: C_1  and  N_2
REMARK    2  A    between atoms: N_2  and  C_3
REMARK    3  A    between atoms: N_2  and  C_4
REMARK    4  A    between atoms: C_7  and  C_8
REMARK    5  A    between atoms: C_9  and  C_10
REMARK                            x       y       z     vdW  Elec       q    Type
REMARK                         _______ _______ _______ _____ _____    ______ ____
ROOT
ATOM      1  C   UNL     1       4.622   4.279  17.805  0.00  0.00    +0.000 C 
ATOM      2  C   UNL     1       3.951   3.162  18.128  0.00  0.00    +0.000 C 
ENDROOT
BRANCH   2   3
ATOM      3  C   UNL     1       3.043   3.128  19.289  0.00  0.00    +0.000 A 
ATOM      4  C   UNL     1       1.766   3.710  19.203  0.00  0.00    +0.000 A 
ATOM      5 CL   UNL     1       1.186   4.442  17.740  0.00  0.00    +0.000 Cl
ATOM      6  C   UNL     1       0.902   3.721  20.302  0.00  0.00    +0.000 A 
ATOM      7  C   UNL     1       1.298   3.146  21.508  0.00  0.00    +0.000 A 
ATOM      8  C   UNL     1       2.554   2.552  21.608  0.00  0.00    +0.000 A 
ATOM      9  C   UNL     1       3.422   2.539  20.508  0.00  0.00    +0.000 A 
ATOM     10 CL   UNL     1       4.958   1.769  20.719  0.00  0.00    +0.000 Cl
ENDBRANCH   2   3
BRANCH   1  14
ATOM     11  C   UNL     1       6.929   4.686  14.152  0.00  0.00    +0.000 A 
ATOM     12  C   UNL     1       5.566   4.354  14.158  0.00  0.00    +0.000 A 
ATOM     13  C   UNL     1       4.832   4.230  15.349  0.00  0.00    +0.000 A 
ATOM     14  C   UNL     1       5.434   4.446  16.590  0.00  0.00    +0.000 A 
ATOM     15  C   UNL     1       6.774   4.828  16.605  0.00  0.00    +0.000 A 
ATOM     16  C   UNL     1       7.503   4.940  15.409  0.00  0.00    +0.000 A 
BRANCH  11  18
ATOM     17  C   UNL     1       8.519   5.956  12.745  0.00  0.00    +0.000 C 
ATOM     18  N   UNL     1       7.670   4.791  12.971  0.00  0.00    +0.000 N 
ATOM     19  C   UNL     1       7.184   4.096  11.782  0.00  0.00    +0.000 C 
ENDBRANCH  11  18
ENDBRANCH   1  14
TORSDOF 3
ENDMDL
MODEL 9
REMARK VINA RESULT:      -6.7      2.333      3.303
REMARK  Name = 
REMARK  5 active torsions:
REMARK  status: ('A' for Active; 'I' for Inactive)
REMARK    1  A    between atoms: C_1  and  N_2
REMARK    2  A    between atoms: N_2  and  C_3
REMARK    3  A    between atoms: N_2  and  C_4
REMARK    4  A    between atoms: C_7  and  C_8
REMARK    5  A    between atoms: C_9  and  C_10
REMARK                            x       y       z     vdW  Elec       q    Type
REMARK                         _______ _______ _______ _____ _____    ______ ____
ROOT
ATOM      1  C   UNL     1       2.505   6.576  19.172  0.00  0.00    +0.000 C 
ATOM      2  C   UNL     1       2.214   5.692  18.203  0.00  0.00    +0.000 C 
ENDROOT
BRANCH   2   3
ATOM      3  C   UNL     1       2.656   4.288  18.295  0.00  0.00    +0.000 A 
ATOM      4  C   UNL     1       2.024   3.407  19.191  0.00  0.00    +0.000 A 
ATOM      5 CL   UNL     1       0.688   3.903  20.179  0.00  0.00    +0.000 Cl
ATOM      6  C   UNL     1       2.451   2.082  19.320  0.00  0.00    +0.000 A 
ATOM      7  C   UNL     1       3.515   1.612  18.554  0.00  0.00    +0.000 A 
ATOM      8  C   UNL     1       4.143   2.466  17.650  0.00  0.00    +0.000 A 
ATOM      9  C   UNL     1       3.719   3.795  17.518  0.00  0.00    +0.000 A 
ATOM     10 CL   UNL     1       4.550   4.782  16.365  0.00  0.00    +0.000 Cl
ENDBRANCH   2   3
BRANCH   1  14
ATOM     11  C   UNL     1       1.064  10.668  19.246  0.00  0.00    +0.000 A 
ATOM     12  C   UNL     1       1.642  10.085  18.108  0.00  0.00    +0.000 A 
ATOM     13  C   UNL     1       2.100   8.758  18.098  0.00  0.00    +0.000 A 
ATOM     14  C   UNL     1       1.988   7.951  19.232  0.00  0.00    +0.000 A 
ATOM     15  C   UNL     1       1.370   8.493  20.357  0.00  0.00    +0.000 A 
ATOM     16  C   UNL     1       0.924   9.825  20.361  0.00  0.00    +0.000 A 
BRANCH  11  18
ATOM     17  C   UNL     1       1.072  12.893  20.328  0.00  0.00    +0.000 C 
ATOM     18  N   UNL     1       0.625  11.996  19.268  0.00  0.00    +0.000 N 
ATOM     19  C   UNL     1      -0.653  12.314  18.636  0.00  0.00    +0.000 C 
ENDBRANCH  11  18
ENDBRANCH   1  14
TORSDOF 3
ENDMDL
