MODEL 1
REMARK VINA RESULT:      -6.6      0.000      0.000
REMARK  Name = 
REMARK  9 active torsions:
REMARK  status: ('A' for Active; 'I' for Inactive)
REMARK    1  A    between atoms: C_1  and  C_2
REMARK    2  A    between atoms: N_4  and  C_5
REMARK    3  A    between atoms: C_7  and  C_8
REMARK    4  A    between atoms: C_15  and  C_16
REMARK    5  A    between atoms: C_16  and  O_18
REMARK    6  A    between atoms: O_18  and  C_19
REMARK    7  A    between atoms: C_19  and  C_20
REMARK    8  A    between atoms: C_19  and  C_21
REMARK    9  A    between atoms: C_19  and  C_22
REMARK                            x       y       z     vdW  Elec       q    Type
REMARK                         _______ _______ _______ _____ _____    ______ ____
ROOT
ATOM      1  C   UNL     1      -4.551  16.093  20.478  0.00  0.00    +0.000 C 
ATOM      2  C   UNL     1      -4.998  14.771  21.104  0.00  0.00    +0.000 C 
ATOM      3  C   UNL     1      -5.843  14.887  22.378  0.00  0.00    +0.000 C 
ATOM      4  N   UNL     1      -7.172  15.425  22.118  0.00  0.00    +0.000 NA
ATOM      5  C   UNL     1      -7.912  15.471  23.380  0.00  0.00    +0.000 C 
ATOM      6  C   UNL     1      -7.848  14.566  21.121  0.00  0.00    +0.000 C 
ATOM      7  C   UNL     1      -7.024  14.355  19.802  0.00  0.00    +0.000 C 
ATOM      8  C   UNL     1      -7.916  13.613  18.801  0.00  0.00    +0.000 C 
ATOM      9  N   UNL     1      -5.631  13.850  20.106  0.00  0.00    +0.000 N 
ATOM     10  C   UNL     1      -5.070  12.772  19.367  0.00  0.00    +0.000 C 
ATOM     11  O   UNL     1      -5.788  12.145  18.584  0.00  0.00    +0.000 OA
ATOM     12  N   UNL     1      -3.714  12.385  19.547  0.00  0.00    +0.000 N 
ATOM     13  C   UNL     1      -3.010  12.831  20.710  0.00  0.00    +0.000 C 
ATOM     14  C   UNL     1      -1.697  12.306  21.015  0.00  0.00    +0.000 A 
ATOM     15  C   UNL     1      -0.849  12.598  22.063  0.00  0.00    +0.000 A 
ATOM     16  N   UNL     1       0.339  11.931  21.848  0.00  0.00    +0.000 NA
ATOM     17  C   UNL     1       0.178  11.277  20.707  0.00  0.00    +0.000 A 
ATOM     18  N   UNL     1      -1.065  11.478  20.158  0.00  0.00    +0.000 N 
ATOM     19  C   UNL     1      -1.663  11.046  18.959  0.00  0.00    +0.000 A 
ATOM     20  C   UNL     1      -0.943  10.204  18.097  0.00  0.00    +0.000 A 
ATOM     21  C   UNL     1      -1.520   9.785  16.903  0.00  0.00    +0.000 A 
ATOM     22  C   UNL     1      -2.799  10.216  16.569  0.00  0.00    +0.000 A 
ATOM     23 CL   UNL     1      -3.496   9.701  15.080  0.00  0.00    +0.000 Cl
ATOM     24  C   UNL     1      -3.518  11.063  17.420  0.00  0.00    +0.000 A 
ATOM     25  C   UNL     1      -2.985  11.491  18.647  0.00  0.00    +0.000 A 
ENDROOT
BRANCH  15  26
ATOM     26  C   UNL     1      -1.166  13.528  23.177  0.00  0.00    +0.000 C 
ATOM     27  O   UNL     1      -2.232  13.463  23.781  0.00  0.00    +0.000 OA
BRANCH  26  28
ATOM     28  O   UNL     1      -0.187  14.437  23.432  0.00  0.00    +0.000 OA
BRANCH  28  29
ATOM     29  C   UNL     1      -0.077  15.651  22.632  0.00  0.00    +0.000 C 
ATOM     30  C   UNL     1      -1.419  16.029  21.990  0.00  0.00    +0.000 C 
ATOM     31  C   UNL     1       0.312  16.760  23.623  0.00  0.00    +0.000 C 
ATOM     32  C   UNL     1       1.038  15.546  21.581  0.00  0.00    +0.000 C 
ENDBRANCH  28  29
ENDBRANCH  26  28
ENDBRANCH  15  26
TORSDOF 3
ENDMDL
MODEL 2
REMARK VINA RESULT:      -6.1      2.226      5.412
REMARK  Name = 
REMARK  9 active torsions:
REMARK  status: ('A' for Active; 'I' for Inactive)
REMARK    1  A    between atoms: C_1  and  C_2
REMARK    2  A    between atoms: N_4  and  C_5
REMARK    3  A    between atoms: C_7  and  C_8
REMARK    4  A    between atoms: C_15  and  C_16
REMARK    5  A    between atoms: C_16  and  O_18
REMARK    6  A    between atoms: O_18  and  C_19
REMARK    7  A    between atoms: C_19  and  C_20
REMARK    8  A    between atoms: C_19  and  C_21
REMARK    9  A    between atoms: C_19  and  C_22
REMARK                            x       y       z     vdW  Elec       q    Type
REMARK                         _______ _______ _______ _____ _____    ______ ____
ROOT
ATOM      1  C   UNL     1       0.221  11.736  22.182  0.00  0.00    +0.000 C 
ATOM      2  C   UNL     1      -0.218  13.049  21.533  0.00  0.00    +0.000 C 
ATOM      3  C   UNL     1       0.305  14.329  22.195  0.00  0.00    +0.000 C 
ATOM      4  N   UNL     1       1.741  14.504  22.012  0.00  0.00    +0.000 NA
ATOM      5  C   UNL     1       2.142  15.759  22.648  0.00  0.00    +0.000 C 
ATOM      6  C   UNL     1       2.040  14.507  20.563  0.00  0.00    +0.000 C 
ATOM      7  C   UNL     1       1.493  13.249  19.799  0.00  0.00    +0.000 C 
ATOM      8  C   UNL     1       2.034  13.295  18.366  0.00  0.00    +0.000 C 
ATOM      9  N   UNL     1       0.013  13.061  20.053  0.00  0.00    +0.000 N 
ATOM     10  C   UNL     1      -0.877  12.776  18.982  0.00  0.00    +0.000 C 
ATOM     11  O   UNL     1      -0.462  12.842  17.823  0.00  0.00    +0.000 OA
ATOM     12  N   UNL     1      -2.241  12.455  19.227  0.00  0.00    +0.000 N 
ATOM     13  C   UNL     1      -2.811  12.762  20.503  0.00  0.00    +0.000 C 
ATOM     14  C   UNL     1      -4.235  12.621  20.720  0.00  0.00    +0.000 A 
ATOM     15  C   UNL     1      -4.984  12.849  21.855  0.00  0.00    +0.000 A 
ATOM     16  N   UNL     1      -6.280  12.455  21.597  0.00  0.00    +0.000 NA
ATOM     17  C   UNL     1      -6.274  12.008  20.350  0.00  0.00    +0.000 A 
ATOM     18  N   UNL     1      -5.032  12.094  19.768  0.00  0.00    +0.000 N 
ATOM     19  C   UNL     1      -4.536  11.703  18.509  0.00  0.00    +0.000 A 
ATOM     20  C   UNL     1      -5.413  11.138  17.571  0.00  0.00    +0.000 A 
ATOM     21  C   UNL     1      -4.928  10.736  16.331  0.00  0.00    +0.000 A 
ATOM     22  C   UNL     1      -3.577  10.885  16.039  0.00  0.00    +0.000 A 
ATOM     23 CL   UNL     1      -2.987  10.369  14.505  0.00  0.00    +0.000 Cl
ATOM     24  C   UNL     1      -2.696  11.439  16.975  0.00  0.00    +0.000 A 
ATOM     25  C   UNL     1      -3.145  11.883  18.230  0.00  0.00    +0.000 A 
ENDROOT
BRANCH  15  26
ATOM     26  C   UNL     1      -4.443  13.367  23.137  0.00  0.00    +0.000 C 
ATOM     27  O   UNL     1      -3.578  12.759  23.759  0.00  0.00    +0.000 OA
BRANCH  26  28
ATOM     28  O   UNL     1      -5.005  14.540  23.539  0.00  0.00    +0.000 OA
BRANCH  28  29
ATOM     29  C   UNL     1      -4.204  15.756  23.616  0.00  0.00    +0.000 C 
ATOM     30  C   UNL     1      -3.229  15.867  22.435  0.00  0.00    +0.000 C 
ATOM     31  C   UNL     1      -5.211  16.914  23.520  0.00  0.00    +0.000 C 
ATOM     32  C   UNL     1      -3.473  15.877  24.961  0.00  0.00    +0.000 C 
ENDBRANCH  28  29
ENDBRANCH  26  28
ENDBRANCH  15  26
TORSDOF 3
ENDMDL
MODEL 3
REMARK VINA RESULT:      -6.1      2.623      4.075
REMARK  Name = 
REMARK  9 active torsions:
REMARK  status: ('A' for Active; 'I' for Inactive)
REMARK    1  A    between atoms: C_1  and  C_2
REMARK    2  A    between atoms: N_4  and  C_5
REMARK    3  A    between atoms: C_7  and  C_8
REMARK    4  A    between atoms: C_15  and  C_16
REMARK    5  A    between atoms: C_16  and  O_18
REMARK    6  A    between atoms: O_18  and  C_19
REMARK    7  A    between atoms: C_19  and  C_20
REMARK    8  A    between atoms: C_19  and  C_21
REMARK    9  A    between atoms: C_19  and  C_22
REMARK                            x       y       z     vdW  Elec       q    Type
REMARK                         _______ _______ _______ _____ _____    ______ ____
ROOT
ATOM      1  C   UNL     1      -1.312  16.904  20.978  0.00  0.00    +0.000 C 
ATOM      2  C   UNL     1      -1.409  15.725  21.947  0.00  0.00    +0.000 C 
ATOM      3  C   UNL     1      -0.810  15.955  23.340  0.00  0.00    +0.000 C 
ATOM      4  N   UNL     1      -1.583  16.906  24.129  0.00  0.00    +0.000 NA
ATOM      5  C   UNL     1      -0.956  17.039  25.445  0.00  0.00    +0.000 C 
ATOM      6  C   UNL     1      -2.975  16.418  24.235  0.00  0.00    +0.000 C 
ATOM      7  C   UNL     1      -3.648  16.111  22.850  0.00  0.00    +0.000 C 
ATOM      8  C   UNL     1      -5.127  15.801  23.102  0.00  0.00    +0.000 C 
ATOM      9  N   UNL     1      -2.796  15.166  22.031  0.00  0.00    +0.000 N 
ATOM     10  C   UNL     1      -3.381  14.057  21.359  0.00  0.00    +0.000 C 
ATOM     11  O   UNL     1      -4.562  13.777  21.580  0.00  0.00    +0.000 OA
ATOM     12  N   UNL     1      -2.617  13.250  20.473  0.00  0.00    +0.000 N 
ATOM     13  C   UNL     1      -1.189  13.320  20.521  0.00  0.00    +0.000 C 
ATOM     14  C   UNL     1      -0.385  12.382  19.768  0.00  0.00    +0.000 A 
ATOM     15  C   UNL     1       0.986  12.275  19.664  0.00  0.00    +0.000 A 
ATOM     16  N   UNL     1       1.268  11.300  18.731  0.00  0.00    +0.000 NA
ATOM     17  C   UNL     1       0.092  10.861  18.308  0.00  0.00    +0.000 A 
ATOM     18  N   UNL     1      -0.958  11.500  18.924  0.00  0.00    +0.000 N 
ATOM     19  C   UNL     1      -2.355  11.413  18.768  0.00  0.00    +0.000 A 
ATOM     20  C   UNL     1      -2.888  10.492  17.854  0.00  0.00    +0.000 A 
ATOM     21  C   UNL     1      -4.266  10.410  17.684  0.00  0.00    +0.000 A 
ATOM     22  C   UNL     1      -5.100  11.252  18.410  0.00  0.00    +0.000 A 
ATOM     23 CL   UNL     1      -6.804  11.151  18.178  0.00  0.00    +0.000 Cl
ATOM     24  C   UNL     1      -4.573  12.180  19.316  0.00  0.00    +0.000 A 
ATOM     25  C   UNL     1      -3.190  12.280  19.539  0.00  0.00    +0.000 A 
ENDROOT
BRANCH  15  26
ATOM     26  C   UNL     1       1.960  13.126  20.394  0.00  0.00    +0.000 C 
ATOM     27  O   UNL     1       1.844  13.346  21.595  0.00  0.00    +0.000 OA
BRANCH  26  28
ATOM     28  O   UNL     1       2.950  13.630  19.607  0.00  0.00    +0.000 OA
BRANCH  28  29
ATOM     29  C   UNL     1       2.936  15.033  19.210  0.00  0.00    +0.000 C 
ATOM     30  C   UNL     1       3.620  15.924  20.256  0.00  0.00    +0.000 C 
ATOM     31  C   UNL     1       3.757  15.098  17.911  0.00  0.00    +0.000 C 
ATOM     32  C   UNL     1       1.517  15.527  18.894  0.00  0.00    +0.000 C 
ENDBRANCH  28  29
ENDBRANCH  26  28
ENDBRANCH  15  26
TORSDOF 3
ENDMDL
MODEL 4
REMARK VINA RESULT:      -6.1      2.246      5.611
REMARK  Name = 
REMARK  9 active torsions:
REMARK  status: ('A' for Active; 'I' for Inactive)
REMARK    1  A    between atoms: C_1  and  C_2
REMARK    2  A    between atoms: N_4  and  C_5
REMARK    3  A    between atoms: C_7  and  C_8
REMARK    4  A    between atoms: C_15  and  C_16
REMARK    5  A    between atoms: C_16  and  O_18
REMARK    6  A    between atoms: O_18  and  C_19
REMARK    7  A    between atoms: C_19  and  C_20
REMARK    8  A    between atoms: C_19  and  C_21
REMARK    9  A    between atoms: C_19  and  C_22
REMARK                            x       y       z     vdW  Elec       q    Type
REMARK                         _______ _______ _______ _____ _____    ______ ____
ROOT
ATOM      1  C   UNL     1      -1.818  14.230  23.902  0.00  0.00    +0.000 C 
ATOM      2  C   UNL     1      -1.721  15.023  22.598  0.00  0.00    +0.000 C 
ATOM      3  C   UNL     1      -1.866  16.544  22.729  0.00  0.00    +0.000 C 
ATOM      4  N   UNL     1      -0.728  17.157  23.402  0.00  0.00    +0.000 NA
ATOM      5  C   UNL     1      -0.940  18.604  23.454  0.00  0.00    +0.000 C 
ATOM      6  C   UNL     1       0.506  16.813  22.661  0.00  0.00    +0.000 C 
ATOM      7  C   UNL     1       0.706  15.272  22.441  0.00  0.00    +0.000 C 
ATOM      8  C   UNL     1       2.097  15.057  21.836  0.00  0.00    +0.000 C 
ATOM      9  N   UNL     1      -0.514  14.653  21.792  0.00  0.00    +0.000 N 
ATOM     10  C   UNL     1      -0.379  13.747  20.705  0.00  0.00    +0.000 C 
ATOM     11  O   UNL     1       0.731  13.592  20.188  0.00  0.00    +0.000 OA
ATOM     12  N   UNL     1      -1.504  13.051  20.184  0.00  0.00    +0.000 N 
ATOM     13  C   UNL     1      -2.819  13.516  20.503  0.00  0.00    +0.000 C 
ATOM     14  C   UNL     1      -3.975  12.948  19.843  0.00  0.00    +0.000 A 
ATOM     15  C   UNL     1      -5.314  13.235  20.001  0.00  0.00    +0.000 A 
ATOM     16  N   UNL     1      -6.035  12.342  19.237  0.00  0.00    +0.000 NA
ATOM     17  C   UNL     1      -5.134  11.560  18.660  0.00  0.00    +0.000 A 
ATOM     18  N   UNL     1      -3.848  11.900  19.003  0.00  0.00    +0.000 N 
ATOM     19  C   UNL     1      -2.594  11.341  18.690  0.00  0.00    +0.000 A 
ATOM     20  C   UNL     1      -2.532  10.234  17.829  0.00  0.00    +0.000 A 
ATOM     21  C   UNL     1      -1.298   9.667  17.526  0.00  0.00    +0.000 A 
ATOM     22  C   UNL     1      -0.142  10.193  18.091  0.00  0.00    +0.000 A 
ATOM     23 CL   UNL     1       1.377   9.470  17.719  0.00  0.00    +0.000 Cl
ATOM     24  C   UNL     1      -0.200  11.290  18.958  0.00  0.00    +0.000 A 
ATOM     25  C   UNL     1      -1.420  11.911  19.272  0.00  0.00    +0.000 A 
ENDROOT
BRANCH  15  26
ATOM     26  C   UNL     1      -5.855  14.287  20.899  0.00  0.00    +0.000 C 
ATOM     27  O   UNL     1      -5.439  15.440  20.859  0.00  0.00    +0.000 OA
BRANCH  26  28
ATOM     28  O   UNL     1      -6.817  13.842  21.753  0.00  0.00    +0.000 OA
BRANCH  28  29
ATOM     29  C   UNL     1      -6.566  13.789  23.188  0.00  0.00    +0.000 C 
ATOM     30  C   UNL     1      -6.675  15.178  23.833  0.00  0.00    +0.000 C 
ATOM     31  C   UNL     1      -7.680  12.900  23.766  0.00  0.00    +0.000 C 
ATOM     32  C   UNL     1      -5.219  13.125  23.511  0.00  0.00    +0.000 C 
ENDBRANCH  28  29
ENDBRANCH  26  28
ENDBRANCH  15  26
TORSDOF 3
ENDMDL
MODEL 5
REMARK VINA RESULT:      -6.1      2.535      3.798
REMARK  Name = 
REMARK  9 active torsions:
REMARK  status: ('A' for Active; 'I' for Inactive)
REMARK    1  A    between atoms: C_1  and  C_2
REMARK    2  A    between atoms: N_4  and  C_5
REMARK    3  A    between atoms: C_7  and  C_8
REMARK    4  A    between atoms: C_15  and  C_16
REMARK    5  A    between atoms: C_16  and  O_18
REMARK    6  A    between atoms: O_18  and  C_19
REMARK    7  A    between atoms: C_19  and  C_20
REMARK    8  A    between atoms: C_19  and  C_21
REMARK    9  A    between atoms: C_19  and  C_22
REMARK                            x       y       z     vdW  Elec       q    Type
REMARK                         _______ _______ _______ _____ _____    ______ ____
ROOT
ATOM      1  C   UNL     1      -1.877  16.995  21.770  0.00  0.00    +0.000 C 
ATOM      2  C   UNL     1      -1.864  15.709  22.598  0.00  0.00    +0.000 C 
ATOM      3  C   UNL     1      -1.269  15.826  24.006  0.00  0.00    +0.000 C 
ATOM      4  N   UNL     1      -2.108  16.612  24.902  0.00  0.00    +0.000 NA
ATOM      5  C   UNL     1      -1.478  16.645  26.222  0.00  0.00    +0.000 C 
ATOM      6  C   UNL     1      -3.454  16.000  24.954  0.00  0.00    +0.000 C 
ATOM      7  C   UNL     1      -4.115  15.799  23.545  0.00  0.00    +0.000 C 
ATOM      8  C   UNL     1      -5.561  15.339  23.763  0.00  0.00    +0.000 C 
ATOM      9  N   UNL     1      -3.199  15.029  22.619  0.00  0.00    +0.000 N 
ATOM     10  C   UNL     1      -3.697  13.960  21.825  0.00  0.00    +0.000 C 
ATOM     11  O   UNL     1      -4.848  13.558  22.015  0.00  0.00    +0.000 OA
ATOM     12  N   UNL     1      -2.880  13.327  20.850  0.00  0.00    +0.000 N 
ATOM     13  C   UNL     1      -1.462  13.511  20.902  0.00  0.00    +0.000 C 
ATOM     14  C   UNL     1      -0.592  12.736  20.044  0.00  0.00    +0.000 A 
ATOM     15  C   UNL     1       0.782  12.758  19.924  0.00  0.00    +0.000 A 
ATOM     16  N   UNL     1       1.132  11.923  18.884  0.00  0.00    +0.000 NA
ATOM     17  C   UNL     1      -0.009  11.439  18.416  0.00  0.00    +0.000 A 
ATOM     18  N   UNL     1      -1.100  11.912  19.104  0.00  0.00    +0.000 N 
ATOM     19  C   UNL     1      -2.487  11.727  18.943  0.00  0.00    +0.000 A 
ATOM     20  C   UNL     1      -2.953  10.875  17.930  0.00  0.00    +0.000 A 
ATOM     21  C   UNL     1      -4.321  10.699  17.755  0.00  0.00    +0.000 A 
ATOM     22  C   UNL     1      -5.213  11.378  18.576  0.00  0.00    +0.000 A 
ATOM     23 CL   UNL     1      -6.906  11.162  18.338  0.00  0.00    +0.000 Cl
ATOM     24  C   UNL     1      -4.754  12.237  19.582  0.00  0.00    +0.000 A 
ATOM     25  C   UNL     1      -3.382  12.426  19.812  0.00  0.00    +0.000 A 
ENDROOT
BRANCH  15  26
ATOM     26  C   UNL     1       1.691  13.598  20.745  0.00  0.00    +0.000 C 
ATOM     27  O   UNL     1       2.644  13.112  21.345  0.00  0.00    +0.000 OA
BRANCH  26  28
ATOM     28  O   UNL     1       1.351  14.916  20.771  0.00  0.00    +0.000 OA
BRANCH  28  29
ATOM     29  C   UNL     1       1.694  15.790  19.655  0.00  0.00    +0.000 C 
ATOM     30  C   UNL     1       0.466  16.115  18.793  0.00  0.00    +0.000 C 
ATOM     31  C   UNL     1       2.192  17.095  20.297  0.00  0.00    +0.000 C 
ATOM     32  C   UNL     1       2.838  15.216  18.807  0.00  0.00    +0.000 C 
ENDBRANCH  28  29
ENDBRANCH  26  28
ENDBRANCH  15  26
TORSDOF 3
ENDMDL
MODEL 6
REMARK VINA RESULT:      -6.0      2.190      5.462
REMARK  Name = 
REMARK  9 active torsions:
REMARK  status: ('A' for Active; 'I' for Inactive)
REMARK    1  A    between atoms: C_1  and  C_2
REMARK    2  A    between atoms: N_4  and  C_5
REMARK    3  A    between atoms: C_7  and  C_8
REMARK    4  A    between atoms: C_15  and  C_16
REMARK    5  A    between atoms: C_16  and  O_18
REMARK    6  A    between atoms: O_18  and  C_19
REMARK    7  A    between atoms: C_19  and  C_20
REMARK    8  A    between atoms: C_19  and  C_21
REMARK    9  A    between atoms: C_19  and  C_22
REMARK                            x       y       z     vdW  Elec       q    Type
REMARK                         _______ _______ _______ _____ _____    ______ ____
ROOT
ATOM      1  C   UNL     1      -0.387  12.125  22.724  0.00  0.00    +0.000 C 
ATOM      2  C   UNL     1      -0.908  13.380  22.022  0.00  0.00    +0.000 C 
ATOM      3  C   UNL     1      -0.594  14.712  22.714  0.00  0.00    +0.000 C 
ATOM      4  N   UNL     1       0.823  15.047  22.660  0.00  0.00    +0.000 NA
ATOM      5  C   UNL     1       1.021  16.340  23.316  0.00  0.00    +0.000 C 
ATOM      6  C   UNL     1       1.252  15.081  21.245  0.00  0.00    +0.000 C 
ATOM      7  C   UNL     1       0.922  13.769  20.449  0.00  0.00    +0.000 C 
ATOM      8  C   UNL     1       1.583  13.873  19.071  0.00  0.00    +0.000 C 
ATOM      9  N   UNL     1      -0.545  13.416  20.569  0.00  0.00    +0.000 N 
ATOM     10  C   UNL     1      -1.296  13.031  19.425  0.00  0.00    +0.000 C 
ATOM     11  O   UNL     1      -0.786  13.142  18.308  0.00  0.00    +0.000 OA
ATOM     12  N   UNL     1      -2.632  12.559  19.548  0.00  0.00    +0.000 N 
ATOM     13  C   UNL     1      -3.348  12.802  20.764  0.00  0.00    +0.000 C 
ATOM     14  C   UNL     1      -4.761  12.502  20.852  0.00  0.00    +0.000 A 
ATOM     15  C   UNL     1      -5.631  12.647  21.911  0.00  0.00    +0.000 A 
ATOM     16  N   UNL     1      -6.846  12.109  21.541  0.00  0.00    +0.000 NA
ATOM     17  C   UNL     1      -6.676  11.663  20.305  0.00  0.00    +0.000 A 
ATOM     18  N   UNL     1      -5.403  11.888  19.837  0.00  0.00    +0.000 N 
ATOM     19  C   UNL     1      -4.753  11.553  18.634  0.00  0.00    +0.000 A 
ATOM     20  C   UNL     1      -5.471  10.891  17.626  0.00  0.00    +0.000 A 
ATOM     21  C   UNL     1      -4.833  10.545  16.440  0.00  0.00    +0.000 A 
ATOM     22  C   UNL     1      -3.486  10.844  16.271  0.00  0.00    +0.000 A 
ATOM     23 CL   UNL     1      -2.704  10.395  14.803  0.00  0.00    +0.000 Cl
ATOM     24  C   UNL     1      -2.762  11.495  17.277  0.00  0.00    +0.000 A 
ATOM     25  C   UNL     1      -3.371  11.888  18.480  0.00  0.00    +0.000 A 
ENDROOT
BRANCH  15  26
ATOM     26  C   UNL     1      -5.272  13.224  23.231  0.00  0.00    +0.000 C 
ATOM     27  O   UNL     1      -5.208  12.527  24.239  0.00  0.00    +0.000 OA
BRANCH  26  28
ATOM     28  O   UNL     1      -5.046  14.566  23.204  0.00  0.00    +0.000 OA
BRANCH  28  29
ATOM     29  C   UNL     1      -6.152  15.505  23.349  0.00  0.00    +0.000 C 
ATOM     30  C   UNL     1      -7.389  14.833  23.962  0.00  0.00    +0.000 C 
ATOM     31  C   UNL     1      -5.651  16.578  24.330  0.00  0.00    +0.000 C 
ATOM     32  C   UNL     1      -6.491  16.201  22.023  0.00  0.00    +0.000 C 
ENDBRANCH  28  29
ENDBRANCH  26  28
ENDBRANCH  15  26
TORSDOF 3
ENDMDL
MODEL 7
REMARK VINA RESULT:      -6.0      3.396      6.231
REMARK  Name = 
REMARK  9 active torsions:
REMARK  status: ('A' for Active; 'I' for Inactive)
REMARK    1  A    between atoms: C_1  and  C_2
REMARK    2  A    between atoms: N_4  and  C_5
REMARK    3  A    between atoms: C_7  and  C_8
REMARK    4  A    between atoms: C_15  and  C_16
REMARK    5  A    between atoms: C_16  and  O_18
REMARK    6  A    between atoms: O_18  and  C_19
REMARK    7  A    between atoms: C_19  and  C_20
REMARK    8  A    between atoms: C_19  and  C_21
REMARK    9  A    between atoms: C_19  and  C_22
REMARK                            x       y       z     vdW  Elec       q    Type
REMARK                         _______ _______ _______ _____ _____    ______ ____
ROOT
ATOM      1  C   UNL     1      -1.901  12.162  23.265  0.00  0.00    +0.000 C 
ATOM      2  C   UNL     1      -2.358  12.907  22.010  0.00  0.00    +0.000 C 
ATOM      3  C   UNL     1      -3.812  12.669  21.585  0.00  0.00    +0.000 C 
ATOM      4  N   UNL     1      -4.768  13.265  22.510  0.00  0.00    +0.000 NA
ATOM      5  C   UNL     1      -6.120  13.013  22.010  0.00  0.00    +0.000 C 
ATOM      6  C   UNL     1      -4.487  14.713  22.620  0.00  0.00    +0.000 C 
ATOM      7  C   UNL     1      -3.002  15.045  23.005  0.00  0.00    +0.000 C 
ATOM      8  C   UNL     1      -2.907  16.552  23.265  0.00  0.00    +0.000 C 
ATOM      9  N   UNL     1      -2.032  14.368  22.062  0.00  0.00    +0.000 N 
ATOM     10  C   UNL     1      -0.930  15.082  21.517  0.00  0.00    +0.000 C 
ATOM     11  O   UNL     1      -0.860  16.301  21.691  0.00  0.00    +0.000 OA
ATOM     12  N   UNL     1       0.066  14.420  20.747  0.00  0.00    +0.000 N 
ATOM     13  C   UNL     1      -0.213  13.121  20.217  0.00  0.00    +0.000 C 
ATOM     14  C   UNL     1       0.701  12.503  19.279  0.00  0.00    +0.000 A 
ATOM     15  C   UNL     1       0.634  11.273  18.660  0.00  0.00    +0.000 A 
ATOM     16  N   UNL     1       1.803  11.090  17.952  0.00  0.00    +0.000 NA
ATOM     17  C   UNL     1       2.522  12.182  18.162  0.00  0.00    +0.000 A 
ATOM     18  N   UNL     1       1.879  13.084  18.975  0.00  0.00    +0.000 N 
ATOM     19  C   UNL     1       2.258  14.331  19.508  0.00  0.00    +0.000 A 
ATOM     20  C   UNL     1       3.509  14.870  19.172  0.00  0.00    +0.000 A 
ATOM     21  C   UNL     1       3.897  16.095  19.707  0.00  0.00    +0.000 A 
ATOM     22  C   UNL     1       3.047  16.764  20.579  0.00  0.00    +0.000 A 
ATOM     23 CL   UNL     1       3.546  18.273  21.245  0.00  0.00    +0.000 Cl
ATOM     24  C   UNL     1       1.802  16.227  20.925  0.00  0.00    +0.000 A 
ATOM     25  C   UNL     1       1.358  15.006  20.391  0.00  0.00    +0.000 A 
ENDROOT
BRANCH  15  26
ATOM     26  C   UNL     1      -0.486  10.309  18.806  0.00  0.00    +0.000 C 
ATOM     27  O   UNL     1      -0.783   9.834  19.897  0.00  0.00    +0.000 OA
BRANCH  26  28
ATOM     28  O   UNL     1      -1.112  10.009  17.636  0.00  0.00    +0.000 OA
BRANCH  28  29
ATOM     29  C   UNL     1      -2.443  10.533  17.353  0.00  0.00    +0.000 C 
ATOM     30  C   UNL     1      -2.657  10.753  15.849  0.00  0.00    +0.000 C 
ATOM     31  C   UNL     1      -3.420   9.444  17.825  0.00  0.00    +0.000 C 
ATOM     32  C   UNL     1      -2.739  11.810  18.154  0.00  0.00    +0.000 C 
ENDBRANCH  28  29
ENDBRANCH  26  28
ENDBRANCH  15  26
TORSDOF 3
ENDMDL
MODEL 8
REMARK VINA RESULT:      -6.0      3.140      7.134
REMARK  Name = 
REMARK  9 active torsions:
REMARK  status: ('A' for Active; 'I' for Inactive)
REMARK    1  A    between atoms: C_1  and  C_2
REMARK    2  A    between atoms: N_4  and  C_5
REMARK    3  A    between atoms: C_7  and  C_8
REMARK    4  A    between atoms: C_15  and  C_16
REMARK    5  A    between atoms: C_16  and  O_18
REMARK    6  A    between atoms: O_18  and  C_19
REMARK    7  A    between atoms: C_19  and  C_20
REMARK    8  A    between atoms: C_19  and  C_21
REMARK    9  A    between atoms: C_19  and  C_22
REMARK                            x       y       z     vdW  Elec       q    Type
REMARK                         _______ _______ _______ _____ _____    ______ ____
ROOT
ATOM      1  C   UNL     1      -2.062  10.770  18.585  0.00  0.00    +0.000 C 
ATOM      2  C   UNL     1      -1.236  11.263  19.774  0.00  0.00    +0.000 C 
ATOM      3  C   UNL     1      -0.779  10.184  20.763  0.00  0.00    +0.000 C 
ATOM      4  N   UNL     1       0.228   9.297  20.194  0.00  0.00    +0.000 NA
ATOM      5  C   UNL     1       0.623   8.325  21.214  0.00  0.00    +0.000 C 
ATOM      6  C   UNL     1       1.378  10.111  19.742  0.00  0.00    +0.000 C 
ATOM      7  C   UNL     1       0.988  11.273  18.762  0.00  0.00    +0.000 C 
ATOM      8  C   UNL     1       2.283  11.902  18.236  0.00  0.00    +0.000 C 
ATOM      9  N   UNL     1      -0.099  12.142  19.356  0.00  0.00    +0.000 N 
ATOM     10  C   UNL     1      -0.006  13.560  19.302  0.00  0.00    +0.000 C 
ATOM     11  O   UNL     1       1.043  14.078  18.913  0.00  0.00    +0.000 OA
ATOM     12  N   UNL     1      -1.085  14.383  19.726  0.00  0.00    +0.000 N 
ATOM     13  C   UNL     1      -2.121  13.814  20.533  0.00  0.00    +0.000 C 
ATOM     14  C   UNL     1      -3.129  14.661  21.133  0.00  0.00    +0.000 A 
ATOM     15  C   UNL     1      -4.206  14.329  21.928  0.00  0.00    +0.000 A 
ATOM     16  N   UNL     1      -4.942  15.474  22.148  0.00  0.00    +0.000 NA
ATOM     17  C   UNL     1      -4.308  16.436  21.495  0.00  0.00    +0.000 A 
ATOM     18  N   UNL     1      -3.180  15.980  20.855  0.00  0.00    +0.000 N 
ATOM     19  C   UNL     1      -2.238  16.604  20.015  0.00  0.00    +0.000 A 
ATOM     20  C   UNL     1      -2.362  17.976  19.744  0.00  0.00    +0.000 A 
ATOM     21  C   UNL     1      -1.444  18.597  18.904  0.00  0.00    +0.000 A 
ATOM     22  C   UNL     1      -0.422  17.850  18.330  0.00  0.00    +0.000 A 
ATOM     23 CL   UNL     1       0.699  18.629  17.278  0.00  0.00    +0.000 Cl
ATOM     24  C   UNL     1      -0.300  16.480  18.588  0.00  0.00    +0.000 A 
ATOM     25  C   UNL     1      -1.188  15.816  19.450  0.00  0.00    +0.000 A 
ENDROOT
BRANCH  15  26
ATOM     26  C   UNL     1      -4.525  12.955  22.391  0.00  0.00    +0.000 C 
ATOM     27  O   UNL     1      -4.052  12.503  23.429  0.00  0.00    +0.000 OA
BRANCH  26  28
ATOM     28  O   UNL     1      -5.356  12.271  21.558  0.00  0.00    +0.000 OA
BRANCH  28  29
ATOM     29  C   UNL     1      -6.802  12.414  21.675  0.00  0.00    +0.000 C 
ATOM     30  C   UNL     1      -7.347  13.464  20.696  0.00  0.00    +0.000 C 
ATOM     31  C   UNL     1      -7.382  11.045  21.284  0.00  0.00    +0.000 C 
ATOM     32  C   UNL     1      -7.235  12.715  23.117  0.00  0.00    +0.000 C 
ENDBRANCH  28  29
ENDBRANCH  26  28
ENDBRANCH  15  26
TORSDOF 3
ENDMDL
MODEL 9
REMARK VINA RESULT:      -5.9      0.654      1.061
REMARK  Name = 
REMARK  9 active torsions:
REMARK  status: ('A' for Active; 'I' for Inactive)
REMARK    1  A    between atoms: C_1  and  C_2
REMARK    2  A    between atoms: N_4  and  C_5
REMARK    3  A    between atoms: C_7  and  C_8
REMARK    4  A    between atoms: C_15  and  C_16
REMARK    5  A    between atoms: C_16  and  O_18
REMARK    6  A    between atoms: O_18  and  C_19
REMARK    7  A    between atoms: C_19  and  C_20
REMARK    8  A    between atoms: C_19  and  C_21
REMARK    9  A    between atoms: C_19  and  C_22
REMARK                            x       y       z     vdW  Elec       q    Type
REMARK                         _______ _______ _______ _____ _____    ______ ____
ROOT
ATOM      1  C   UNL     1      -4.729  16.308  20.371  0.00  0.00    +0.000 C 
ATOM      2  C   UNL     1      -5.034  15.018  21.133  0.00  0.00    +0.000 C 
ATOM      3  C   UNL     1      -5.840  15.181  22.427  0.00  0.00    +0.000 C 
ATOM      4  N   UNL     1      -7.221  15.576  22.177  0.00  0.00    +0.000 NA
ATOM      5  C   UNL     1      -7.916  15.678  23.460  0.00  0.00    +0.000 C 
ATOM      6  C   UNL     1      -7.852  14.573  21.292  0.00  0.00    +0.000 C 
ATOM      7  C   UNL     1      -7.059  14.310  19.962  0.00  0.00    +0.000 C 
ATOM      8  C   UNL     1      -7.917  13.403  19.073  0.00  0.00    +0.000 C 
ATOM      9  N   UNL     1      -5.617  13.956  20.251  0.00  0.00    +0.000 N 
ATOM     10  C   UNL     1      -4.989  12.865  19.590  0.00  0.00    +0.000 C 
ATOM     11  O   UNL     1      -5.675  12.109  18.898  0.00  0.00    +0.000 OA
ATOM     12  N   UNL     1      -3.598  12.615  19.745  0.00  0.00    +0.000 N 
ATOM     13  C   UNL     1      -2.896  13.227  20.831  0.00  0.00    +0.000 C 
ATOM     14  C   UNL     1      -1.531  12.847  21.126  0.00  0.00    +0.000 A 
ATOM     15  C   UNL     1      -0.676  13.308  22.105  0.00  0.00    +0.000 A 
ATOM     16  N   UNL     1       0.558  12.727  21.901  0.00  0.00    +0.000 NA
ATOM     17  C   UNL     1       0.416  11.958  20.831  0.00  0.00    +0.000 A 
ATOM     18  N   UNL     1      -0.859  11.999  20.321  0.00  0.00    +0.000 N 
ATOM     19  C   UNL     1      -1.458  11.406  19.192  0.00  0.00    +0.000 A 
ATOM     20  C   UNL     1      -0.696  10.552  18.380  0.00  0.00    +0.000 A 
ATOM     21  C   UNL     1      -1.275   9.974  17.255  0.00  0.00    +0.000 A 
ATOM     22  C   UNL     1      -2.598  10.260  16.940  0.00  0.00    +0.000 A 
ATOM     23 CL   UNL     1      -3.299   9.550  15.535  0.00  0.00    +0.000 Cl
ATOM     24  C   UNL     1      -3.360  11.120  17.740  0.00  0.00    +0.000 A 
ATOM     25  C   UNL     1      -2.824  11.705  18.900  0.00  0.00    +0.000 A 
ENDROOT
BRANCH  15  26
ATOM     26  C   UNL     1      -1.036  14.307  23.142  0.00  0.00    +0.000 C 
ATOM     27  O   UNL     1      -2.164  14.356  23.621  0.00  0.00    +0.000 OA
BRANCH  26  28
ATOM     28  O   UNL     1      -0.017  15.145  23.478  0.00  0.00    +0.000 OA
BRANCH  28  29
ATOM     29  C   UNL     1      -0.087  16.564  23.150  0.00  0.00    +0.000 C 
ATOM     30  C   UNL     1       1.310  17.168  22.951  0.00  0.00    +0.000 C 
ATOM     31  C   UNL     1      -0.839  16.638  21.811  0.00  0.00    +0.000 C 
ATOM     32  C   UNL     1      -0.897  17.354  24.189  0.00  0.00    +0.000 C 
ENDBRANCH  28  29
ENDBRANCH  26  28
ENDBRANCH  15  26
TORSDOF 3
ENDMDL
