MODEL 1
REMARK VINA RESULT:      -8.8      0.000      0.000
REMARK  Name = 
REMARK  10 active torsions:
REMARK  status: ('A' for Active; 'I' for Inactive)
REMARK    1  A    between atoms: C_1  and  C_2
REMARK    2  A    between atoms: C_5  and  N_6
REMARK    3  A    between atoms: C_7  and  C_9
REMARK    4  A    between atoms: C_13  and  C_14
REMARK    5  A    between atoms: C_14  and  C_15
REMARK    6  A    between atoms: C_14  and  C_16
REMARK    7  A    between atoms: C_14  and  C_17
REMARK    8  A    between atoms: C_21  and  C_22
REMARK    9  A    between atoms: C_24  and  N_25
REMARK   10  A    between atoms: N_33  and  C_34
REMARK                            x       y       z     vdW  Elec       q    Type
REMARK                         _______ _______ _______ _____ _____    ______ ____
ROOT
ATOM      1  C   UNL     1      -1.340  13.651  20.817  0.00  0.00    +0.000 C 
ATOM      2  C   UNL     1      -0.650  12.361  20.482  0.00  0.00    +0.000 A 
ATOM      3  N   UNL     1       0.539  12.169  21.095  0.00  0.00    +0.000 NA
ATOM      4  C   UNL     1       1.197  11.011  20.847  0.00  0.00    +0.000 A 
ATOM      5  C   UNL     1       0.735  10.000  20.010  0.00  0.00    +0.000 A 
ATOM      6  C   UNL     1      -0.493  10.224  19.378  0.00  0.00    +0.000 A 
ATOM      7  C   UNL     1      -1.201  11.421  19.604  0.00  0.00    +0.000 A 
ENDROOT
BRANCH   7   8
ATOM      8  C   UNL     1      -2.499  11.628  18.937  0.00  0.00    +0.000 A 
ATOM      9  C   UNL     1      -3.644  12.184  19.625  0.00  0.00    +0.000 A 
ATOM     10  C   UNL     1      -4.854  12.296  19.055  0.00  0.00    +0.000 A 
ATOM     11  C   UNL     1      -4.994  11.871  17.591  0.00  0.00    +0.000 A 
ATOM     12  O   UNL     1      -6.080  11.956  17.016  0.00  0.00    +0.000 OA
ATOM     13  N   UNL     1      -3.823  11.425  16.967  0.00  0.00    +0.000 N 
ATOM     14  C   UNL     1      -3.858  11.080  15.553  0.00  0.00    +0.000 C 
ATOM     15  C   UNL     1      -2.624  11.288  17.644  0.00  0.00    +0.000 A 
BRANCH  10  16
ATOM     16  N   UNL     1      -5.968  12.786  19.734  0.00  0.00    +0.000 N 
ATOM     17  C   UNL     1      -6.256  14.224  19.856  0.00  0.00    +0.000 C 
ATOM     18  C   UNL     1      -6.461  14.615  21.323  0.00  0.00    +0.000 C 
ATOM     19  O   UNL     1      -7.466  13.796  21.951  0.00  0.00    +0.000 OA
ATOM     20  C   UNL     1      -7.078  12.412  21.894  0.00  0.00    +0.000 C 
ATOM     21  C   UNL     1      -6.928  11.930  20.442  0.00  0.00    +0.000 C 
ENDBRANCH  10  16
ENDBRANCH   7   8
BRANCH   5  22
ATOM     22  N   UNL     1       1.423   8.788  19.757  0.00  0.00    +0.000 N 
ATOM     23  C   UNL     1       2.067   8.473  18.570  0.00  0.00    +0.000 C 
ATOM     24  O   UNL     1       2.151   9.199  17.583  0.00  0.00    +0.000 OA
ATOM     25  H   UNL     1       1.380   8.091  20.490  0.00  0.00    +0.000 HD
BRANCH  23  26
ATOM     26  C   UNL     1       2.678   7.123  18.461  0.00  0.00    +0.000 A 
ATOM     27  C   UNL     1       3.757   6.982  17.589  0.00  0.00    +0.000 A 
ATOM     28  C   UNL     1       4.346   5.744  17.479  0.00  0.00    +0.000 A 
ATOM     29  N   UNL     1       3.923   4.663  18.165  0.00  0.00    +0.000 NA
ATOM     30  C   UNL     1       2.867   4.792  19.010  0.00  0.00    +0.000 A 
ATOM     31  C   UNL     1       2.243   6.027  19.207  0.00  0.00    +0.000 A 
BRANCH  30  32
ATOM     32  C   UNL     1       2.431   3.524  19.755  0.00  0.00    +0.000 C 
ATOM     33  C   UNL     1       3.590   2.505  19.786  0.00  0.00    +0.000 C 
ATOM     34  C   UNL     1       2.044   3.896  21.195  0.00  0.00    +0.000 C 
BRANCH  32  35
ATOM     35  C   UNL     1       1.277   2.870  19.093  0.00  0.00    +0.000 C 
ATOM     36  N   UNL     1       0.396   2.319  18.579  0.00  0.00    +0.000 NA
ENDBRANCH  32  35
ENDBRANCH  30  32
ENDBRANCH  23  26
ENDBRANCH   5  22
TORSDOF 6
ENDMDL
MODEL 2
REMARK VINA RESULT:      -8.7      1.872      2.301
REMARK  Name = 
REMARK  10 active torsions:
REMARK  status: ('A' for Active; 'I' for Inactive)
REMARK    1  A    between atoms: C_1  and  C_2
REMARK    2  A    between atoms: C_5  and  N_6
REMARK    3  A    between atoms: C_7  and  C_9
REMARK    4  A    between atoms: C_13  and  C_14
REMARK    5  A    between atoms: C_14  and  C_15
REMARK    6  A    between atoms: C_14  and  C_16
REMARK    7  A    between atoms: C_14  and  C_17
REMARK    8  A    between atoms: C_21  and  C_22
REMARK    9  A    between atoms: C_24  and  N_25
REMARK   10  A    between atoms: N_33  and  C_34
REMARK                            x       y       z     vdW  Elec       q    Type
REMARK                         _______ _______ _______ _____ _____    ______ ____
ROOT
ATOM      1  C   UNL     1      -0.022  14.322  18.805  0.00  0.00    +0.000 C 
ATOM      2  C   UNL     1       0.406  12.894  18.631  0.00  0.00    +0.000 A 
ATOM      3  N   UNL     1       1.720  12.716  18.373  0.00  0.00    +0.000 NA
ATOM      4  C   UNL     1       2.168  11.446  18.228  0.00  0.00    +0.000 A 
ATOM      5  C   UNL     1       1.374  10.308  18.332  0.00  0.00    +0.000 A 
ATOM      6  C   UNL     1       0.015  10.517  18.590  0.00  0.00    +0.000 A 
ATOM      7  C   UNL     1      -0.489  11.824  18.737  0.00  0.00    +0.000 A 
ENDROOT
BRANCH   7   8
ATOM      8  C   UNL     1      -1.922  12.017  19.021  0.00  0.00    +0.000 A 
ATOM      9  C   UNL     1      -2.397  12.565  20.273  0.00  0.00    +0.000 A 
ATOM     10  C   UNL     1      -3.701  12.664  20.578  0.00  0.00    +0.000 A 
ATOM     11  C   UNL     1      -4.715  12.232  19.518  0.00  0.00    +0.000 A 
ATOM     12  O   UNL     1      -5.925  12.305  19.742  0.00  0.00    +0.000 OA
ATOM     13  N   UNL     1      -4.182  11.793  18.300  0.00  0.00    +0.000 N 
ATOM     14  C   UNL     1      -5.085  11.442  17.213  0.00  0.00    +0.000 C 
ATOM     15  C   UNL     1      -2.820  11.670  18.085  0.00  0.00    +0.000 A 
BRANCH  10  16
ATOM     16  N   UNL     1      -4.156  13.147  21.803  0.00  0.00    +0.000 N 
ATOM     17  C   UNL     1      -3.402  12.976  23.055  0.00  0.00    +0.000 C 
ATOM     18  C   UNL     1      -4.281  12.338  24.136  0.00  0.00    +0.000 C 
ATOM     19  O   UNL     1      -5.503  13.077  24.325  0.00  0.00    +0.000 OA
ATOM     20  C   UNL     1      -6.247  13.120  23.094  0.00  0.00    +0.000 C 
ATOM     21  C   UNL     1      -5.450  13.819  21.981  0.00  0.00    +0.000 C 
ENDBRANCH  10  16
ENDBRANCH   7   8
BRANCH   5  22
ATOM     22  N   UNL     1       1.847   8.981  18.186  0.00  0.00    +0.000 N 
ATOM     23  C   UNL     1       2.015   8.079  19.225  0.00  0.00    +0.000 C 
ATOM     24  O   UNL     1       1.762   8.289  20.408  0.00  0.00    +0.000 OA
ATOM     25  H   UNL     1       2.133   8.711  17.254  0.00  0.00    +0.000 HD
BRANCH  23  26
ATOM     26  C   UNL     1       2.590   6.750  18.891  0.00  0.00    +0.000 A 
ATOM     27  C   UNL     1       3.429   6.682  17.779  0.00  0.00    +0.000 A 
ATOM     28  C   UNL     1       3.982   5.465  17.455  0.00  0.00    +0.000 A 
ATOM     29  N   UNL     1       3.743   4.337  18.155  0.00  0.00    +0.000 NA
ATOM     30  C   UNL     1       2.919   4.395  19.234  0.00  0.00    +0.000 A 
ATOM     31  C   UNL     1       2.353   5.604  19.650  0.00  0.00    +0.000 A 
BRANCH  30  32
ATOM     32  C   UNL     1       2.683   3.078  19.983  0.00  0.00    +0.000 C 
ATOM     33  C   UNL     1       1.994   3.356  21.336  0.00  0.00    +0.000 C 
ATOM     34  C   UNL     1       1.781   2.170  19.131  0.00  0.00    +0.000 C 
BRANCH  32  35
ATOM     35  C   UNL     1       3.957   2.374  20.265  0.00  0.00    +0.000 C 
ATOM     36  N   UNL     1       4.940   1.818  20.528  0.00  0.00    +0.000 NA
ENDBRANCH  32  35
ENDBRANCH  30  32
ENDBRANCH  23  26
ENDBRANCH   5  22
TORSDOF 6
ENDMDL
MODEL 3
REMARK VINA RESULT:      -8.7      2.083      3.043
REMARK  Name = 
REMARK  10 active torsions:
REMARK  status: ('A' for Active; 'I' for Inactive)
REMARK    1  A    between atoms: C_1  and  C_2
REMARK    2  A    between atoms: C_5  and  N_6
REMARK    3  A    between atoms: C_7  and  C_9
REMARK    4  A    between atoms: C_13  and  C_14
REMARK    5  A    between atoms: C_14  and  C_15
REMARK    6  A    between atoms: C_14  and  C_16
REMARK    7  A    between atoms: C_14  and  C_17
REMARK    8  A    between atoms: C_21  and  C_22
REMARK    9  A    between atoms: C_24  and  N_25
REMARK   10  A    between atoms: N_33  and  C_34
REMARK                            x       y       z     vdW  Elec       q    Type
REMARK                         _______ _______ _______ _____ _____    ______ ____
ROOT
ATOM      1  C   UNL     1      -0.243  14.422  18.802  0.00  0.00    +0.000 C 
ATOM      2  C   UNL     1       0.209  12.992  18.727  0.00  0.00    +0.000 A 
ATOM      3  N   UNL     1       1.526  12.819  18.483  0.00  0.00    +0.000 NA
ATOM      4  C   UNL     1       1.995  11.549  18.425  0.00  0.00    +0.000 A 
ATOM      5  C   UNL     1       1.219  10.408  18.606  0.00  0.00    +0.000 A 
ATOM      6  C   UNL     1      -0.144  10.611  18.847  0.00  0.00    +0.000 A 
ATOM      7  C   UNL     1      -0.669  11.917  18.904  0.00  0.00    +0.000 A 
ENDROOT
BRANCH   7   8
ATOM      8  C   UNL     1      -2.106  12.105  19.172  0.00  0.00    +0.000 A 
ATOM      9  C   UNL     1      -2.592  12.748  20.375  0.00  0.00    +0.000 A 
ATOM     10  C   UNL     1      -3.898  12.847  20.672  0.00  0.00    +0.000 A 
ATOM     11  C   UNL     1      -4.903  12.307  19.652  0.00  0.00    +0.000 A 
ATOM     12  O   UNL     1      -6.114  12.376  19.871  0.00  0.00    +0.000 OA
ATOM     13  N   UNL     1      -4.361  11.778  18.475  0.00  0.00    +0.000 N 
ATOM     14  C   UNL     1      -5.256  11.320  17.422  0.00  0.00    +0.000 C 
ATOM     15  C   UNL     1      -2.997  11.664  18.270  0.00  0.00    +0.000 A 
BRANCH  10  16
ATOM     16  N   UNL     1      -4.363  13.422  21.852  0.00  0.00    +0.000 N 
ATOM     17  C   UNL     1      -4.901  14.790  21.913  0.00  0.00    +0.000 C 
ATOM     18  C   UNL     1      -4.188  15.608  22.994  0.00  0.00    +0.000 C 
ATOM     19  O   UNL     1      -4.230  14.942  24.271  0.00  0.00    +0.000 OA
ATOM     20  C   UNL     1      -3.594  13.655  24.175  0.00  0.00    +0.000 C 
ATOM     21  C   UNL     1      -4.310  12.751  23.158  0.00  0.00    +0.000 C 
ENDBRANCH  10  16
ENDBRANCH   7   8
BRANCH   5  22
ATOM     22  N   UNL     1       1.714   9.082  18.551  0.00  0.00    +0.000 N 
ATOM     23  C   UNL     1       1.840   8.235  19.642  0.00  0.00    +0.000 C 
ATOM     24  O   UNL     1       1.527   8.502  20.798  0.00  0.00    +0.000 OA
ATOM     25  H   UNL     1       2.049   8.769  17.648  0.00  0.00    +0.000 HD
BRANCH  23  26
ATOM     26  C   UNL     1       2.447   6.900  19.404  0.00  0.00    +0.000 A 
ATOM     27  C   UNL     1       2.027   5.855  20.227  0.00  0.00    +0.000 A 
ATOM     28  C   UNL     1       2.566   4.608  20.020  0.00  0.00    +0.000 A 
ATOM     29  N   UNL     1       3.486   4.351  19.068  0.00  0.00    +0.000 NA
ATOM     30  C   UNL     1       3.906   5.366  18.268  0.00  0.00    +0.000 A 
ATOM     31  C   UNL     1       3.373   6.653  18.390  0.00  0.00    +0.000 A 
BRANCH  30  32
ATOM     32  C   UNL     1       4.957   5.010  17.210  0.00  0.00    +0.000 C 
ATOM     33  C   UNL     1       4.529   3.739  16.447  0.00  0.00    +0.000 C 
ATOM     34  C   UNL     1       5.087   6.178  16.219  0.00  0.00    +0.000 C 
BRANCH  32  35
ATOM     35  C   UNL     1       6.280   4.741  17.823  0.00  0.00    +0.000 C 
ATOM     36  N   UNL     1       7.301   4.553  18.339  0.00  0.00    +0.000 NA
ENDBRANCH  32  35
ENDBRANCH  30  32
ENDBRANCH  23  26
ENDBRANCH   5  22
TORSDOF 6
ENDMDL
MODEL 4
REMARK VINA RESULT:      -8.7      1.817      3.261
REMARK  Name = 
REMARK  10 active torsions:
REMARK  status: ('A' for Active; 'I' for Inactive)
REMARK    1  A    between atoms: C_1  and  C_2
REMARK    2  A    between atoms: C_5  and  N_6
REMARK    3  A    between atoms: C_7  and  C_9
REMARK    4  A    between atoms: C_13  and  C_14
REMARK    5  A    between atoms: C_14  and  C_15
REMARK    6  A    between atoms: C_14  and  C_16
REMARK    7  A    between atoms: C_14  and  C_17
REMARK    8  A    between atoms: C_21  and  C_22
REMARK    9  A    between atoms: C_24  and  N_25
REMARK   10  A    between atoms: N_33  and  C_34
REMARK                            x       y       z     vdW  Elec       q    Type
REMARK                         _______ _______ _______ _____ _____    ______ ____
ROOT
ATOM      1  C   UNL     1      -0.652  14.717  21.229  0.00  0.00    +0.000 C 
ATOM      2  C   UNL     1      -0.259  13.345  20.767  0.00  0.00    +0.000 A 
ATOM      3  N   UNL     1       1.008  13.233  20.312  0.00  0.00    +0.000 NA
ATOM      4  C   UNL     1       1.425  12.011  19.901  0.00  0.00    +0.000 A 
ATOM      5  C   UNL     1       0.644  10.859  19.918  0.00  0.00    +0.000 A 
ATOM      6  C   UNL     1      -0.668  11.001  20.383  0.00  0.00    +0.000 A 
ATOM      7  C   UNL     1      -1.140  12.257  20.809  0.00  0.00    +0.000 A 
ENDROOT
BRANCH   7   8
ATOM      8  C   UNL     1      -2.522  12.379  21.307  0.00  0.00    +0.000 A 
ATOM      9  C   UNL     1      -3.661  12.455  20.418  0.00  0.00    +0.000 A 
ATOM     10  C   UNL     1      -4.915  12.654  20.855  0.00  0.00    +0.000 A 
ATOM     11  C   UNL     1      -5.138  12.738  22.366  0.00  0.00    +0.000 A 
ATOM     12  O   UNL     1      -6.268  12.916  22.823  0.00  0.00    +0.000 OA
ATOM     13  N   UNL     1      -4.000  12.569  23.165  0.00  0.00    +0.000 N 
ATOM     14  C   UNL     1      -4.144  12.555  24.614  0.00  0.00    +0.000 C 
ATOM     15  C   UNL     1      -2.732  12.422  22.632  0.00  0.00    +0.000 A 
BRANCH  10  16
ATOM     16  N   UNL     1      -6.005  12.776  19.995  0.00  0.00    +0.000 N 
ATOM     17  C   UNL     1      -6.701  11.613  19.423  0.00  0.00    +0.000 C 
ATOM     18  C   UNL     1      -6.785  11.724  17.898  0.00  0.00    +0.000 C 
ATOM     19  O   UNL     1      -7.375  12.974  17.492  0.00  0.00    +0.000 OA
ATOM     20  C   UNL     1      -6.591  14.072  17.991  0.00  0.00    +0.000 C 
ATOM     21  C   UNL     1      -6.529  14.066  19.528  0.00  0.00    +0.000 C 
ENDBRANCH  10  16
ENDBRANCH   7   8
BRANCH   5  22
ATOM     22  N   UNL     1       1.086   9.582  19.493  0.00  0.00    +0.000 N 
ATOM     23  C   UNL     1       1.497   8.562  20.338  0.00  0.00    +0.000 C 
ATOM     24  O   UNL     1       1.519   8.610  21.564  0.00  0.00    +0.000 OA
ATOM     25  H   UNL     1       1.153   9.445  18.493  0.00  0.00    +0.000 HD
BRANCH  23  26
ATOM     26  C   UNL     1       1.994   7.312  19.708  0.00  0.00    +0.000 A 
ATOM     27  C   UNL     1       2.566   7.422  18.440  0.00  0.00    +0.000 A 
ATOM     28  C   UNL     1       3.043   6.280  17.841  0.00  0.00    +0.000 A 
ATOM     29  N   UNL     1       2.975   5.062  18.416  0.00  0.00    +0.000 NA
ATOM     30  C   UNL     1       2.411   4.946  19.647  0.00  0.00    +0.000 A 
ATOM     31  C   UNL     1       1.941   6.067  20.337  0.00  0.00    +0.000 A 
BRANCH  30  32
ATOM     32  C   UNL     1       2.358   3.534  20.242  0.00  0.00    +0.000 C 
ATOM     33  C   UNL     1       2.019   3.608  21.746  0.00  0.00    +0.000 C 
ATOM     34  C   UNL     1       1.272   2.723  19.516  0.00  0.00    +0.000 C 
BRANCH  32  35
ATOM     35  C   UNL     1       3.659   2.836  20.109  0.00  0.00    +0.000 C 
ATOM     36  N   UNL     1       4.676   2.282  20.050  0.00  0.00    +0.000 NA
ENDBRANCH  32  35
ENDBRANCH  30  32
ENDBRANCH  23  26
ENDBRANCH   5  22
TORSDOF 6
ENDMDL
MODEL 5
REMARK VINA RESULT:      -8.7      1.991      2.223
REMARK  Name = 
REMARK  10 active torsions:
REMARK  status: ('A' for Active; 'I' for Inactive)
REMARK    1  A    between atoms: C_1  and  C_2
REMARK    2  A    between atoms: C_5  and  N_6
REMARK    3  A    between atoms: C_7  and  C_9
REMARK    4  A    between atoms: C_13  and  C_14
REMARK    5  A    between atoms: C_14  and  C_15
REMARK    6  A    between atoms: C_14  and  C_16
REMARK    7  A    between atoms: C_14  and  C_17
REMARK    8  A    between atoms: C_21  and  C_22
REMARK    9  A    between atoms: C_24  and  N_25
REMARK   10  A    between atoms: N_33  and  C_34
REMARK                            x       y       z     vdW  Elec       q    Type
REMARK                         _______ _______ _______ _____ _____    ______ ____
ROOT
ATOM      1  C   UNL     1      -0.012  14.426  18.822  0.00  0.00    +0.000 C 
ATOM      2  C   UNL     1       0.427  13.004  18.630  0.00  0.00    +0.000 A 
ATOM      3  N   UNL     1       1.745  12.838  18.383  0.00  0.00    +0.000 NA
ATOM      4  C   UNL     1       2.202  11.573  18.222  0.00  0.00    +0.000 A 
ATOM      5  C   UNL     1       1.414  10.429  18.300  0.00  0.00    +0.000 A 
ATOM      6  C   UNL     1       0.051  10.625  18.548  0.00  0.00    +0.000 A 
ATOM      7  C   UNL     1      -0.462  11.926  18.710  0.00  0.00    +0.000 A 
ENDROOT
BRANCH   7   8
ATOM      8  C   UNL     1      -1.900  12.106  18.982  0.00  0.00    +0.000 A 
ATOM      9  C   UNL     1      -2.387  12.726  20.196  0.00  0.00    +0.000 A 
ATOM     10  C   UNL     1      -3.692  12.816  20.495  0.00  0.00    +0.000 A 
ATOM     11  C   UNL     1      -4.697  12.291  19.467  0.00  0.00    +0.000 A 
ATOM     12  O   UNL     1      -5.908  12.352  19.688  0.00  0.00    +0.000 OA
ATOM     13  N   UNL     1      -4.153  11.784  18.280  0.00  0.00    +0.000 N 
ATOM     14  C   UNL     1      -5.048  11.342  17.220  0.00  0.00    +0.000 C 
ATOM     15  C   UNL     1      -2.789  11.677  18.073  0.00  0.00    +0.000 A 
BRANCH  10  16
ATOM     16  N   UNL     1      -4.158  13.369  21.686  0.00  0.00    +0.000 N 
ATOM     17  C   UNL     1      -4.760  14.710  21.758  0.00  0.00    +0.000 C 
ATOM     18  C   UNL     1      -4.063  15.562  22.825  0.00  0.00    +0.000 C 
ATOM     19  O   UNL     1      -4.045  14.896  24.102  0.00  0.00    +0.000 OA
ATOM     20  C   UNL     1      -3.352  13.640  23.992  0.00  0.00    +0.000 C 
ATOM     21  C   UNL     1      -4.045  12.702  22.990  0.00  0.00    +0.000 C 
ENDBRANCH  10  16
ENDBRANCH   7   8
BRANCH   5  22
ATOM     22  N   UNL     1       1.898   9.108  18.138  0.00  0.00    +0.000 N 
ATOM     23  C   UNL     1       1.944   8.150  19.140  0.00  0.00    +0.000 C 
ATOM     24  O   UNL     1       1.559   8.300  20.296  0.00  0.00    +0.000 OA
ATOM     25  H   UNL     1       2.287   8.884  17.231  0.00  0.00    +0.000 HD
BRANCH  23  26
ATOM     26  C   UNL     1       2.550   6.836  18.802  0.00  0.00    +0.000 A 
ATOM     27  C   UNL     1       3.589   6.835  17.872  0.00  0.00    +0.000 A 
ATOM     28  C   UNL     1       4.172   5.632  17.551  0.00  0.00    +0.000 A 
ATOM     29  N   UNL     1       3.781   4.457  18.085  0.00  0.00    +0.000 NA
ATOM     30  C   UNL     1       2.763   4.450  18.985  0.00  0.00    +0.000 A 
ATOM     31  C   UNL     1       2.148   5.637  19.393  0.00  0.00    +0.000 A 
BRANCH  30  32
ATOM     32  C   UNL     1       2.362   3.082  19.550  0.00  0.00    +0.000 C 
ATOM     33  C   UNL     1       2.663   3.026  21.062  0.00  0.00    +0.000 C 
ATOM     34  C   UNL     1       0.857   2.867  19.323  0.00  0.00    +0.000 C 
BRANCH  32  35
ATOM     35  C   UNL     1       3.115   1.981  18.902  0.00  0.00    +0.000 C 
ATOM     36  N   UNL     1       3.741   1.133  18.419  0.00  0.00    +0.000 NA
ENDBRANCH  32  35
ENDBRANCH  30  32
ENDBRANCH  23  26
ENDBRANCH   5  22
TORSDOF 6
ENDMDL
MODEL 6
REMARK VINA RESULT:      -8.6      2.125      3.008
REMARK  Name = 
REMARK  10 active torsions:
REMARK  status: ('A' for Active; 'I' for Inactive)
REMARK    1  A    between atoms: C_1  and  C_2
REMARK    2  A    between atoms: C_5  and  N_6
REMARK    3  A    between atoms: C_7  and  C_9
REMARK    4  A    between atoms: C_13  and  C_14
REMARK    5  A    between atoms: C_14  and  C_15
REMARK    6  A    between atoms: C_14  and  C_16
REMARK    7  A    between atoms: C_14  and  C_17
REMARK    8  A    between atoms: C_21  and  C_22
REMARK    9  A    between atoms: C_24  and  N_25
REMARK   10  A    between atoms: N_33  and  C_34
REMARK                            x       y       z     vdW  Elec       q    Type
REMARK                         _______ _______ _______ _____ _____    ______ ____
ROOT
ATOM      1  C   UNL     1      -0.324  14.375  18.757  0.00  0.00    +0.000 C 
ATOM      2  C   UNL     1       0.116  12.940  18.736  0.00  0.00    +0.000 A 
ATOM      3  N   UNL     1       1.427  12.744  18.473  0.00  0.00    +0.000 NA
ATOM      4  C   UNL     1       1.885  11.469  18.464  0.00  0.00    +0.000 A 
ATOM      5  C   UNL     1       1.104  10.344  18.711  0.00  0.00    +0.000 A 
ATOM      6  C   UNL     1      -0.252  10.569  18.971  0.00  0.00    +0.000 A 
ATOM      7  C   UNL     1      -0.766  11.880  18.980  0.00  0.00    +0.000 A 
ENDROOT
BRANCH   7   8
ATOM      8  C   UNL     1      -2.196  12.093  19.269  0.00  0.00    +0.000 A 
ATOM      9  C   UNL     1      -2.652  12.789  20.452  0.00  0.00    +0.000 A 
ATOM     10  C   UNL     1      -3.950  12.913  20.771  0.00  0.00    +0.000 A 
ATOM     11  C   UNL     1      -4.981  12.340  19.796  0.00  0.00    +0.000 A 
ATOM     12  O   UNL     1      -6.186  12.429  20.036  0.00  0.00    +0.000 OA
ATOM     13  N   UNL     1      -4.467  11.757  18.631  0.00  0.00    +0.000 N 
ATOM     14  C   UNL     1      -5.387  11.263  17.617  0.00  0.00    +0.000 C 
ATOM     15  C   UNL     1      -3.108  11.622  18.404  0.00  0.00    +0.000 A 
BRANCH  10  16
ATOM     16  N   UNL     1      -4.386  13.541  21.936  0.00  0.00    +0.000 N 
ATOM     17  C   UNL     1      -4.705  14.976  21.994  0.00  0.00    +0.000 C 
ATOM     18  C   UNL     1      -3.936  15.659  23.129  0.00  0.00    +0.000 C 
ATOM     19  O   UNL     1      -4.155  14.994  24.388  0.00  0.00    +0.000 OA
ATOM     20  C   UNL     1      -3.726  13.624  24.302  0.00  0.00    +0.000 C 
ATOM     21  C   UNL     1      -4.515  12.855  23.229  0.00  0.00    +0.000 C 
ENDBRANCH  10  16
ENDBRANCH   7   8
BRANCH   5  22
ATOM     22  N   UNL     1       1.588   9.013  18.705  0.00  0.00    +0.000 N 
ATOM     23  C   UNL     1       1.736   8.216  19.830  0.00  0.00    +0.000 C 
ATOM     24  O   UNL     1       1.454   8.539  20.981  0.00  0.00    +0.000 OA
ATOM     25  H   UNL     1       1.897   8.655  17.810  0.00  0.00    +0.000 HD
BRANCH  23  26
ATOM     26  C   UNL     1       2.326   6.866  19.640  0.00  0.00    +0.000 A 
ATOM     27  C   UNL     1       1.887   5.854  20.494  0.00  0.00    +0.000 A 
ATOM     28  C   UNL     1       2.411   4.594  20.330  0.00  0.00    +0.000 A 
ATOM     29  N   UNL     1       3.334   4.294  19.393  0.00  0.00    +0.000 NA
ATOM     30  C   UNL     1       3.772   5.278  18.564  0.00  0.00    +0.000 A 
ATOM     31  C   UNL     1       3.256   6.575  18.641  0.00  0.00    +0.000 A 
BRANCH  30  32
ATOM     32  C   UNL     1       4.825   4.875  17.525  0.00  0.00    +0.000 C 
ATOM     33  C   UNL     1       6.189   4.654  18.214  0.00  0.00    +0.000 C 
ATOM     34  C   UNL     1       4.385   3.570  16.843  0.00  0.00    +0.000 C 
BRANCH  32  35
ATOM     35  C   UNL     1       5.008   5.926  16.496  0.00  0.00    +0.000 C 
ATOM     36  N   UNL     1       5.190   6.729  15.680  0.00  0.00    +0.000 NA
ENDBRANCH  32  35
ENDBRANCH  30  32
ENDBRANCH  23  26
ENDBRANCH   5  22
TORSDOF 6
ENDMDL
MODEL 7
REMARK VINA RESULT:      -8.5      1.470      2.717
REMARK  Name = 
REMARK  10 active torsions:
REMARK  status: ('A' for Active; 'I' for Inactive)
REMARK    1  A    between atoms: C_1  and  C_2
REMARK    2  A    between atoms: C_5  and  N_6
REMARK    3  A    between atoms: C_7  and  C_9
REMARK    4  A    between atoms: C_13  and  C_14
REMARK    5  A    between atoms: C_14  and  C_15
REMARK    6  A    between atoms: C_14  and  C_16
REMARK    7  A    between atoms: C_14  and  C_17
REMARK    8  A    between atoms: C_21  and  C_22
REMARK    9  A    between atoms: C_24  and  N_25
REMARK   10  A    between atoms: N_33  and  C_34
REMARK                            x       y       z     vdW  Elec       q    Type
REMARK                         _______ _______ _______ _____ _____    ______ ____
ROOT
ATOM      1  C   UNL     1      -1.497  12.712  21.427  0.00  0.00    +0.000 C 
ATOM      2  C   UNL     1      -0.670  11.584  20.882  0.00  0.00    +0.000 A 
ATOM      3  N   UNL     1       0.424  11.270  21.610  0.00  0.00    +0.000 NA
ATOM      4  C   UNL     1       1.196  10.244  21.177  0.00  0.00    +0.000 A 
ATOM      5  C   UNL     1       0.942   9.485  20.039  0.00  0.00    +0.000 A 
ATOM      6  C   UNL     1      -0.191   9.835  19.295  0.00  0.00    +0.000 A 
ATOM      7  C   UNL     1      -1.012  10.902  19.709  0.00  0.00    +0.000 A 
ENDROOT
BRANCH   7   8
ATOM      8  C   UNL     1      -2.206  11.243  18.916  0.00  0.00    +0.000 A 
ATOM      9  C   UNL     1      -3.381  11.848  19.505  0.00  0.00    +0.000 A 
ATOM     10  C   UNL     1      -4.506  12.083  18.812  0.00  0.00    +0.000 A 
ATOM     11  C   UNL     1      -4.507  11.745  17.319  0.00  0.00    +0.000 A 
ATOM     12  O   UNL     1      -5.512  11.944  16.633  0.00  0.00    +0.000 OA
ATOM     13  N   UNL     1      -3.306  11.243  16.803  0.00  0.00    +0.000 N 
ATOM     14  C   UNL     1      -3.204  10.975  15.375  0.00  0.00    +0.000 C 
ATOM     15  C   UNL     1      -2.206  10.979  17.599  0.00  0.00    +0.000 A 
BRANCH  10  16
ATOM     16  N   UNL     1      -5.653  12.621  19.392  0.00  0.00    +0.000 N 
ATOM     17  C   UNL     1      -5.684  13.962  19.997  0.00  0.00    +0.000 C 
ATOM     18  C   UNL     1      -6.223  13.900  21.429  0.00  0.00    +0.000 C 
ATOM     19  O   UNL     1      -7.504  13.242  21.482  0.00  0.00    +0.000 OA
ATOM     20  C   UNL     1      -7.388  11.901  20.976  0.00  0.00    +0.000 C 
ATOM     21  C   UNL     1      -6.922  11.891  19.510  0.00  0.00    +0.000 C 
ENDBRANCH  10  16
ENDBRANCH   7   8
BRANCH   5  22
ATOM     22  N   UNL     1       1.748   8.410  19.593  0.00  0.00    +0.000 N 
ATOM     23  C   UNL     1       2.309   8.309  18.329  0.00  0.00    +0.000 C 
ATOM     24  O   UNL     1       2.205   9.137  17.428  0.00  0.00    +0.000 OA
ATOM     25  H   UNL     1       1.864   7.642  20.241  0.00  0.00    +0.000 HD
BRANCH  23  26
ATOM     26  C   UNL     1       3.070   7.072  18.015  0.00  0.00    +0.000 A 
ATOM     27  C   UNL     1       2.369   5.867  18.053  0.00  0.00    +0.000 A 
ATOM     28  C   UNL     1       3.050   4.710  17.757  0.00  0.00    +0.000 A 
ATOM     29  N   UNL     1       4.362   4.686  17.442  0.00  0.00    +0.000 NA
ATOM     30  C   UNL     1       5.053   5.855  17.413  0.00  0.00    +0.000 A 
ATOM     31  C   UNL     1       4.420   7.077  17.662  0.00  0.00    +0.000 A 
BRANCH  30  32
ATOM     32  C   UNL     1       6.541   5.759  17.055  0.00  0.00    +0.000 C 
ATOM     33  C   UNL     1       7.239   7.107  17.337  0.00  0.00    +0.000 C 
ATOM     34  C   UNL     1       7.193   4.661  17.910  0.00  0.00    +0.000 C 
BRANCH  32  35
ATOM     35  C   UNL     1       6.738   5.443  15.621  0.00  0.00    +0.000 C 
ATOM     36  N   UNL     1       6.855   5.219  14.489  0.00  0.00    +0.000 NA
ENDBRANCH  32  35
ENDBRANCH  30  32
ENDBRANCH  23  26
ENDBRANCH   5  22
TORSDOF 6
ENDMDL
MODEL 8
REMARK VINA RESULT:      -8.5      1.800      3.163
REMARK  Name = 
REMARK  10 active torsions:
REMARK  status: ('A' for Active; 'I' for Inactive)
REMARK    1  A    between atoms: C_1  and  C_2
REMARK    2  A    between atoms: C_5  and  N_6
REMARK    3  A    between atoms: C_7  and  C_9
REMARK    4  A    between atoms: C_13  and  C_14
REMARK    5  A    between atoms: C_14  and  C_15
REMARK    6  A    between atoms: C_14  and  C_16
REMARK    7  A    between atoms: C_14  and  C_17
REMARK    8  A    between atoms: C_21  and  C_22
REMARK    9  A    between atoms: C_24  and  N_25
REMARK   10  A    between atoms: N_33  and  C_34
REMARK                            x       y       z     vdW  Elec       q    Type
REMARK                         _______ _______ _______ _____ _____    ______ ____
ROOT
ATOM      1  C   UNL     1      -0.230  14.811  19.516  0.00  0.00    +0.000 C 
ATOM      2  C   UNL     1       0.206  13.394  19.283  0.00  0.00    +0.000 A 
ATOM      3  N   UNL     1       1.379  13.254  18.629  0.00  0.00    +0.000 NA
ATOM      4  C   UNL     1       1.833  11.996  18.409  0.00  0.00    +0.000 A 
ATOM      5  C   UNL     1       1.181  10.835  18.814  0.00  0.00    +0.000 A 
ATOM      6  C   UNL     1      -0.038  11.004  19.481  0.00  0.00    +0.000 A 
ATOM      7  C   UNL     1      -0.546  12.296  19.718  0.00  0.00    +0.000 A 
ENDROOT
BRANCH   7   8
ATOM      8  C   UNL     1      -1.826  12.448  20.433  0.00  0.00    +0.000 A 
ATOM      9  C   UNL     1      -3.104  12.362  19.761  0.00  0.00    +0.000 A 
ATOM     10  C   UNL     1      -4.272  12.586  20.384  0.00  0.00    +0.000 A 
ATOM     11  C   UNL     1      -4.234  12.882  21.884  0.00  0.00    +0.000 A 
ATOM     12  O   UNL     1      -5.277  13.091  22.508  0.00  0.00    +0.000 OA
ATOM     13  N   UNL     1      -2.968  12.863  22.482  0.00  0.00    +0.000 N 
ATOM     14  C   UNL     1      -2.858  13.056  23.921  0.00  0.00    +0.000 C 
ATOM     15  C   UNL     1      -1.805  12.677  21.756  0.00  0.00    +0.000 A 
BRANCH  10  16
ATOM     16  N   UNL     1      -5.499  12.550  19.725  0.00  0.00    +0.000 N 
ATOM     17  C   UNL     1      -6.383  11.374  19.753  0.00  0.00    +0.000 C 
ATOM     18  C   UNL     1      -6.762  10.944  18.332  0.00  0.00    +0.000 C 
ATOM     19  O   UNL     1      -7.324  12.038  17.582  0.00  0.00    +0.000 OA
ATOM     20  C   UNL     1      -6.374  13.115  17.498  0.00  0.00    +0.000 C 
ATOM     21  C   UNL     1      -6.006  13.649  18.893  0.00  0.00    +0.000 C 
ENDBRANCH  10  16
ENDBRANCH   7   8
BRANCH   5  22
ATOM     22  N   UNL     1       1.661   9.522  18.588  0.00  0.00    +0.000 N 
ATOM     23  C   UNL     1       1.720   8.522  19.547  0.00  0.00    +0.000 C 
ATOM     24  O   UNL     1       1.350   8.622  20.713  0.00  0.00    +0.000 OA
ATOM     25  H   UNL     1       2.039   9.339  17.667  0.00  0.00    +0.000 HD
BRANCH  23  26
ATOM     26  C   UNL     1       2.321   7.224  19.144  0.00  0.00    +0.000 A 
ATOM     27  C   UNL     1       3.161   7.230  18.031  0.00  0.00    +0.000 A 
ATOM     28  C   UNL     1       3.737   6.043  17.645  0.00  0.00    +0.000 A 
ATOM     29  N   UNL     1       3.521   4.876  18.285  0.00  0.00    +0.000 NA
ATOM     30  C   UNL     1       2.696   4.861  19.365  0.00  0.00    +0.000 A 
ATOM     31  C   UNL     1       2.106   6.035  19.843  0.00  0.00    +0.000 A 
BRANCH  30  32
ATOM     32  C   UNL     1       2.485   3.502  20.044  0.00  0.00    +0.000 C 
ATOM     33  C   UNL     1       1.969   3.706  21.484  0.00  0.00    +0.000 C 
ATOM     34  C   UNL     1       1.452   2.695  19.243  0.00  0.00    +0.000 C 
BRANCH  32  35
ATOM     35  C   UNL     1       3.749   2.731  20.126  0.00  0.00    +0.000 C 
ATOM     36  N   UNL     1       4.750   2.146  20.151  0.00  0.00    +0.000 NA
ENDBRANCH  32  35
ENDBRANCH  30  32
ENDBRANCH  23  26
ENDBRANCH   5  22
TORSDOF 6
ENDMDL
MODEL 9
REMARK VINA RESULT:      -8.5      2.025      2.230
REMARK  Name = 
REMARK  10 active torsions:
REMARK  status: ('A' for Active; 'I' for Inactive)
REMARK    1  A    between atoms: C_1  and  C_2
REMARK    2  A    between atoms: C_5  and  N_6
REMARK    3  A    between atoms: C_7  and  C_9
REMARK    4  A    between atoms: C_13  and  C_14
REMARK    5  A    between atoms: C_14  and  C_15
REMARK    6  A    between atoms: C_14  and  C_16
REMARK    7  A    between atoms: C_14  and  C_17
REMARK    8  A    between atoms: C_21  and  C_22
REMARK    9  A    between atoms: C_24  and  N_25
REMARK   10  A    between atoms: N_33  and  C_34
REMARK                            x       y       z     vdW  Elec       q    Type
REMARK                         _______ _______ _______ _____ _____    ______ ____
ROOT
ATOM      1  C   UNL     1       0.408  14.264  18.810  0.00  0.00    +0.000 C 
ATOM      2  C   UNL     1       0.815  12.841  18.562  0.00  0.00    +0.000 A 
ATOM      3  N   UNL     1       2.127  12.657  18.295  0.00  0.00    +0.000 NA
ATOM      4  C   UNL     1       2.556  11.390  18.084  0.00  0.00    +0.000 A 
ATOM      5  C   UNL     1       1.745  10.260  18.127  0.00  0.00    +0.000 A 
ATOM      6  C   UNL     1       0.388  10.475  18.395  0.00  0.00    +0.000 A 
ATOM      7  C   UNL     1      -0.096  11.780  18.610  0.00  0.00    +0.000 A 
ENDROOT
BRANCH   7   8
ATOM      8  C   UNL     1      -1.527  11.979  18.903  0.00  0.00    +0.000 A 
ATOM      9  C   UNL     1      -1.987  12.621  20.115  0.00  0.00    +0.000 A 
ATOM     10  C   UNL     1      -3.287  12.730  20.434  0.00  0.00    +0.000 A 
ATOM     11  C   UNL     1      -4.314  12.202  19.430  0.00  0.00    +0.000 A 
ATOM     12  O   UNL     1      -5.520  12.279  19.669  0.00  0.00    +0.000 OA
ATOM     13  N   UNL     1      -3.795  11.672  18.242  0.00  0.00    +0.000 N 
ATOM     14  C   UNL     1      -4.712  11.224  17.203  0.00  0.00    +0.000 C 
ATOM     15  C   UNL     1      -2.436  11.547  18.014  0.00  0.00    +0.000 A 
BRANCH  10  16
ATOM     16  N   UNL     1      -3.728  13.305  21.624  0.00  0.00    +0.000 N 
ATOM     17  C   UNL     1      -3.464  14.710  21.974  0.00  0.00    +0.000 C 
ATOM     18  C   UNL     1      -2.811  14.812  23.356  0.00  0.00    +0.000 C 
ATOM     19  O   UNL     1      -3.590  14.131  24.358  0.00  0.00    +0.000 OA
ATOM     20  C   UNL     1      -3.724  12.741  24.016  0.00  0.00    +0.000 C 
ATOM     21  C   UNL     1      -4.444  12.561  22.669  0.00  0.00    +0.000 C 
ENDBRANCH  10  16
ENDBRANCH   7   8
BRANCH   5  22
ATOM     22  N   UNL     1       2.199   8.936  17.912  0.00  0.00    +0.000 N 
ATOM     23  C   UNL     1       2.265   7.950  18.885  0.00  0.00    +0.000 C 
ATOM     24  O   UNL     1       1.925   8.075  20.058  0.00  0.00    +0.000 OA
ATOM     25  H   UNL     1       2.551   8.732  16.985  0.00  0.00    +0.000 HD
BRANCH  23  26
ATOM     26  C   UNL     1       2.835   6.636  18.490  0.00  0.00    +0.000 A 
ATOM     27  C   UNL     1       3.814   6.641  17.497  0.00  0.00    +0.000 A 
ATOM     28  C   UNL     1       4.364   5.438  17.121  0.00  0.00    +0.000 A 
ATOM     29  N   UNL     1       3.994   4.258  17.660  0.00  0.00    +0.000 NA
ATOM     30  C   UNL     1       3.034   4.245  18.621  0.00  0.00    +0.000 A 
ATOM     31  C   UNL     1       2.458   5.432  19.085  0.00  0.00    +0.000 A 
BRANCH  30  32
ATOM     32  C   UNL     1       2.654   2.872  19.188  0.00  0.00    +0.000 C 
ATOM     33  C   UNL     1       3.561   1.781  18.581  0.00  0.00    +0.000 C 
ATOM     34  C   UNL     1       2.833   2.891  20.714  0.00  0.00    +0.000 C 
BRANCH  32  35
ATOM     35  C   UNL     1       1.251   2.518  18.866  0.00  0.00    +0.000 C 
ATOM     36  N   UNL     1       0.164   2.197  18.618  0.00  0.00    +0.000 NA
ENDBRANCH  32  35
ENDBRANCH  30  32
ENDBRANCH  23  26
ENDBRANCH   5  22
TORSDOF 6
ENDMDL
