MODEL 1
REMARK VINA RESULT:      -6.5      0.000      0.000
REMARK  Name = 
REMARK  5 active torsions:
REMARK  status: ('A' for Active; 'I' for Inactive)
REMARK    1  A    between atoms: C_2  and  C_3
REMARK    2  A    between atoms: C_6  and  N_7
REMARK    3  A    between atoms: C_8  and  C_10
REMARK    4  A    between atoms: C_10  and  S_11
REMARK    5  A    between atoms: S_11  and  C_12
REMARK                            x       y       z     vdW  Elec       q    Type
REMARK                         _______ _______ _______ _____ _____    ______ ____
ROOT
ATOM      1  N   UNL     1       3.519   6.176  18.049  0.00  0.00    +0.000 N 
ATOM      2  C   UNL     1       3.099   4.868  17.850  0.00  0.00    +0.000 C 
ATOM      3  O   UNL     1       1.943   4.462  17.946  0.00  0.00    +0.000 OA
ATOM      4  H   UNL     1       4.478   6.399  17.806  0.00  0.00    +0.000 HD
ENDROOT
BRANCH   1   8
ATOM      5  C   UNL     1       1.151   9.403  19.423  0.00  0.00    +0.000 A 
ATOM      6  C   UNL     1       1.435   8.342  20.277  0.00  0.00    +0.000 A 
ATOM      7  C   UNL     1       2.215   7.268  19.837  0.00  0.00    +0.000 A 
ATOM      8  C   UNL     1       2.725   7.238  18.536  0.00  0.00    +0.000 A 
ATOM      9  C   UNL     1       2.457   8.318  17.685  0.00  0.00    +0.000 A 
ATOM     10  C   UNL     1       1.665   9.389  18.121  0.00  0.00    +0.000 A 
BRANCH   5  12
ATOM     11  N   UNL     1      -0.297  11.385  20.257  0.00  0.00    +0.000 NA
ATOM     12  C   UNL     1       0.347  10.497  19.879  0.00  0.00    +0.000 C 
ENDBRANCH   5  12
ENDBRANCH   1   8
BRANCH   2  13
ATOM     13  C   UNL     1       4.191   3.915  17.402  0.00  0.00    +0.000 C 
BRANCH  13  14
ATOM     14  S   UNL     1       5.843   4.606  17.624  0.00  0.00    +0.000 S 
BRANCH  14  15
ATOM     15  C   UNL     1       6.454   4.720  15.996  0.00  0.00    +0.000 A 
ATOM     16  C   UNL     1       6.077   4.040  14.863  0.00  0.00    +0.000 A 
ATOM     17  N   UNL     1       6.882   4.555  13.889  0.00  0.00    +0.000 N 
ATOM     18  N   UNL     1       7.702   5.497  14.376  0.00  0.00    +0.000 NA
ATOM     19  N   UNL     1       7.443   5.612  15.672  0.00  0.00    +0.000 NA
ATOM     20  H   UNL     1       6.930   4.332  12.901  0.00  0.00    +0.000 HD
ENDBRANCH  14  15
ENDBRANCH  13  14
ENDBRANCH   2  13
TORSDOF 5
ENDMDL
MODEL 2
REMARK VINA RESULT:      -6.4      2.820      4.417
REMARK  Name = 
REMARK  5 active torsions:
REMARK  status: ('A' for Active; 'I' for Inactive)
REMARK    1  A    between atoms: C_2  and  C_3
REMARK    2  A    between atoms: C_6  and  N_7
REMARK    3  A    between atoms: C_8  and  C_10
REMARK    4  A    between atoms: C_10  and  S_11
REMARK    5  A    between atoms: S_11  and  C_12
REMARK                            x       y       z     vdW  Elec       q    Type
REMARK                         _______ _______ _______ _____ _____    ______ ____
ROOT
ATOM      1  N   UNL     1       3.211   6.144  18.518  0.00  0.00    +0.000 N 
ATOM      2  C   UNL     1       2.714   4.972  17.966  0.00  0.00    +0.000 C 
ATOM      3  O   UNL     1       1.567   4.800  17.556  0.00  0.00    +0.000 OA
ATOM      4  H   UNL     1       4.210   6.189  18.691  0.00  0.00    +0.000 HD
ENDROOT
BRANCH   1   8
ATOM      5  C   UNL     1       0.969   9.624  19.392  0.00  0.00    +0.000 A 
ATOM      6  C   UNL     1       1.209   8.688  20.394  0.00  0.00    +0.000 A 
ATOM      7  C   UNL     1       1.948   7.533  20.119  0.00  0.00    +0.000 A 
ATOM      8  C   UNL     1       2.458   7.295  18.841  0.00  0.00    +0.000 A 
ATOM      9  C   UNL     1       2.236   8.249  17.840  0.00  0.00    +0.000 A 
ATOM     10  C   UNL     1       1.485   9.402  18.110  0.00  0.00    +0.000 A 
BRANCH   5  12
ATOM     11  N   UNL     1      -0.402  11.761  19.919  0.00  0.00    +0.000 NA
ATOM     12  C   UNL     1       0.207  10.803  19.680  0.00  0.00    +0.000 C 
ENDBRANCH   5  12
ENDBRANCH   1   8
BRANCH   2  13
ATOM     13  C   UNL     1       3.737   3.862  17.808  0.00  0.00    +0.000 C 
BRANCH  13  14
ATOM     14  S   UNL     1       3.072   2.245  18.253  0.00  0.00    +0.000 S 
BRANCH  14  15
ATOM     15  C   UNL     1       2.406   2.508  19.842  0.00  0.00    +0.000 A 
ATOM     16  C   UNL     1       1.101   2.677  20.234  0.00  0.00    +0.000 A 
ATOM     17  N   UNL     1       1.180   2.819  21.588  0.00  0.00    +0.000 N 
ATOM     18  N   UNL     1       2.448   2.738  22.017  0.00  0.00    +0.000 NA
ATOM     19  N   UNL     1       3.212   2.540  20.951  0.00  0.00    +0.000 NA
ATOM     20  H   UNL     1       0.445   2.963  22.271  0.00  0.00    +0.000 HD
ENDBRANCH  14  15
ENDBRANCH  13  14
ENDBRANCH   2  13
TORSDOF 5
ENDMDL
MODEL 3
REMARK VINA RESULT:      -6.4      3.420      6.359
REMARK  Name = 
REMARK  5 active torsions:
REMARK  status: ('A' for Active; 'I' for Inactive)
REMARK    1  A    between atoms: C_2  and  C_3
REMARK    2  A    between atoms: C_6  and  N_7
REMARK    3  A    between atoms: C_8  and  C_10
REMARK    4  A    between atoms: C_10  and  S_11
REMARK    5  A    between atoms: S_11  and  C_12
REMARK                            x       y       z     vdW  Elec       q    Type
REMARK                         _______ _______ _______ _____ _____    ______ ____
ROOT
ATOM      1  N   UNL     1       2.892   4.977  18.144  0.00  0.00    +0.000 N 
ATOM      2  C   UNL     1       2.970   5.277  19.497  0.00  0.00    +0.000 C 
ATOM      3  O   UNL     1       3.925   5.807  20.062  0.00  0.00    +0.000 OA
ATOM      4  H   UNL     1       1.995   4.664  17.788  0.00  0.00    +0.000 HD
ENDROOT
BRANCH   1   8
ATOM      5  C   UNL     1       6.044   5.219  15.332  0.00  0.00    +0.000 A 
ATOM      6  C   UNL     1       5.490   6.386  15.849  0.00  0.00    +0.000 A 
ATOM      7  C   UNL     1       4.447   6.321  16.778  0.00  0.00    +0.000 A 
ATOM      8  C   UNL     1       3.943   5.091  17.206  0.00  0.00    +0.000 A 
ATOM      9  C   UNL     1       4.517   3.917  16.702  0.00  0.00    +0.000 A 
ATOM     10  C   UNL     1       5.555   3.980  15.762  0.00  0.00    +0.000 A 
BRANCH   5  12
ATOM     11  N   UNL     1       7.965   5.356  13.595  0.00  0.00    +0.000 NA
ATOM     12  C   UNL     1       7.109   5.293  14.377  0.00  0.00    +0.000 C 
ENDBRANCH   5  12
ENDBRANCH   1   8
BRANCH   2  13
ATOM     13  C   UNL     1       1.710   4.973  20.286  0.00  0.00    +0.000 C 
BRANCH  13  14
ATOM     14  S   UNL     1       1.813   3.405  21.171  0.00  0.00    +0.000 S 
BRANCH  14  15
ATOM     15  C   UNL     1       2.988   2.502  20.253  0.00  0.00    +0.000 A 
ATOM     16  C   UNL     1       4.317   2.268  20.509  0.00  0.00    +0.000 A 
ATOM     17  N   UNL     1       4.719   1.489  19.465  0.00  0.00    +0.000 N 
ATOM     18  N   UNL     1       3.711   1.244  18.616  0.00  0.00    +0.000 NA
ATOM     19  N   UNL     1       2.637   1.858  19.095  0.00  0.00    +0.000 NA
ATOM     20  H   UNL     1       5.630   1.089  19.266  0.00  0.00    +0.000 HD
ENDBRANCH  14  15
ENDBRANCH  13  14
ENDBRANCH   2  13
TORSDOF 5
ENDMDL
MODEL 4
REMARK VINA RESULT:      -6.3      1.082      1.770
REMARK  Name = 
REMARK  5 active torsions:
REMARK  status: ('A' for Active; 'I' for Inactive)
REMARK    1  A    between atoms: C_2  and  C_3
REMARK    2  A    between atoms: C_6  and  N_7
REMARK    3  A    between atoms: C_8  and  C_10
REMARK    4  A    between atoms: C_10  and  S_11
REMARK    5  A    between atoms: S_11  and  C_12
REMARK                            x       y       z     vdW  Elec       q    Type
REMARK                         _______ _______ _______ _____ _____    ______ ____
ROOT
ATOM      1  N   UNL     1       3.272   6.212  18.632  0.00  0.00    +0.000 N 
ATOM      2  C   UNL     1       2.834   5.012  18.090  0.00  0.00    +0.000 C 
ATOM      3  O   UNL     1       1.711   4.793  17.640  0.00  0.00    +0.000 OA
ATOM      4  H   UNL     1       4.261   6.295  18.841  0.00  0.00    +0.000 HD
ENDROOT
BRANCH   1   8
ATOM      5  C   UNL     1       0.862   9.574  19.519  0.00  0.00    +0.000 A 
ATOM      6  C   UNL     1       1.337   9.388  18.225  0.00  0.00    +0.000 A 
ATOM      7  C   UNL     1       2.136   8.282  17.917  0.00  0.00    +0.000 A 
ATOM      8  C   UNL     1       2.471   7.345  18.897  0.00  0.00    +0.000 A 
ATOM      9  C   UNL     1       1.972   7.521  20.194  0.00  0.00    +0.000 A 
ATOM     10  C   UNL     1       1.181   8.636  20.508  0.00  0.00    +0.000 A 
BRANCH   5  12
ATOM     11  N   UNL     1      -0.603  11.638  20.087  0.00  0.00    +0.000 NA
ATOM     12  C   UNL     1       0.048  10.713  19.829  0.00  0.00    +0.000 C 
ENDBRANCH   5  12
ENDBRANCH   1   8
BRANCH   2  13
ATOM     13  C   UNL     1       3.898   3.933  17.999  0.00  0.00    +0.000 C 
BRANCH  13  14
ATOM     14  S   UNL     1       5.433   4.409  18.819  0.00  0.00    +0.000 S 
BRANCH  14  15
ATOM     15  C   UNL     1       6.357   5.153  17.542  0.00  0.00    +0.000 A 
ATOM     16  C   UNL     1       6.842   6.433  17.434  0.00  0.00    +0.000 A 
ATOM     17  N   UNL     1       7.500   6.435  16.239  0.00  0.00    +0.000 N 
ATOM     18  N   UNL     1       7.438   5.236  15.642  0.00  0.00    +0.000 NA
ATOM     19  N   UNL     1       6.741   4.436  16.438  0.00  0.00    +0.000 NA
ATOM     20  H   UNL     1       8.006   7.182  15.777  0.00  0.00    +0.000 HD
ENDBRANCH  14  15
ENDBRANCH  13  14
ENDBRANCH   2  13
TORSDOF 5
ENDMDL
MODEL 5
REMARK VINA RESULT:      -6.3      3.550      6.320
REMARK  Name = 
REMARK  5 active torsions:
REMARK  status: ('A' for Active; 'I' for Inactive)
REMARK    1  A    between atoms: C_2  and  C_3
REMARK    2  A    between atoms: C_6  and  N_7
REMARK    3  A    between atoms: C_8  and  C_10
REMARK    4  A    between atoms: C_10  and  S_11
REMARK    5  A    between atoms: S_11  and  C_12
REMARK                            x       y       z     vdW  Elec       q    Type
REMARK                         _______ _______ _______ _____ _____    ______ ____
ROOT
ATOM      1  N   UNL     1       3.372   4.845  18.400  0.00  0.00    +0.000 N 
ATOM      2  C   UNL     1       2.025   4.542  18.260  0.00  0.00    +0.000 C 
ATOM      3  O   UNL     1       1.475   4.175  17.223  0.00  0.00    +0.000 OA
ATOM      4  H   UNL     1       3.717   5.005  19.341  0.00  0.00    +0.000 HD
ENDROOT
BRANCH   1   8
ATOM      5  C   UNL     1       6.196   5.193  15.268  0.00  0.00    +0.000 A 
ATOM      6  C   UNL     1       5.834   3.933  15.735  0.00  0.00    +0.000 A 
ATOM      7  C   UNL     1       4.903   3.803  16.770  0.00  0.00    +0.000 A 
ATOM      8  C   UNL     1       4.318   4.928  17.354  0.00  0.00    +0.000 A 
ATOM      9  C   UNL     1       4.666   6.195  16.868  0.00  0.00    +0.000 A 
ATOM     10  C   UNL     1       5.608   6.328  15.838  0.00  0.00    +0.000 A 
BRANCH   5  12
ATOM     11  N   UNL     1       7.924   5.414  13.348  0.00  0.00    +0.000 NA
ATOM     12  C   UNL     1       7.154   5.319  14.211  0.00  0.00    +0.000 C 
ENDBRANCH   5  12
ENDBRANCH   1   8
BRANCH   2  13
ATOM     13  C   UNL     1       1.223   4.612  19.546  0.00  0.00    +0.000 C 
BRANCH  13  14
ATOM     14  S   UNL     1       1.197   3.037  20.428  0.00  0.00    +0.000 S 
BRANCH  14  15
ATOM     15  C   UNL     1       2.727   2.315  20.004  0.00  0.00    +0.000 A 
ATOM     16  C   UNL     1       3.040   1.446  18.989  0.00  0.00    +0.000 A 
ATOM     17  N   UNL     1       4.381   1.242  19.133  0.00  0.00    +0.000 N 
ATOM     18  N   UNL     1       4.876   1.941  20.165  0.00  0.00    +0.000 NA
ATOM     19  N   UNL     1       3.867   2.612  20.705  0.00  0.00    +0.000 NA
ATOM     20  H   UNL     1       5.014   0.668  18.587  0.00  0.00    +0.000 HD
ENDBRANCH  14  15
ENDBRANCH  13  14
ENDBRANCH   2  13
TORSDOF 5
ENDMDL
MODEL 6
REMARK VINA RESULT:      -6.3      2.813      4.584
REMARK  Name = 
REMARK  5 active torsions:
REMARK  status: ('A' for Active; 'I' for Inactive)
REMARK    1  A    between atoms: C_2  and  C_3
REMARK    2  A    between atoms: C_6  and  N_7
REMARK    3  A    between atoms: C_8  and  C_10
REMARK    4  A    between atoms: C_10  and  S_11
REMARK    5  A    between atoms: S_11  and  C_12
REMARK                            x       y       z     vdW  Elec       q    Type
REMARK                         _______ _______ _______ _____ _____    ______ ____
ROOT
ATOM      1  N   UNL     1       3.168   5.707  18.326  0.00  0.00    +0.000 N 
ATOM      2  C   UNL     1       2.555   4.613  17.734  0.00  0.00    +0.000 C 
ATOM      3  O   UNL     1       1.373   4.544  17.401  0.00  0.00    +0.000 OA
ATOM      4  H   UNL     1       4.178   5.678  18.425  0.00  0.00    +0.000 HD
ENDROOT
BRANCH   1   8
ATOM      5  C   UNL     1       1.218   9.167  19.785  0.00  0.00    +0.000 A 
ATOM      6  C   UNL     1       1.600   9.102  18.449  0.00  0.00    +0.000 A 
ATOM      7  C   UNL     1       2.246   7.965  17.953  0.00  0.00    +0.000 A 
ATOM      8  C   UNL     1       2.520   6.876  18.784  0.00  0.00    +0.000 A 
ATOM      9  C   UNL     1       2.115   6.934  20.123  0.00  0.00    +0.000 A 
ATOM     10  C   UNL     1       1.477   8.077  20.625  0.00  0.00    +0.000 A 
BRANCH   5  12
ATOM     11  N   UNL     1       0.029  11.279  20.706  0.00  0.00    +0.000 NA
ATOM     12  C   UNL     1       0.561  10.337  20.288  0.00  0.00    +0.000 C 
ENDBRANCH   5  12
ENDBRANCH   1   8
BRANCH   2  13
ATOM     13  C   UNL     1       3.487   3.456  17.423  0.00  0.00    +0.000 C 
BRANCH  13  14
ATOM     14  S   UNL     1       2.921   1.902  18.146  0.00  0.00    +0.000 S 
BRANCH  14  15
ATOM     15  C   UNL     1       2.513   2.346  19.782  0.00  0.00    +0.000 A 
ATOM     16  C   UNL     1       3.329   2.639  20.845  0.00  0.00    +0.000 A 
ATOM     17  N   UNL     1       2.460   2.933  21.855  0.00  0.00    +0.000 N 
ATOM     18  N   UNL     1       1.186   2.836  21.450  0.00  0.00    +0.000 NA
ATOM     19  N   UNL     1       1.205   2.482  20.172  0.00  0.00    +0.000 NA
ATOM     20  H   UNL     1       2.646   3.205  22.814  0.00  0.00    +0.000 HD
ENDBRANCH  14  15
ENDBRANCH  13  14
ENDBRANCH   2  13
TORSDOF 5
ENDMDL
MODEL 7
REMARK VINA RESULT:      -6.3      1.039      1.216
REMARK  Name = 
REMARK  5 active torsions:
REMARK  status: ('A' for Active; 'I' for Inactive)
REMARK    1  A    between atoms: C_2  and  C_3
REMARK    2  A    between atoms: C_6  and  N_7
REMARK    3  A    between atoms: C_8  and  C_10
REMARK    4  A    between atoms: C_10  and  S_11
REMARK    5  A    between atoms: S_11  and  C_12
REMARK                            x       y       z     vdW  Elec       q    Type
REMARK                         _______ _______ _______ _____ _____    ______ ____
ROOT
ATOM      1  N   UNL     1       3.231   6.339  18.764  0.00  0.00    +0.000 N 
ATOM      2  C   UNL     1       2.803   5.024  18.640  0.00  0.00    +0.000 C 
ATOM      3  O   UNL     1       1.634   4.653  18.559  0.00  0.00    +0.000 OA
ATOM      4  H   UNL     1       4.228   6.513  18.685  0.00  0.00    +0.000 HD
ENDROOT
BRANCH   1   8
ATOM      5  C   UNL     1       0.767   9.740  19.275  0.00  0.00    +0.000 A 
ATOM      6  C   UNL     1       1.035   8.912  20.361  0.00  0.00    +0.000 A 
ATOM      7  C   UNL     1       1.846   7.783  20.207  0.00  0.00    +0.000 A 
ATOM      8  C   UNL     1       2.404   7.466  18.966  0.00  0.00    +0.000 A 
ATOM      9  C   UNL     1       2.154   8.313  17.880  0.00  0.00    +0.000 A 
ATOM     10  C   UNL     1       1.330   9.438  18.030  0.00  0.00    +0.000 A 
BRANCH   5  12
ATOM     11  N   UNL     1      -0.755  11.818  19.578  0.00  0.00    +0.000 NA
ATOM     12  C   UNL     1      -0.069  10.891  19.439  0.00  0.00    +0.000 C 
ENDBRANCH   5  12
ENDBRANCH   1   8
BRANCH   2  13
ATOM     13  C   UNL     1       3.920   4.003  18.521  0.00  0.00    +0.000 C 
BRANCH  13  14
ATOM     14  S   UNL     1       5.539   4.708  18.891  0.00  0.00    +0.000 S 
BRANCH  14  15
ATOM     15  C   UNL     1       6.176   5.102  17.317  0.00  0.00    +0.000 A 
ATOM     16  C   UNL     1       7.309   4.652  16.686  0.00  0.00    +0.000 A 
ATOM     17  N   UNL     1       7.283   5.281  15.476  0.00  0.00    +0.000 N 
ATOM     18  N   UNL     1       6.203   6.067  15.354  0.00  0.00    +0.000 NA
ATOM     19  N   UNL     1       5.510   5.960  16.479  0.00  0.00    +0.000 NA
ATOM     20  H   UNL     1       7.935   5.228  14.701  0.00  0.00    +0.000 HD
ENDBRANCH  14  15
ENDBRANCH  13  14
ENDBRANCH   2  13
TORSDOF 5
ENDMDL
MODEL 8
REMARK VINA RESULT:      -6.3      0.685      1.326
REMARK  Name = 
REMARK  5 active torsions:
REMARK  status: ('A' for Active; 'I' for Inactive)
REMARK    1  A    between atoms: C_2  and  C_3
REMARK    2  A    between atoms: C_6  and  N_7
REMARK    3  A    between atoms: C_8  and  C_10
REMARK    4  A    between atoms: C_10  and  S_11
REMARK    5  A    between atoms: S_11  and  C_12
REMARK                            x       y       z     vdW  Elec       q    Type
REMARK                         _______ _______ _______ _____ _____    ______ ____
ROOT
ATOM      1  N   UNL     1       3.267   6.210  18.659  0.00  0.00    +0.000 N 
ATOM      2  C   UNL     1       2.804   4.983  18.204  0.00  0.00    +0.000 C 
ATOM      3  O   UNL     1       1.678   4.758  17.765  0.00  0.00    +0.000 OA
ATOM      4  H   UNL     1       4.257   6.285  18.868  0.00  0.00    +0.000 HD
ENDROOT
BRANCH   1   8
ATOM      5  C   UNL     1       0.927   9.678  19.285  0.00  0.00    +0.000 A 
ATOM      6  C   UNL     1       1.467   9.428  18.028  0.00  0.00    +0.000 A 
ATOM      7  C   UNL     1       2.244   8.286  17.807  0.00  0.00    +0.000 A 
ATOM      8  C   UNL     1       2.491   7.377  18.837  0.00  0.00    +0.000 A 
ATOM      9  C   UNL     1       1.927   7.618  20.096  0.00  0.00    +0.000 A 
ATOM     10  C   UNL     1       1.158   8.768  20.323  0.00  0.00    +0.000 A 
BRANCH   5  12
ATOM     11  N   UNL     1      -0.498  11.809  19.677  0.00  0.00    +0.000 NA
ATOM     12  C   UNL     1       0.136  10.852  19.506  0.00  0.00    +0.000 C 
ENDBRANCH   5  12
ENDBRANCH   1   8
BRANCH   2  13
ATOM     13  C   UNL     1       3.843   3.877  18.198  0.00  0.00    +0.000 C 
BRANCH  13  14
ATOM     14  S   UNL     1       5.519   4.506  18.422  0.00  0.00    +0.000 S 
BRANCH  14  15
ATOM     15  C   UNL     1       6.148   4.563  16.797  0.00  0.00    +0.000 A 
ATOM     16  C   UNL     1       5.535   4.269  15.604  0.00  0.00    +0.000 A 
ATOM     17  N   UNL     1       6.500   4.514  14.671  0.00  0.00    +0.000 N 
ATOM     18  N   UNL     1       7.637   4.939  15.240  0.00  0.00    +0.000 NA
ATOM     19  N   UNL     1       7.430   4.980  16.549  0.00  0.00    +0.000 NA
ATOM     20  H   UNL     1       6.464   4.426  13.661  0.00  0.00    +0.000 HD
ENDBRANCH  14  15
ENDBRANCH  13  14
ENDBRANCH   2  13
TORSDOF 5
ENDMDL
MODEL 9
REMARK VINA RESULT:      -6.3      4.435      6.302
REMARK  Name = 
REMARK  5 active torsions:
REMARK  status: ('A' for Active; 'I' for Inactive)
REMARK    1  A    between atoms: C_2  and  C_3
REMARK    2  A    between atoms: C_6  and  N_7
REMARK    3  A    between atoms: C_8  and  C_10
REMARK    4  A    between atoms: C_10  and  S_11
REMARK    5  A    between atoms: S_11  and  C_12
REMARK                            x       y       z     vdW  Elec       q    Type
REMARK                         _______ _______ _______ _____ _____    ______ ____
ROOT
ATOM      1  N   UNL     1       5.367   3.975  17.616  0.00  0.00    +0.000 N 
ATOM      2  C   UNL     1       3.982   3.884  17.576  0.00  0.00    +0.000 C 
ATOM      3  O   UNL     1       3.200   4.832  17.527  0.00  0.00    +0.000 OA
ATOM      4  H   UNL     1       5.892   3.113  17.518  0.00  0.00    +0.000 HD
ENDROOT
BRANCH   1   8
ATOM      5  C   UNL     1       7.557   7.578  17.965  0.00  0.00    +0.000 A 
ATOM      6  C   UNL     1       7.931   6.468  18.716  0.00  0.00    +0.000 A 
ATOM      7  C   UNL     1       7.215   5.271  18.611  0.00  0.00    +0.000 A 
ATOM      8  C   UNL     1       6.117   5.164  17.755  0.00  0.00    +0.000 A 
ATOM      9  C   UNL     1       5.756   6.276  16.983  0.00  0.00    +0.000 A 
ATOM     10  C   UNL     1       6.465   7.480  17.095  0.00  0.00    +0.000 A 
BRANCH   5  12
ATOM     11  N   UNL     1       8.894   9.790  18.180  0.00  0.00    +0.000 NA
ATOM     12  C   UNL     1       8.291   8.803  18.081  0.00  0.00    +0.000 C 
ENDBRANCH   5  12
ENDBRANCH   1   8
BRANCH   2  13
ATOM     13  C   UNL     1       3.443   2.467  17.510  0.00  0.00    +0.000 C 
BRANCH  13  14
ATOM     14  S   UNL     1       3.743   1.546  19.032  0.00  0.00    +0.000 S 
BRANCH  14  15
ATOM     15  C   UNL     1       2.664   2.299  20.176  0.00  0.00    +0.000 A 
ATOM     16  C   UNL     1       1.378   2.749  20.011  0.00  0.00    +0.000 A 
ATOM     17  N   UNL     1       1.034   3.219  21.244  0.00  0.00    +0.000 N 
ATOM     18  N   UNL     1       2.034   3.068  22.124  0.00  0.00    +0.000 NA
ATOM     19  N   UNL     1       3.042   2.496  21.480  0.00  0.00    +0.000 NA
ATOM     20  H   UNL     1       0.166   3.637  21.562  0.00  0.00    +0.000 HD
ENDBRANCH  14  15
ENDBRANCH  13  14
ENDBRANCH   2  13
TORSDOF 5
ENDMDL
