MODEL 1
REMARK VINA RESULT:      -8.3      0.000      0.000
REMARK  Name = 
REMARK  7 active torsions:
REMARK  status: ('A' for Active; 'I' for Inactive)
REMARK    1  A    between atoms: C_1  and  C_2
REMARK    2  A    between atoms: N_9  and  C_10
REMARK    3  A    between atoms: C_10  and  C_11
REMARK    4  A    between atoms: C_17  and  C_19
REMARK    5  A    between atoms: C_19  and  C_20
REMARK    6  A    between atoms: C_20  and  S_21
REMARK    7  A    between atoms: S_21  and  C_24
REMARK                            x       y       z     vdW  Elec       q    Type
REMARK                         _______ _______ _______ _____ _____    ______ ____
ROOT
ATOM      1  C   UNL     1       1.043   9.326  22.740  0.00  0.00    +0.000 C 
ATOM      2  C   UNL     1       0.794   9.898  21.373  0.00  0.00    +0.000 A 
ATOM      3  C   UNL     1       0.306  11.215  21.252  0.00  0.00    +0.000 A 
ATOM      4  C   UNL     1       0.057  11.784  20.007  0.00  0.00    +0.000 A 
ATOM      5  C   UNL     1       0.289  11.065  18.835  0.00  0.00    +0.000 A 
ATOM      6  C   UNL     1       0.814   9.767  18.947  0.00  0.00    +0.000 A 
ATOM      7  S   UNL     1       1.260   8.674  17.688  0.00  0.00    +0.000 S 
ATOM      8  C   UNL     1       1.867   7.596  18.865  0.00  0.00    +0.000 A 
ATOM      9  N   UNL     1       2.564   6.484  18.408  0.00  0.00    +0.000 N 
ATOM     10  C   UNL     1       3.877   6.750  18.028  0.00  0.00    +0.000 C 
ATOM     11  O   UNL     1       4.380   7.877  18.055  0.00  0.00    +0.000 OA
ATOM     12  N   UNL     1       1.602   7.885  20.116  0.00  0.00    +0.000 NA
ATOM     13  C   UNL     1       1.069   9.170  20.185  0.00  0.00    +0.000 A 
ENDROOT
BRANCH   9  14
ATOM     14  C   UNL     1       1.910   5.176  18.327  0.00  0.00    +0.000 C 
BRANCH  14  15
ATOM     15  C   UNL     1       2.034   4.268  19.527  0.00  0.00    +0.000 A 
ATOM     16  C   UNL     1       0.966   3.944  20.368  0.00  0.00    +0.000 A 
ATOM     17  C   UNL     1       1.116   2.960  21.343  0.00  0.00    +0.000 A 
ATOM     18  C   UNL     1       2.339   2.326  21.458  0.00  0.00    +0.000 A 
ATOM     19  N   UNL     1       3.406   2.627  20.690  0.00  0.00    +0.000 NA
ATOM     20  C   UNL     1       3.229   3.583  19.750  0.00  0.00    +0.000 A 
ENDBRANCH  14  15
ENDBRANCH   9  14
BRANCH  10  21
ATOM     21  C   UNL     1       4.711   5.592  17.519  0.00  0.00    +0.000 C 
BRANCH  21  22
ATOM     22  C   UNL     1       5.215   5.893  16.112  0.00  0.00    +0.000 C 
BRANCH  22  23
ATOM     23  S   UNL     1       6.866   5.283  15.888  0.00  0.00    +0.000 S 
ATOM     24  O   UNL     1       7.777   6.411  15.977  0.00  0.00    +0.000 OA
ATOM     25  O   UNL     1       7.042   4.126  16.747  0.00  0.00    +0.000 OA
BRANCH  23  26
ATOM     26  C   UNL     1       6.882   4.724  14.201  0.00  0.00    +0.000 A 
ATOM     27  C   UNL     1       5.966   3.748  13.793  0.00  0.00    +0.000 A 
ATOM     28  C   UNL     1       5.958   3.325  12.464  0.00  0.00    +0.000 A 
ATOM     29  C   UNL     1       6.856   3.879  11.551  0.00  0.00    +0.000 A 
ATOM     30  C   UNL     1       7.759   4.862  11.960  0.00  0.00    +0.000 A 
ATOM     31  C   UNL     1       7.773   5.293  13.287  0.00  0.00    +0.000 A 
ENDBRANCH  23  26
ENDBRANCH  22  23
ENDBRANCH  21  22
ENDBRANCH  10  21
TORSDOF 6
ENDMDL
MODEL 2
REMARK VINA RESULT:      -8.0      0.767      1.168
REMARK  Name = 
REMARK  7 active torsions:
REMARK  status: ('A' for Active; 'I' for Inactive)
REMARK    1  A    between atoms: C_1  and  C_2
REMARK    2  A    between atoms: N_9  and  C_10
REMARK    3  A    between atoms: C_10  and  C_11
REMARK    4  A    between atoms: C_17  and  C_19
REMARK    5  A    between atoms: C_19  and  C_20
REMARK    6  A    between atoms: C_20  and  S_21
REMARK    7  A    between atoms: S_21  and  C_24
REMARK                            x       y       z     vdW  Elec       q    Type
REMARK                         _______ _______ _______ _____ _____    ______ ____
ROOT
ATOM      1  C   UNL     1       1.103   9.051  22.472  0.00  0.00    +0.000 C 
ATOM      2  C   UNL     1       1.091   9.518  21.044  0.00  0.00    +0.000 A 
ATOM      3  C   UNL     1       0.662  10.828  20.747  0.00  0.00    +0.000 A 
ATOM      4  C   UNL     1       0.630  11.301  19.439  0.00  0.00    +0.000 A 
ATOM      5  C   UNL     1       1.028  10.489  18.378  0.00  0.00    +0.000 A 
ATOM      6  C   UNL     1       1.494   9.198  18.669  0.00  0.00    +0.000 A 
ATOM      7  S   UNL     1       2.109   8.004  17.585  0.00  0.00    +0.000 S 
ATOM      8  C   UNL     1       2.492   7.013  18.922  0.00  0.00    +0.000 A 
ATOM      9  N   UNL     1       3.224   5.861  18.668  0.00  0.00    +0.000 N 
ATOM     10  C   UNL     1       4.587   6.079  18.485  0.00  0.00    +0.000 C 
ATOM     11  O   UNL     1       5.108   7.197  18.509  0.00  0.00    +0.000 OA
ATOM     12  N   UNL     1       2.038   7.402  20.088  0.00  0.00    +0.000 NA
ATOM     13  C   UNL     1       1.534   8.696  19.974  0.00  0.00    +0.000 A 
ENDROOT
BRANCH   9  14
ATOM     14  C   UNL     1       2.559   4.558  18.581  0.00  0.00    +0.000 C 
BRANCH  14  15
ATOM     15  C   UNL     1       2.339   3.809  19.873  0.00  0.00    +0.000 A 
ATOM     16  C   UNL     1       1.096   3.691  20.500  0.00  0.00    +0.000 A 
ATOM     17  C   UNL     1       0.938   2.834  21.587  0.00  0.00    +0.000 A 
ATOM     18  C   UNL     1       2.035   2.118  22.027  0.00  0.00    +0.000 A 
ATOM     19  N   UNL     1       3.261   2.222  21.473  0.00  0.00    +0.000 NA
ATOM     20  C   UNL     1       3.382   3.057  20.417  0.00  0.00    +0.000 A 
ENDBRANCH  14  15
ENDBRANCH   9  14
BRANCH  10  21
ATOM     21  C   UNL     1       5.463   4.873  18.206  0.00  0.00    +0.000 C 
BRANCH  21  22
ATOM     22  C   UNL     1       5.520   4.609  16.705  0.00  0.00    +0.000 C 
BRANCH  22  23
ATOM     23  S   UNL     1       7.105   5.059  16.045  0.00  0.00    +0.000 S 
ATOM     24  O   UNL     1       7.241   6.502  16.150  0.00  0.00    +0.000 OA
ATOM     25  O   UNL     1       8.104   4.183  16.628  0.00  0.00    +0.000 OA
BRANCH  23  26
ATOM     26  C   UNL     1       6.967   4.665  14.318  0.00  0.00    +0.000 A 
ATOM     27  C   UNL     1       7.855   5.247  13.408  0.00  0.00    +0.000 A 
ATOM     28  C   UNL     1       7.766   4.921  12.054  0.00  0.00    +0.000 A 
ATOM     29  C   UNL     1       6.799   4.015  11.618  0.00  0.00    +0.000 A 
ATOM     30  C   UNL     1       5.924   3.426  12.533  0.00  0.00    +0.000 A 
ATOM     31  C   UNL     1       6.007   3.745  13.889  0.00  0.00    +0.000 A 
ENDBRANCH  23  26
ENDBRANCH  22  23
ENDBRANCH  21  22
ENDBRANCH  10  21
TORSDOF 6
ENDMDL
MODEL 3
REMARK VINA RESULT:      -7.4      4.244      7.457
REMARK  Name = 
REMARK  7 active torsions:
REMARK  status: ('A' for Active; 'I' for Inactive)
REMARK    1  A    between atoms: C_1  and  C_2
REMARK    2  A    between atoms: N_9  and  C_10
REMARK    3  A    between atoms: C_10  and  C_11
REMARK    4  A    between atoms: C_17  and  C_19
REMARK    5  A    between atoms: C_19  and  C_20
REMARK    6  A    between atoms: C_20  and  S_21
REMARK    7  A    between atoms: S_21  and  C_24
REMARK                            x       y       z     vdW  Elec       q    Type
REMARK                         _______ _______ _______ _____ _____    ______ ____
ROOT
ATOM      1  C   UNL     1      -3.872  10.708  16.216  0.00  0.00    +0.000 C 
ATOM      2  C   UNL     1      -3.930  11.401  17.548  0.00  0.00    +0.000 A 
ATOM      3  C   UNL     1      -5.152  11.946  17.992  0.00  0.00    +0.000 A 
ATOM      4  C   UNL     1      -5.252  12.600  19.216  0.00  0.00    +0.000 A 
ATOM      5  C   UNL     1      -4.140  12.732  20.046  0.00  0.00    +0.000 A 
ATOM      6  C   UNL     1      -2.929  12.157  19.628  0.00  0.00    +0.000 A 
ATOM      7  S   UNL     1      -1.419  12.102  20.463  0.00  0.00    +0.000 S 
ATOM      8  C   UNL     1      -0.790  11.113  19.220  0.00  0.00    +0.000 A 
ATOM      9  N   UNL     1       0.469  10.563  19.423  0.00  0.00    +0.000 N 
ATOM     10  C   UNL     1       0.478   9.451  20.262  0.00  0.00    +0.000 C 
ATOM     11  O   UNL     1      -0.532   9.005  20.813  0.00  0.00    +0.000 OA
ATOM     12  N   UNL     1      -1.535  10.972  18.151  0.00  0.00    +0.000 NA
ATOM     13  C   UNL     1      -2.800  11.497  18.402  0.00  0.00    +0.000 A 
ENDROOT
BRANCH   9  14
ATOM     14  C   UNL     1       1.654  11.164  18.805  0.00  0.00    +0.000 C 
BRANCH  14  15
ATOM     15  C   UNL     1       1.947  12.607  19.136  0.00  0.00    +0.000 A 
ATOM     16  C   UNL     1       2.171  13.075  20.434  0.00  0.00    +0.000 A 
ATOM     17  C   UNL     1       2.615  14.380  20.641  0.00  0.00    +0.000 A 
ATOM     18  C   UNL     1       2.817  15.191  19.539  0.00  0.00    +0.000 A 
ATOM     19  N   UNL     1       2.585  14.792  18.272  0.00  0.00    +0.000 NA
ATOM     20  C   UNL     1       2.160  13.519  18.102  0.00  0.00    +0.000 A 
ENDBRANCH  14  15
ENDBRANCH   9  14
BRANCH  10  21
ATOM     21  C   UNL     1       1.812   8.786  20.535  0.00  0.00    +0.000 C 
BRANCH  21  22
ATOM     22  C   UNL     1       1.649   7.270  20.517  0.00  0.00    +0.000 C 
BRANCH  22  23
ATOM     23  S   UNL     1       2.573   6.551  19.183  0.00  0.00    +0.000 S 
ATOM     24  O   UNL     1       2.172   7.211  17.953  0.00  0.00    +0.000 OA
ATOM     25  O   UNL     1       3.970   6.507  19.572  0.00  0.00    +0.000 OA
BRANCH  23  26
ATOM     26  C   UNL     1       1.969   4.881  19.107  0.00  0.00    +0.000 A 
ATOM     27  C   UNL     1       2.240   4.104  17.976  0.00  0.00    +0.000 A 
ATOM     28  C   UNL     1       1.790   2.784  17.923  0.00  0.00    +0.000 A 
ATOM     29  C   UNL     1       1.080   2.247  18.998  0.00  0.00    +0.000 A 
ATOM     30  C   UNL     1       0.825   3.023  20.131  0.00  0.00    +0.000 A 
ATOM     31  C   UNL     1       1.273   4.343  20.192  0.00  0.00    +0.000 A 
ENDBRANCH  23  26
ENDBRANCH  22  23
ENDBRANCH  21  22
ENDBRANCH  10  21
TORSDOF 6
ENDMDL
MODEL 4
REMARK VINA RESULT:      -7.4      0.949      1.148
REMARK  Name = 
REMARK  7 active torsions:
REMARK  status: ('A' for Active; 'I' for Inactive)
REMARK    1  A    between atoms: C_1  and  C_2
REMARK    2  A    between atoms: N_9  and  C_10
REMARK    3  A    between atoms: C_10  and  C_11
REMARK    4  A    between atoms: C_17  and  C_19
REMARK    5  A    between atoms: C_19  and  C_20
REMARK    6  A    between atoms: C_20  and  S_21
REMARK    7  A    between atoms: S_21  and  C_24
REMARK                            x       y       z     vdW  Elec       q    Type
REMARK                         _______ _______ _______ _____ _____    ______ ____
ROOT
ATOM      1  C   UNL     1       0.816   9.278  22.713  0.00  0.00    +0.000 C 
ATOM      2  C   UNL     1       0.646  10.003  21.408  0.00  0.00    +0.000 A 
ATOM      3  C   UNL     1       0.207  11.343  21.413  0.00  0.00    +0.000 A 
ATOM      4  C   UNL     1       0.031  12.052  20.229  0.00  0.00    +0.000 A 
ATOM      5  C   UNL     1       0.288  11.455  18.996  0.00  0.00    +0.000 A 
ATOM      6  C   UNL     1       0.764  10.134  18.985  0.00  0.00    +0.000 A 
ATOM      7  S   UNL     1       1.228   9.167  17.632  0.00  0.00    +0.000 S 
ATOM      8  C   UNL     1       1.748   7.946  18.707  0.00  0.00    +0.000 A 
ATOM      9  N   UNL     1       2.426   6.865  18.159  0.00  0.00    +0.000 N 
ATOM     10  C   UNL     1       3.762   7.121  17.861  0.00  0.00    +0.000 C 
ATOM     11  O   UNL     1       4.300   8.218  18.030  0.00  0.00    +0.000 OA
ATOM     12  N   UNL     1       1.439   8.108  19.971  0.00  0.00    +0.000 NA
ATOM     13  C   UNL     1       0.947   9.398  20.159  0.00  0.00    +0.000 A 
ENDROOT
BRANCH   9  14
ATOM     14  C   UNL     1       1.733   5.598  17.910  0.00  0.00    +0.000 C 
BRANCH  14  15
ATOM     15  C   UNL     1       1.922   4.498  18.926  0.00  0.00    +0.000 A 
ATOM     16  C   UNL     1       1.490   4.583  20.252  0.00  0.00    +0.000 A 
ATOM     17  C   UNL     1       1.537   3.462  21.077  0.00  0.00    +0.000 A 
ATOM     18  C   UNL     1       2.023   2.278  20.555  0.00  0.00    +0.000 A 
ATOM     19  N   UNL     1       2.479   2.156  19.292  0.00  0.00    +0.000 NA
ATOM     20  C   UNL     1       2.417   3.260  18.513  0.00  0.00    +0.000 A 
ENDBRANCH  14  15
ENDBRANCH   9  14
BRANCH  10  21
ATOM     21  C   UNL     1       4.578   5.993  17.261  0.00  0.00    +0.000 C 
BRANCH  21  22
ATOM     22  C   UNL     1       5.656   5.552  18.246  0.00  0.00    +0.000 C 
BRANCH  22  23
ATOM     23  S   UNL     1       7.218   5.357  17.427  0.00  0.00    +0.000 S 
ATOM     24  O   UNL     1       7.802   6.676  17.253  0.00  0.00    +0.000 OA
ATOM     25  O   UNL     1       7.959   4.310  18.106  0.00  0.00    +0.000 OA
BRANCH  23  26
ATOM     26  C   UNL     1       6.774   4.759  15.813  0.00  0.00    +0.000 A 
ATOM     27  C   UNL     1       5.777   3.786  15.692  0.00  0.00    +0.000 A 
ATOM     28  C   UNL     1       5.407   3.332  14.426  0.00  0.00    +0.000 A 
ATOM     29  C   UNL     1       6.027   3.854  13.291  0.00  0.00    +0.000 A 
ATOM     30  C   UNL     1       7.012   4.836  13.416  0.00  0.00    +0.000 A 
ATOM     31  C   UNL     1       7.386   5.297  14.678  0.00  0.00    +0.000 A 
ENDBRANCH  23  26
ENDBRANCH  22  23
ENDBRANCH  21  22
ENDBRANCH  10  21
TORSDOF 6
ENDMDL
MODEL 5
REMARK VINA RESULT:      -7.3      4.515      7.605
REMARK  Name = 
REMARK  7 active torsions:
REMARK  status: ('A' for Active; 'I' for Inactive)
REMARK    1  A    between atoms: C_1  and  C_2
REMARK    2  A    between atoms: N_9  and  C_10
REMARK    3  A    between atoms: C_10  and  C_11
REMARK    4  A    between atoms: C_17  and  C_19
REMARK    5  A    between atoms: C_19  and  C_20
REMARK    6  A    between atoms: C_20  and  S_21
REMARK    7  A    between atoms: S_21  and  C_24
REMARK                            x       y       z     vdW  Elec       q    Type
REMARK                         _______ _______ _______ _____ _____    ______ ____
ROOT
ATOM      1  C   UNL     1      -4.079  10.837  16.316  0.00  0.00    +0.000 C 
ATOM      2  C   UNL     1      -4.084  11.492  17.668  0.00  0.00    +0.000 A 
ATOM      3  C   UNL     1      -5.293  12.000  18.187  0.00  0.00    +0.000 A 
ATOM      4  C   UNL     1      -5.344  12.617  19.433  0.00  0.00    +0.000 A 
ATOM      5  C   UNL     1      -4.194  12.748  20.211  0.00  0.00    +0.000 A 
ATOM      6  C   UNL     1      -2.995  12.209  19.718  0.00  0.00    +0.000 A 
ATOM      7  S   UNL     1      -1.445  12.160  20.475  0.00  0.00    +0.000 S 
ATOM      8  C   UNL     1      -0.860  11.220  19.175  0.00  0.00    +0.000 A 
ATOM      9  N   UNL     1       0.418  10.690  19.300  0.00  0.00    +0.000 N 
ATOM     10  C   UNL     1       0.489   9.555  20.104  0.00  0.00    +0.000 C 
ATOM     11  O   UNL     1      -0.484   9.073  20.691  0.00  0.00    +0.000 OA
ATOM     12  N   UNL     1      -1.654  11.094  18.140  0.00  0.00    +0.000 NA
ATOM     13  C   UNL     1      -2.915  11.587  18.469  0.00  0.00    +0.000 A 
ENDROOT
BRANCH   9  14
ATOM     14  C   UNL     1       1.559  11.331  18.642  0.00  0.00    +0.000 C 
BRANCH  14  15
ATOM     15  C   UNL     1       1.889  12.744  19.057  0.00  0.00    +0.000 A 
ATOM     16  C   UNL     1       1.769  13.850  18.211  0.00  0.00    +0.000 A 
ATOM     17  C   UNL     1       1.917  15.139  18.718  0.00  0.00    +0.000 A 
ATOM     18  C   UNL     1       2.189  15.292  20.065  0.00  0.00    +0.000 A 
ATOM     19  N   UNL     1       2.344  14.254  20.912  0.00  0.00    +0.000 NA
ATOM     20  C   UNL     1       2.190  13.015  20.393  0.00  0.00    +0.000 A 
ENDBRANCH  14  15
ENDBRANCH   9  14
BRANCH  10  21
ATOM     21  C   UNL     1       1.847   8.909  20.292  0.00  0.00    +0.000 C 
BRANCH  21  22
ATOM     22  C   UNL     1       1.683   7.408  20.509  0.00  0.00    +0.000 C 
BRANCH  22  23
ATOM     23  S   UNL     1       2.568   6.491  19.274  0.00  0.00    +0.000 S 
ATOM     24  O   UNL     1       2.170   6.994  17.971  0.00  0.00    +0.000 OA
ATOM     25  O   UNL     1       3.969   6.458  19.653  0.00  0.00    +0.000 OA
BRANCH  23  26
ATOM     26  C   UNL     1       1.917   4.845  19.427  0.00  0.00    +0.000 A 
ATOM     27  C   UNL     1       1.708   4.305  20.701  0.00  0.00    +0.000 A 
ATOM     28  C   UNL     1       1.173   3.022  20.826  0.00  0.00    +0.000 A 
ATOM     29  C   UNL     1       0.846   2.290  19.684  0.00  0.00    +0.000 A 
ATOM     30  C   UNL     1       1.044   2.839  18.415  0.00  0.00    +0.000 A 
ATOM     31  C   UNL     1       1.576   4.122  18.281  0.00  0.00    +0.000 A 
ENDBRANCH  23  26
ENDBRANCH  22  23
ENDBRANCH  21  22
ENDBRANCH  10  21
TORSDOF 6
ENDMDL
MODEL 6
REMARK VINA RESULT:      -7.2      2.054      2.979
REMARK  Name = 
REMARK  7 active torsions:
REMARK  status: ('A' for Active; 'I' for Inactive)
REMARK    1  A    between atoms: C_1  and  C_2
REMARK    2  A    between atoms: N_9  and  C_10
REMARK    3  A    between atoms: C_10  and  C_11
REMARK    4  A    between atoms: C_17  and  C_19
REMARK    5  A    between atoms: C_19  and  C_20
REMARK    6  A    between atoms: C_20  and  S_21
REMARK    7  A    between atoms: S_21  and  C_24
REMARK                            x       y       z     vdW  Elec       q    Type
REMARK                         _______ _______ _______ _____ _____    ______ ____
ROOT
ATOM      1  C   UNL     1       0.905   9.316  22.705  0.00  0.00    +0.000 C 
ATOM      2  C   UNL     1       0.943   9.959  21.348  0.00  0.00    +0.000 A 
ATOM      3  C   UNL     1       0.734  11.349  21.234  0.00  0.00    +0.000 A 
ATOM      4  C   UNL     1       0.756  11.987  19.998  0.00  0.00    +0.000 A 
ATOM      5  C   UNL     1       0.991  11.265  18.828  0.00  0.00    +0.000 A 
ATOM      6  C   UNL     1       1.241   9.887  18.938  0.00  0.00    +0.000 A 
ATOM      7  S   UNL     1       1.625   8.760  17.689  0.00  0.00    +0.000 S 
ATOM      8  C   UNL     1       1.864   7.555  18.876  0.00  0.00    +0.000 A 
ATOM      9  N   UNL     1       2.387   6.341  18.451  0.00  0.00    +0.000 N 
ATOM     10  C   UNL     1       3.764   6.355  18.241  0.00  0.00    +0.000 C 
ATOM     11  O   UNL     1       4.465   7.361  18.382  0.00  0.00    +0.000 OA
ATOM     12  N   UNL     1       1.504   7.859  20.099  0.00  0.00    +0.000 NA
ATOM     13  C   UNL     1       1.221   9.221  20.167  0.00  0.00    +0.000 A 
ENDROOT
BRANCH   9  14
ATOM     14  C   UNL     1       1.512   5.187  18.229  0.00  0.00    +0.000 C 
BRANCH  14  15
ATOM     15  C   UNL     1       1.538   4.093  19.269  0.00  0.00    +0.000 A 
ATOM     16  C   UNL     1       1.651   2.734  18.963  0.00  0.00    +0.000 A 
ATOM     17  C   UNL     1       1.851   1.802  19.979  0.00  0.00    +0.000 A 
ATOM     18  C   UNL     1       1.927   2.253  21.283  0.00  0.00    +0.000 A 
ATOM     19  N   UNL     1       1.793   3.550  21.629  0.00  0.00    +0.000 NA
ATOM     20  C   UNL     1       1.604   4.432  20.621  0.00  0.00    +0.000 A 
ENDBRANCH  14  15
ENDBRANCH   9  14
BRANCH  10  21
ATOM     21  C   UNL     1       4.420   5.069  17.779  0.00  0.00    +0.000 C 
BRANCH  21  22
ATOM     22  C   UNL     1       4.503   5.047  16.256  0.00  0.00    +0.000 C 
BRANCH  22  23
ATOM     23  S   UNL     1       6.193   5.011  15.717  0.00  0.00    +0.000 S 
ATOM     24  O   UNL     1       6.617   3.623  15.661  0.00  0.00    +0.000 OA
ATOM     25  O   UNL     1       6.314   5.865  14.549  0.00  0.00    +0.000 OA
BRANCH  23  26
ATOM     26  C   UNL     1       7.076   5.780  17.054  0.00  0.00    +0.000 A 
ATOM     27  C   UNL     1       7.392   7.141  16.976  0.00  0.00    +0.000 A 
ATOM     28  C   UNL     1       8.063   7.754  18.034  0.00  0.00    +0.000 A 
ATOM     29  C   UNL     1       8.409   7.011  19.163  0.00  0.00    +0.000 A 
ATOM     30  C   UNL     1       8.079   5.656  19.242  0.00  0.00    +0.000 A 
ATOM     31  C   UNL     1       7.406   5.035  18.189  0.00  0.00    +0.000 A 
ENDBRANCH  23  26
ENDBRANCH  22  23
ENDBRANCH  21  22
ENDBRANCH  10  21
TORSDOF 6
ENDMDL
MODEL 7
REMARK VINA RESULT:      -7.1      2.715      8.065
REMARK  Name = 
REMARK  7 active torsions:
REMARK  status: ('A' for Active; 'I' for Inactive)
REMARK    1  A    between atoms: C_1  and  C_2
REMARK    2  A    between atoms: N_9  and  C_10
REMARK    3  A    between atoms: C_10  and  C_11
REMARK    4  A    between atoms: C_17  and  C_19
REMARK    5  A    between atoms: C_19  and  C_20
REMARK    6  A    between atoms: C_20  and  S_21
REMARK    7  A    between atoms: S_21  and  C_24
REMARK                            x       y       z     vdW  Elec       q    Type
REMARK                         _______ _______ _______ _____ _____    ______ ____
ROOT
ATOM      1  C   UNL     1       6.062   4.342  14.575  0.00  0.00    +0.000 C 
ATOM      2  C   UNL     1       6.447   4.556  16.012  0.00  0.00    +0.000 A 
ATOM      3  C   UNL     1       7.796   4.410  16.397  0.00  0.00    +0.000 A 
ATOM      4  C   UNL     1       8.197   4.595  17.716  0.00  0.00    +0.000 A 
ATOM      5  C   UNL     1       7.271   4.935  18.701  0.00  0.00    +0.000 A 
ATOM      6  C   UNL     1       5.933   5.122  18.318  0.00  0.00    +0.000 A 
ATOM      7  S   UNL     1       4.592   5.605  19.291  0.00  0.00    +0.000 S 
ATOM      8  C   UNL     1       3.620   5.664  17.887  0.00  0.00    +0.000 A 
ATOM      9  N   UNL     1       2.341   6.189  18.023  0.00  0.00    +0.000 N 
ATOM     10  C   UNL     1       2.297   7.581  18.068  0.00  0.00    +0.000 C 
ATOM     11  O   UNL     1       3.302   8.296  18.029  0.00  0.00    +0.000 OA
ATOM     12  N   UNL     1       4.147   5.180  16.790  0.00  0.00    +0.000 NA
ATOM     13  C   UNL     1       5.503   4.939  17.001  0.00  0.00    +0.000 A 
ENDROOT
BRANCH   9  14
ATOM     14  C   UNL     1       1.179   5.304  18.136  0.00  0.00    +0.000 C 
BRANCH  14  15
ATOM     15  C   UNL     1       1.288   4.142  19.093  0.00  0.00    +0.000 A 
ATOM     16  C   UNL     1       1.611   2.840  18.700  0.00  0.00    +0.000 A 
ATOM     17  C   UNL     1       1.871   1.863  19.659  0.00  0.00    +0.000 A 
ATOM     18  C   UNL     1       1.794   2.212  20.994  0.00  0.00    +0.000 A 
ATOM     19  N   UNL     1       1.456   3.447  21.420  0.00  0.00    +0.000 NA
ATOM     20  C   UNL     1       1.214   4.375  20.467  0.00  0.00    +0.000 A 
ENDBRANCH  14  15
ENDBRANCH   9  14
BRANCH  10  21
ATOM     21  C   UNL     1       0.939   8.238  18.212  0.00  0.00    +0.000 C 
BRANCH  21  22
ATOM     22  C   UNL     1       1.060   9.738  17.964  0.00  0.00    +0.000 C 
BRANCH  22  23
ATOM     23  S   UNL     1      -0.012  10.646  19.048  0.00  0.00    +0.000 S 
ATOM     24  O   UNL     1      -0.250   9.833  20.228  0.00  0.00    +0.000 OA
ATOM     25  O   UNL     1       0.511  11.994  19.178  0.00  0.00    +0.000 OA
BRANCH  23  26
ATOM     26  C   UNL     1      -1.542  10.734  18.149  0.00  0.00    +0.000 A 
ATOM     27  C   UNL     1      -1.708   9.955  16.999  0.00  0.00    +0.000 A 
ATOM     28  C   UNL     1      -2.917  10.002  16.304  0.00  0.00    +0.000 A 
ATOM     29  C   UNL     1      -3.953  10.817  16.762  0.00  0.00    +0.000 A 
ATOM     30  C   UNL     1      -3.787  11.581  17.919  0.00  0.00    +0.000 A 
ATOM     31  C   UNL     1      -2.582  11.539  18.621  0.00  0.00    +0.000 A 
ENDBRANCH  23  26
ENDBRANCH  22  23
ENDBRANCH  21  22
ENDBRANCH  10  21
TORSDOF 6
ENDMDL
MODEL 8
REMARK VINA RESULT:      -7.0      8.308     11.212
REMARK  Name = 
REMARK  7 active torsions:
REMARK  status: ('A' for Active; 'I' for Inactive)
REMARK    1  A    between atoms: C_1  and  C_2
REMARK    2  A    between atoms: N_9  and  C_10
REMARK    3  A    between atoms: C_10  and  C_11
REMARK    4  A    between atoms: C_17  and  C_19
REMARK    5  A    between atoms: C_19  and  C_20
REMARK    6  A    between atoms: C_20  and  S_21
REMARK    7  A    between atoms: S_21  and  C_24
REMARK                            x       y       z     vdW  Elec       q    Type
REMARK                         _______ _______ _______ _____ _____    ______ ____
ROOT
ATOM      1  C   UNL     1      -5.459  12.341  18.169  0.00  0.00    +0.000 C 
ATOM      2  C   UNL     1      -4.266  11.566  17.687  0.00  0.00    +0.000 A 
ATOM      3  C   UNL     1      -4.359  10.825  16.491  0.00  0.00    +0.000 A 
ATOM      4  C   UNL     1      -3.281  10.089  16.009  0.00  0.00    +0.000 A 
ATOM      5  C   UNL     1      -2.069  10.066  16.698  0.00  0.00    +0.000 A 
ATOM      6  C   UNL     1      -1.956  10.833  17.868  0.00  0.00    +0.000 A 
ATOM      7  S   UNL     1      -0.578  11.052  18.884  0.00  0.00    +0.000 S 
ATOM      8  C   UNL     1      -1.458  12.196  19.798  0.00  0.00    +0.000 A 
ATOM      9  N   UNL     1      -0.759  12.907  20.766  0.00  0.00    +0.000 N 
ATOM     10  C   UNL     1       0.008  13.954  20.262  0.00  0.00    +0.000 C 
ATOM     11  O   UNL     1       0.097  14.217  19.060  0.00  0.00    +0.000 OA
ATOM     12  N   UNL     1      -2.738  12.295  19.537  0.00  0.00    +0.000 NA
ATOM     13  C   UNL     1      -3.024  11.579  18.376  0.00  0.00    +0.000 A 
ENDROOT
BRANCH   9  14
ATOM     14  C   UNL     1      -0.838  12.521  22.177  0.00  0.00    +0.000 C 
BRANCH  14  15
ATOM     15  C   UNL     1      -2.090  12.906  22.928  0.00  0.00    +0.000 A 
ATOM     16  C   UNL     1      -2.629  14.195  22.930  0.00  0.00    +0.000 A 
ATOM     17  C   UNL     1      -3.881  14.430  23.494  0.00  0.00    +0.000 A 
ATOM     18  C   UNL     1      -4.565  13.365  24.051  0.00  0.00    +0.000 A 
ATOM     19  N   UNL     1      -4.071  12.111  24.099  0.00  0.00    +0.000 NA
ATOM     20  C   UNL     1      -2.856  11.912  23.540  0.00  0.00    +0.000 A 
ENDBRANCH  14  15
ENDBRANCH   9  14
BRANCH  10  21
ATOM     21  C   UNL     1       0.801  14.786  21.251  0.00  0.00    +0.000 C 
BRANCH  21  22
ATOM     22  C   UNL     1       0.134  16.144  21.439  0.00  0.00    +0.000 C 
BRANCH  22  23
ATOM     23  S   UNL     1       1.219  17.455  20.934  0.00  0.00    +0.000 S 
ATOM     24  O   UNL     1       0.905  18.629  21.730  0.00  0.00    +0.000 OA
ATOM     25  O   UNL     1       2.573  16.933  20.896  0.00  0.00    +0.000 OA
BRANCH  23  26
ATOM     26  C   UNL     1       0.714  17.798  19.265  0.00  0.00    +0.000 A 
ATOM     27  C   UNL     1      -0.608  18.176  19.011  0.00  0.00    +0.000 A 
ATOM     28  C   UNL     1      -1.003  18.470  17.706  0.00  0.00    +0.000 A 
ATOM     29  C   UNL     1      -0.077  18.392  16.665  0.00  0.00    +0.000 A 
ATOM     30  C   UNL     1       1.246  18.027  16.925  0.00  0.00    +0.000 A 
ATOM     31  C   UNL     1       1.649  17.733  18.228  0.00  0.00    +0.000 A 
ENDBRANCH  23  26
ENDBRANCH  22  23
ENDBRANCH  21  22
ENDBRANCH  10  21
TORSDOF 6
ENDMDL
MODEL 9
REMARK VINA RESULT:      -6.8      4.592      7.790
REMARK  Name = 
REMARK  7 active torsions:
REMARK  status: ('A' for Active; 'I' for Inactive)
REMARK    1  A    between atoms: C_1  and  C_2
REMARK    2  A    between atoms: N_9  and  C_10
REMARK    3  A    between atoms: C_10  and  C_11
REMARK    4  A    between atoms: C_17  and  C_19
REMARK    5  A    between atoms: C_19  and  C_20
REMARK    6  A    between atoms: C_20  and  S_21
REMARK    7  A    between atoms: S_21  and  C_24
REMARK                            x       y       z     vdW  Elec       q    Type
REMARK                         _______ _______ _______ _____ _____    ______ ____
ROOT
ATOM      1  C   UNL     1      -4.875  12.331  19.495  0.00  0.00    +0.000 C 
ATOM      2  C   UNL     1      -4.189  12.536  20.816  0.00  0.00    +0.000 A 
ATOM      3  C   UNL     1      -4.948  12.932  21.936  0.00  0.00    +0.000 A 
ATOM      4  C   UNL     1      -4.355  13.138  23.178  0.00  0.00    +0.000 A 
ATOM      5  C   UNL     1      -2.984  12.952  23.352  0.00  0.00    +0.000 A 
ATOM      6  C   UNL     1      -2.229  12.518  22.251  0.00  0.00    +0.000 A 
ATOM      7  S   UNL     1      -0.545  12.144  22.181  0.00  0.00    +0.000 S 
ATOM      8  C   UNL     1      -0.750  11.616  20.569  0.00  0.00    +0.000 A 
ATOM      9  N   UNL     1       0.335  10.996  19.963  0.00  0.00    +0.000 N 
ATOM     10  C   UNL     1       0.516   9.666  20.337  0.00  0.00    +0.000 C 
ATOM     11  O   UNL     1      -0.197   9.088  21.162  0.00  0.00    +0.000 OA
ATOM     12  N   UNL     1      -1.911  11.864  20.015  0.00  0.00    +0.000 NA
ATOM     13  C   UNL     1      -2.799  12.308  20.992  0.00  0.00    +0.000 A 
ENDROOT
BRANCH   9  14
ATOM     14  C   UNL     1       1.199  11.737  19.040  0.00  0.00    +0.000 C 
BRANCH  14  15
ATOM     15  C   UNL     1       1.562  13.152  19.422  0.00  0.00    +0.000 A 
ATOM     16  C   UNL     1       2.602  13.477  20.297  0.00  0.00    +0.000 A 
ATOM     17  C   UNL     1       2.993  14.804  20.458  0.00  0.00    +0.000 A 
ATOM     18  C   UNL     1       2.326  15.780  19.742  0.00  0.00    +0.000 A 
ATOM     19  N   UNL     1       1.296  15.517  18.911  0.00  0.00    +0.000 NA
ATOM     20  C   UNL     1       0.943  14.219  18.771  0.00  0.00    +0.000 A 
ENDBRANCH  14  15
ENDBRANCH   9  14
BRANCH  10  21
ATOM     21  C   UNL     1       1.676   8.912  19.719  0.00  0.00    +0.000 C 
BRANCH  21  22
ATOM     22  C   UNL     1       1.687   7.472  20.224  0.00  0.00    +0.000 C 
BRANCH  22  23
ATOM     23  S   UNL     1       2.600   6.424  19.121  0.00  0.00    +0.000 S 
ATOM     24  O   UNL     1       2.185   6.731  17.763  0.00  0.00    +0.000 OA
ATOM     25  O   UNL     1       4.001   6.486  19.494  0.00  0.00    +0.000 OA
BRANCH  23  26
ATOM     26  C   UNL     1       2.001   4.794  19.501  0.00  0.00    +0.000 A 
ATOM     27  C   UNL     1       2.008   4.352  20.828  0.00  0.00    +0.000 A 
ATOM     28  C   UNL     1       1.515   3.083  21.133  0.00  0.00    +0.000 A 
ATOM     29  C   UNL     1       1.015   2.267  20.118  0.00  0.00    +0.000 A 
ATOM     30  C   UNL     1       0.998   2.718  18.796  0.00  0.00    +0.000 A 
ATOM     31  C   UNL     1       1.487   3.987  18.482  0.00  0.00    +0.000 A 
ENDBRANCH  23  26
ENDBRANCH  22  23
ENDBRANCH  21  22
ENDBRANCH  10  21
TORSDOF 6
ENDMDL
