MODEL 1
REMARK VINA RESULT:      -8.7      0.000      0.000
REMARK  Name = 
REMARK  5 active torsions:
REMARK  status: ('A' for Active; 'I' for Inactive)
REMARK    1  A    between atoms: C_1  and  O_2
REMARK    2  A    between atoms: O_2  and  C_3
REMARK    3  A    between atoms: C_7  and  C_8
REMARK    4  A    between atoms: C_8  and  N_9
REMARK    5  A    between atoms: C_12  and  N_13
REMARK                            x       y       z     vdW  Elec       q    Type
REMARK                         _______ _______ _______ _____ _____    ______ ____
ROOT
ATOM      1  C   UNL     1       2.961   3.739  20.082  0.00  0.00    +0.000 A 
ATOM      2  C   UNL     1       3.607   3.595  18.872  0.00  0.00    +0.000 A 
ATOM      3  C   UNL     1       3.772   4.704  18.034  0.00  0.00    +0.000 A 
ATOM      4  C   UNL     1       3.250   5.980  18.342  0.00  0.00    +0.000 A 
ATOM      5  C   UNL     1       3.387   7.094  17.470  0.00  0.00    +0.000 A 
ATOM      6  C   UNL     1       2.776   8.318  17.826  0.00  0.00    +0.000 A 
ATOM      7  C   UNL     1       2.043   8.473  19.011  0.00  0.00    +0.000 A 
ATOM      8  C   UNL     1       1.420   9.708  19.306  0.00  0.00    +0.000 A 
ATOM      9  C   UNL     1       0.698   9.832  20.473  0.00  0.00    +0.000 A 
ATOM     10  C   UNL     1       0.563   8.783  21.336  0.00  0.00    +0.000 A 
ATOM     11  C   UNL     1       1.148   7.562  21.082  0.00  0.00    +0.000 A 
ATOM     12  C   UNL     1       1.916   7.369  19.903  0.00  0.00    +0.000 A 
ATOM     13  C   UNL     1       2.541   6.123  19.569  0.00  0.00    +0.000 A 
ATOM     14  C   UNL     1       2.456   4.990  20.426  0.00  0.00    +0.000 A 
ATOM     15  O   UNL     1      -0.190   9.083  22.426  0.00  0.00    +0.000 OA
ATOM     16  C   UNL     1      -0.485  10.470  22.169  0.00  0.00    +0.000 C 
ATOM     17  O   UNL     1       0.042  10.943  20.910  0.00  0.00    +0.000 OA
ENDROOT
BRANCH   1  19
ATOM     18  C   UNL     1       1.483   2.643  21.574  0.00  0.00    +0.000 C 
ATOM     19  O   UNL     1       2.793   2.771  21.025  0.00  0.00    +0.000 OA
ENDBRANCH   1  19
BRANCH   5  20
ATOM     20  C   UNL     1       4.085   7.016  16.111  0.00  0.00    +0.000 C 
BRANCH  20  21
ATOM     21  N   UNL     1       5.516   6.589  16.100  0.00  0.00    +0.000 NA
ATOM     22  C   UNL     1       5.636   5.184  15.677  0.00  0.00    +0.000 C 
ATOM     23  C   UNL     1       6.940   4.459  16.039  0.00  0.00    +0.000 C 
ATOM     24  C   UNL     1       7.319   4.673  17.499  0.00  0.00    +0.000 C 
ATOM     25  C   UNL     1       7.416   6.171  17.760  0.00  0.00    +0.000 C 
ATOM     26  C   UNL     1       6.085   6.854  17.440  0.00  0.00    +0.000 C 
BRANCH  24  27
ATOM     27  N   UNL     1       8.588   4.013  17.826  0.00  0.00    +0.000 NA
ATOM     28  H   UNL     1       9.365   4.644  17.630  0.00  0.00    +0.000 HD
ATOM     29  H   UNL     1       8.724   3.207  17.215  0.00  0.00    +0.000 HD
ENDBRANCH  24  27
ENDBRANCH  20  21
ENDBRANCH   5  20
TORSDOF 4
ENDMDL
MODEL 2
REMARK VINA RESULT:      -8.7      1.180      1.444
REMARK  Name = 
REMARK  5 active torsions:
REMARK  status: ('A' for Active; 'I' for Inactive)
REMARK    1  A    between atoms: C_1  and  O_2
REMARK    2  A    between atoms: O_2  and  C_3
REMARK    3  A    between atoms: C_7  and  C_8
REMARK    4  A    between atoms: C_8  and  N_9
REMARK    5  A    between atoms: C_12  and  N_13
REMARK                            x       y       z     vdW  Elec       q    Type
REMARK                         _______ _______ _______ _____ _____    ______ ____
ROOT
ATOM      1  C   UNL     1       2.402   4.474  20.627  0.00  0.00    +0.000 A 
ATOM      2  C   UNL     1       3.253   3.937  19.685  0.00  0.00    +0.000 A 
ATOM      3  C   UNL     1       3.743   4.741  18.649  0.00  0.00    +0.000 A 
ATOM      4  C   UNL     1       3.356   6.090  18.479  0.00  0.00    +0.000 A 
ATOM      5  C   UNL     1       3.826   6.891  17.404  0.00  0.00    +0.000 A 
ATOM      6  C   UNL     1       3.336   8.210  17.272  0.00  0.00    +0.000 A 
ATOM      7  C   UNL     1       2.407   8.758  18.168  0.00  0.00    +0.000 A 
ATOM      8  C   UNL     1       1.919  10.071  17.973  0.00  0.00    +0.000 A 
ATOM      9  C   UNL     1       1.001  10.583  18.862  0.00  0.00    +0.000 A 
ATOM     10  C   UNL     1       0.544   9.841  19.913  0.00  0.00    +0.000 A 
ATOM     11  C   UNL     1       0.988   8.555  20.133  0.00  0.00    +0.000 A 
ATOM     12  C   UNL     1       1.944   7.970  19.262  0.00  0.00    +0.000 A 
ATOM     13  C   UNL     1       2.440   6.635  19.423  0.00  0.00    +0.000 A 
ATOM     14  C   UNL     1       2.021   5.807  20.502  0.00  0.00    +0.000 A 
ATOM     15  O   UNL     1      -0.365  10.501  20.677  0.00  0.00    +0.000 OA
ATOM     16  C   UNL     1      -0.401  11.774  20.004  0.00  0.00    +0.000 C 
ATOM     17  O   UNL     1       0.435  11.821  18.826  0.00  0.00    +0.000 OA
ENDROOT
BRANCH   1  19
ATOM     18  C   UNL     1       1.765   2.419  21.619  0.00  0.00    +0.000 C 
ATOM     19  O   UNL     1       1.909   3.834  21.724  0.00  0.00    +0.000 OA
ENDBRANCH   1  19
BRANCH   5  20
ATOM     20  C   UNL     1       4.768   6.369  16.316  0.00  0.00    +0.000 C 
BRANCH  20  21
ATOM     21  N   UNL     1       6.193   6.140  16.698  0.00  0.00    +0.000 NA
ATOM     22  C   UNL     1       6.392   4.753  17.152  0.00  0.00    +0.000 C 
ATOM     23  C   UNL     1       7.646   4.473  17.993  0.00  0.00    +0.000 C 
ATOM     24  C   UNL     1       7.816   5.493  19.112  0.00  0.00    +0.000 C 
ATOM     25  C   UNL     1       7.852   6.886  18.496  0.00  0.00    +0.000 C 
ATOM     26  C   UNL     1       6.567   7.153  17.709  0.00  0.00    +0.000 C 
BRANCH  24  27
ATOM     27  N   UNL     1       9.037   5.243  19.885  0.00  0.00    +0.000 NA
ATOM     28  H   UNL     1       9.854   5.347  19.282  0.00  0.00    +0.000 HD
ATOM     29  H   UNL     1       9.050   4.275  20.204  0.00  0.00    +0.000 HD
ENDBRANCH  24  27
ENDBRANCH  20  21
ENDBRANCH   5  20
TORSDOF 4
ENDMDL
MODEL 3
REMARK VINA RESULT:      -8.7      3.372      7.033
REMARK  Name = 
REMARK  5 active torsions:
REMARK  status: ('A' for Active; 'I' for Inactive)
REMARK    1  A    between atoms: C_1  and  O_2
REMARK    2  A    between atoms: O_2  and  C_3
REMARK    3  A    between atoms: C_7  and  C_8
REMARK    4  A    between atoms: C_8  and  N_9
REMARK    5  A    between atoms: C_12  and  N_13
REMARK                            x       y       z     vdW  Elec       q    Type
REMARK                         _______ _______ _______ _____ _____    ______ ____
ROOT
ATOM      1  C   UNL     1       1.642   3.826  20.208  0.00  0.00    +0.000 A 
ATOM      2  C   UNL     1       1.125   4.957  20.804  0.00  0.00    +0.000 A 
ATOM      3  C   UNL     1       1.409   6.219  20.268  0.00  0.00    +0.000 A 
ATOM      4  C   UNL     1       2.263   6.404  19.158  0.00  0.00    +0.000 A 
ATOM      5  C   UNL     1       2.579   7.689  18.640  0.00  0.00    +0.000 A 
ATOM      6  C   UNL     1       3.494   7.787  17.569  0.00  0.00    +0.000 A 
ATOM      7  C   UNL     1       4.100   6.660  16.994  0.00  0.00    +0.000 A 
ATOM      8  C   UNL     1       5.038   6.812  15.947  0.00  0.00    +0.000 A 
ATOM      9  C   UNL     1       5.624   5.690  15.406  0.00  0.00    +0.000 A 
ATOM     10  C   UNL     1       5.328   4.441  15.873  0.00  0.00    +0.000 A 
ATOM     11  C   UNL     1       4.425   4.251  16.896  0.00  0.00    +0.000 A 
ATOM     12  C   UNL     1       3.775   5.364  17.492  0.00  0.00    +0.000 A 
ATOM     13  C   UNL     1       2.837   5.242  18.568  0.00  0.00    +0.000 A 
ATOM     14  C   UNL     1       2.468   3.973  19.097  0.00  0.00    +0.000 A 
ATOM     15  O   UNL     1       6.008   3.457  15.230  0.00  0.00    +0.000 OA
ATOM     16  C   UNL     1       6.746   4.231  14.265  0.00  0.00    +0.000 C 
ATOM     17  O   UNL     1       6.538   5.655  14.396  0.00  0.00    +0.000 OA
ENDROOT
BRANCH   1  19
ATOM     18  C   UNL     1       1.892   2.134  21.847  0.00  0.00    +0.000 C 
ATOM     19  O   UNL     1       1.392   2.539  20.574  0.00  0.00    +0.000 OA
ENDBRANCH   1  19
BRANCH   5  20
ATOM     20  C   UNL     1       2.050   8.992  19.247  0.00  0.00    +0.000 C 
BRANCH  20  21
ATOM     21  N   UNL     1       1.249   9.884  18.359  0.00  0.00    +0.000 NA
ATOM     22  C   UNL     1       1.107  11.222  18.958  0.00  0.00    +0.000 C 
ATOM     23  C   UNL     1      -0.033  12.103  18.428  0.00  0.00    +0.000 C 
ATOM     24  C   UNL     1      -1.351  11.341  18.361  0.00  0.00    +0.000 C 
ATOM     25  C   UNL     1      -1.151  10.101  17.500  0.00  0.00    +0.000 C 
ATOM     26  C   UNL     1      -0.045   9.220  18.084  0.00  0.00    +0.000 C 
BRANCH  24  27
ATOM     27  N   UNL     1      -2.426  12.176  17.815  0.00  0.00    +0.000 NA
ATOM     28  H   UNL     1      -3.042  12.482  18.570  0.00  0.00    +0.000 HD
ATOM     29  H   UNL     1      -3.009  11.622  17.189  0.00  0.00    +0.000 HD
ENDBRANCH  24  27
ENDBRANCH  20  21
ENDBRANCH   5  20
TORSDOF 4
ENDMDL
MODEL 4
REMARK VINA RESULT:      -8.2      3.241      6.693
REMARK  Name = 
REMARK  5 active torsions:
REMARK  status: ('A' for Active; 'I' for Inactive)
REMARK    1  A    between atoms: C_1  and  O_2
REMARK    2  A    between atoms: O_2  and  C_3
REMARK    3  A    between atoms: C_7  and  C_8
REMARK    4  A    between atoms: C_8  and  N_9
REMARK    5  A    between atoms: C_12  and  N_13
REMARK                            x       y       z     vdW  Elec       q    Type
REMARK                         _______ _______ _______ _____ _____    ______ ____
ROOT
ATOM      1  C   UNL     1       5.681   5.440  15.922  0.00  0.00    +0.000 A 
ATOM      2  C   UNL     1       5.313   6.702  15.503  0.00  0.00    +0.000 A 
ATOM      3  C   UNL     1       4.396   7.446  16.255  0.00  0.00    +0.000 A 
ATOM      4  C   UNL     1       3.769   6.940  17.416  0.00  0.00    +0.000 A 
ATOM      5  C   UNL     1       2.809   7.684  18.154  0.00  0.00    +0.000 A 
ATOM      6  C   UNL     1       2.181   7.076  19.264  0.00  0.00    +0.000 A 
ATOM      7  C   UNL     1       2.474   5.765  19.666  0.00  0.00    +0.000 A 
ATOM      8  C   UNL     1       1.792   5.188  20.762  0.00  0.00    +0.000 A 
ATOM      9  C   UNL     1       2.092   3.895  21.131  0.00  0.00    +0.000 A 
ATOM     10  C   UNL     1       3.021   3.162  20.450  0.00  0.00    +0.000 A 
ATOM     11  C   UNL     1       3.701   3.685  19.372  0.00  0.00    +0.000 A 
ATOM     12  C   UNL     1       3.449   5.016  18.945  0.00  0.00    +0.000 A 
ATOM     13  C   UNL     1       4.109   5.619  17.825  0.00  0.00    +0.000 A 
ATOM     14  C   UNL     1       5.098   4.922  17.076  0.00  0.00    +0.000 A 
ATOM     15  O   UNL     1       3.178   1.907  20.946  0.00  0.00    +0.000 OA
ATOM     16  C   UNL     1       2.261   1.945  22.057  0.00  0.00    +0.000 C 
ATOM     17  O   UNL     1       1.538   3.192  22.158  0.00  0.00    +0.000 OA
ENDROOT
BRANCH   1  19
ATOM     18  C   UNL     1       6.225   4.012  14.112  0.00  0.00    +0.000 C 
ATOM     19  O   UNL     1       6.610   4.637  15.335  0.00  0.00    +0.000 OA
ENDBRANCH   1  19
BRANCH   5  20
ATOM     20  C   UNL     1       2.345   9.087  17.753  0.00  0.00    +0.000 C 
BRANCH  20  21
ATOM     21  N   UNL     1       1.258   9.706  18.567  0.00  0.00    +0.000 NA
ATOM     22  C   UNL     1      -0.036   9.601  17.871  0.00  0.00    +0.000 C 
ATOM     23  C   UNL     1      -1.148  10.557  18.325  0.00  0.00    +0.000 C 
ATOM     24  C   UNL     1      -0.649  11.993  18.433  0.00  0.00    +0.000 C 
ATOM     25  C   UNL     1       0.540  12.021  19.384  0.00  0.00    +0.000 C 
ATOM     26  C   UNL     1       1.650  11.099  18.876  0.00  0.00    +0.000 C 
BRANCH  24  27
ATOM     27  N   UNL     1      -1.706  12.893  18.907  0.00  0.00    +0.000 NA
ATOM     28  H   UNL     1      -1.564  13.100  19.896  0.00  0.00    +0.000 HD
ATOM     29  H   UNL     1      -2.609  12.424  18.849  0.00  0.00    +0.000 HD
ENDBRANCH  24  27
ENDBRANCH  20  21
ENDBRANCH   5  20
TORSDOF 4
ENDMDL
MODEL 5
REMARK VINA RESULT:      -8.0      1.949      2.779
REMARK  Name = 
REMARK  5 active torsions:
REMARK  status: ('A' for Active; 'I' for Inactive)
REMARK    1  A    between atoms: C_1  and  O_2
REMARK    2  A    between atoms: O_2  and  C_3
REMARK    3  A    between atoms: C_7  and  C_8
REMARK    4  A    between atoms: C_8  and  N_9
REMARK    5  A    between atoms: C_12  and  N_13
REMARK                            x       y       z     vdW  Elec       q    Type
REMARK                         _______ _______ _______ _____ _____    ______ ____
ROOT
ATOM      1  C   UNL     1       3.229   3.166  20.896  0.00  0.00    +0.000 A 
ATOM      2  C   UNL     1       4.209   2.576  20.125  0.00  0.00    +0.000 A 
ATOM      3  C   UNL     1       4.821   3.305  19.098  0.00  0.00    +0.000 A 
ATOM      4  C   UNL     1       4.440   4.624  18.764  0.00  0.00    +0.000 A 
ATOM      5  C   UNL     1       5.038   5.346  17.696  0.00  0.00    +0.000 A 
ATOM      6  C   UNL     1       4.550   6.636  17.388  0.00  0.00    +0.000 A 
ATOM      7  C   UNL     1       3.499   7.231  18.101  0.00  0.00    +0.000 A 
ATOM      8  C   UNL     1       3.022   8.510  17.731  0.00  0.00    +0.000 A 
ATOM      9  C   UNL     1       1.983   9.068  18.443  0.00  0.00    +0.000 A 
ATOM     10  C   UNL     1       1.400   8.403  19.483  0.00  0.00    +0.000 A 
ATOM     11  C   UNL     1       1.831   7.153  19.870  0.00  0.00    +0.000 A 
ATOM     12  C   UNL     1       2.905   6.524  19.187  0.00  0.00    +0.000 A 
ATOM     13  C   UNL     1       3.396   5.221  19.527  0.00  0.00    +0.000 A 
ATOM     14  C   UNL     1       2.848   4.474  20.607  0.00  0.00    +0.000 A 
ATOM     15  O   UNL     1       0.387   9.099  20.060  0.00  0.00    +0.000 OA
ATOM     16  C   UNL     1       0.422  10.311  19.281  0.00  0.00    +0.000 C 
ATOM     17  O   UNL     1       1.408  10.283  18.226  0.00  0.00    +0.000 OA
ENDROOT
BRANCH   1  19
ATOM     18  C   UNL     1       1.177   2.629  21.950  0.00  0.00    +0.000 C 
ATOM     19  O   UNL     1       2.604   2.607  21.967  0.00  0.00    +0.000 OA
ENDBRANCH   1  19
BRANCH   5  20
ATOM     20  C   UNL     1       6.127   4.762  16.793  0.00  0.00    +0.000 C 
BRANCH  20  21
ATOM     21  N   UNL     1       6.002   5.006  15.325  0.00  0.00    +0.000 NA
ATOM     22  C   UNL     1       5.144   3.985  14.700  0.00  0.00    +0.000 C 
ATOM     23  C   UNL     1       5.270   3.808  13.180  0.00  0.00    +0.000 C 
ATOM     24  C   UNL     1       6.727   3.707  12.743  0.00  0.00    +0.000 C 
ATOM     25  C   UNL     1       7.466   4.946  13.229  0.00  0.00    +0.000 C 
ATOM     26  C   UNL     1       7.364   5.065  14.750  0.00  0.00    +0.000 C 
BRANCH  24  27
ATOM     27  N   UNL     1       6.841   3.579  11.286  0.00  0.00    +0.000 NA
ATOM     28  H   UNL     1       7.534   4.241  10.936  0.00  0.00    +0.000 HD
ATOM     29  H   UNL     1       5.959   3.843  10.847  0.00  0.00    +0.000 HD
ENDBRANCH  24  27
ENDBRANCH  20  21
ENDBRANCH   5  20
TORSDOF 4
ENDMDL
MODEL 6
REMARK VINA RESULT:      -7.9      3.301      7.025
REMARK  Name = 
REMARK  5 active torsions:
REMARK  status: ('A' for Active; 'I' for Inactive)
REMARK    1  A    between atoms: C_1  and  O_2
REMARK    2  A    between atoms: O_2  and  C_3
REMARK    3  A    between atoms: C_7  and  C_8
REMARK    4  A    between atoms: C_8  and  N_9
REMARK    5  A    between atoms: C_12  and  N_13
REMARK                            x       y       z     vdW  Elec       q    Type
REMARK                         _______ _______ _______ _____ _____    ______ ____
ROOT
ATOM      1  C   UNL     1       1.931   3.815  20.253  0.00  0.00    +0.000 A 
ATOM      2  C   UNL     1       1.416   4.956  20.832  0.00  0.00    +0.000 A 
ATOM      3  C   UNL     1       1.655   6.204  20.244  0.00  0.00    +0.000 A 
ATOM      4  C   UNL     1       2.462   6.367  19.096  0.00  0.00    +0.000 A 
ATOM      5  C   UNL     1       2.733   7.640  18.525  0.00  0.00    +0.000 A 
ATOM      6  C   UNL     1       3.605   7.718  17.416  0.00  0.00    +0.000 A 
ATOM      7  C   UNL     1       4.209   6.584  16.855  0.00  0.00    +0.000 A 
ATOM      8  C   UNL     1       5.103   6.718  15.767  0.00  0.00    +0.000 A 
ATOM      9  C   UNL     1       5.689   5.588  15.240  0.00  0.00    +0.000 A 
ATOM     10  C   UNL     1       5.435   4.351  15.758  0.00  0.00    +0.000 A 
ATOM     11  C   UNL     1       4.576   4.179  16.823  0.00  0.00    +0.000 A 
ATOM     12  C   UNL     1       3.929   5.300  17.406  0.00  0.00    +0.000 A 
ATOM     13  C   UNL     1       3.035   5.196  18.522  0.00  0.00    +0.000 A 
ATOM     14  C   UNL     1       2.711   3.940  19.106  0.00  0.00    +0.000 A 
ATOM     15  O   UNL     1       6.107   3.358  15.122  0.00  0.00    +0.000 OA
ATOM     16  C   UNL     1       6.793   4.113  14.104  0.00  0.00    +0.000 C 
ATOM     17  O   UNL     1       6.564   5.536  14.197  0.00  0.00    +0.000 OA
ENDROOT
BRANCH   1  19
ATOM     18  C   UNL     1       1.369   2.368  22.042  0.00  0.00    +0.000 C 
ATOM     19  O   UNL     1       1.720   2.536  20.670  0.00  0.00    +0.000 OA
ENDBRANCH   1  19
BRANCH   5  20
ATOM     20  C   UNL     1       2.204   8.952  19.109  0.00  0.00    +0.000 C 
BRANCH  20  21
ATOM     21  N   UNL     1       1.084   8.861  20.092  0.00  0.00    +0.000 NA
ATOM     22  C   UNL     1       0.043   9.857  19.786  0.00  0.00    +0.000 C 
ATOM     23  C   UNL     1      -0.931  10.212  20.919  0.00  0.00    +0.000 C 
ATOM     24  C   UNL     1      -0.198  10.502  22.223  0.00  0.00    +0.000 C 
ATOM     25  C   UNL     1       0.659   9.294  22.577  0.00  0.00    +0.000 C 
ATOM     26  C   UNL     1       1.652   8.999  21.451  0.00  0.00    +0.000 C 
BRANCH  24  27
ATOM     27  N   UNL     1      -1.137  10.801  23.310  0.00  0.00    +0.000 NA
ATOM     28  H   UNL     1      -1.464   9.930  23.731  0.00  0.00    +0.000 HD
ATOM     29  H   UNL     1      -1.968  11.256  22.933  0.00  0.00    +0.000 HD
ENDBRANCH  24  27
ENDBRANCH  20  21
ENDBRANCH   5  20
TORSDOF 4
ENDMDL
MODEL 7
REMARK VINA RESULT:      -7.7      3.152      5.698
REMARK  Name = 
REMARK  5 active torsions:
REMARK  status: ('A' for Active; 'I' for Inactive)
REMARK    1  A    between atoms: C_1  and  O_2
REMARK    2  A    between atoms: O_2  and  C_3
REMARK    3  A    between atoms: C_7  and  C_8
REMARK    4  A    between atoms: C_8  and  N_9
REMARK    5  A    between atoms: C_12  and  N_13
REMARK                            x       y       z     vdW  Elec       q    Type
REMARK                         _______ _______ _______ _____ _____    ______ ____
ROOT
ATOM      1  C   UNL     1      -0.618  10.328  22.238  0.00  0.00    +0.000 A 
ATOM      2  C   UNL     1      -0.482   9.065  21.702  0.00  0.00    +0.000 A 
ATOM      3  C   UNL     1       0.309   8.872  20.563  0.00  0.00    +0.000 A 
ATOM      4  C   UNL     1       0.946   9.936  19.885  0.00  0.00    +0.000 A 
ATOM      5  C   UNL     1       1.717   9.740  18.707  0.00  0.00    +0.000 A 
ATOM      6  C   UNL     1       2.262  10.868  18.055  0.00  0.00    +0.000 A 
ATOM      7  C   UNL     1       2.074  12.174  18.530  0.00  0.00    +0.000 A 
ATOM      8  C   UNL     1       2.610  13.274  17.821  0.00  0.00    +0.000 A 
ATOM      9  C   UNL     1       2.404  14.547  18.305  0.00  0.00    +0.000 A 
ATOM     10  C   UNL     1       1.680  14.763  19.442  0.00  0.00    +0.000 A 
ATOM     11  C   UNL     1       1.135  13.719  20.157  0.00  0.00    +0.000 A 
ATOM     12  C   UNL     1       1.319  12.381  19.721  0.00  0.00    +0.000 A 
ATOM     13  C   UNL     1       0.770  11.249  20.408  0.00  0.00    +0.000 A 
ATOM     14  C   UNL     1       0.017  11.394  21.607  0.00  0.00    +0.000 A 
ATOM     15  O   UNL     1       1.569  16.078  19.762  0.00  0.00    +0.000 OA
ATOM     16  C   UNL     1       2.349  16.674  18.706  0.00  0.00    +0.000 C 
ATOM     17  O   UNL     1       2.850  15.710  17.753  0.00  0.00    +0.000 OA
ENDROOT
BRANCH   1  19
ATOM     18  C   UNL     1      -2.183  11.760  23.291  0.00  0.00    +0.000 C 
ATOM     19  O   UNL     1      -1.291  10.651  23.376  0.00  0.00    +0.000 OA
ENDBRANCH   1  19
BRANCH   5  20
ATOM     20  C   UNL     1       1.911   8.372  18.048  0.00  0.00    +0.000 C 
BRANCH  20  21
ATOM     21  N   UNL     1       3.086   7.562  18.487  0.00  0.00    +0.000 NA
ATOM     22  C   UNL     1       3.919   7.188  17.332  0.00  0.00    +0.000 C 
ATOM     23  C   UNL     1       4.881   6.007  17.524  0.00  0.00    +0.000 C 
ATOM     24  C   UNL     1       4.187   4.812  18.166  0.00  0.00    +0.000 C 
ATOM     25  C   UNL     1       3.575   5.259  19.486  0.00  0.00    +0.000 C 
ATOM     26  C   UNL     1       2.583   6.401  19.254  0.00  0.00    +0.000 C 
BRANCH  24  27
ATOM     27  N   UNL     1       5.123   3.703  18.384  0.00  0.00    +0.000 NA
ATOM     28  H   UNL     1       5.463   3.724  19.346  0.00  0.00    +0.000 HD
ATOM     29  H   UNL     1       5.946   3.826  17.795  0.00  0.00    +0.000 HD
ENDBRANCH  24  27
ENDBRANCH  20  21
ENDBRANCH   5  20
TORSDOF 4
ENDMDL
MODEL 8
REMARK VINA RESULT:      -7.6      3.901      6.992
REMARK  Name = 
REMARK  5 active torsions:
REMARK  status: ('A' for Active; 'I' for Inactive)
REMARK    1  A    between atoms: C_1  and  O_2
REMARK    2  A    between atoms: O_2  and  C_3
REMARK    3  A    between atoms: C_7  and  C_8
REMARK    4  A    between atoms: C_8  and  N_9
REMARK    5  A    between atoms: C_12  and  N_13
REMARK                            x       y       z     vdW  Elec       q    Type
REMARK                         _______ _______ _______ _____ _____    ______ ____
ROOT
ATOM      1  C   UNL     1      -3.383  11.113  17.201  0.00  0.00    +0.000 A 
ATOM      2  C   UNL     1      -2.296  10.421  16.712  0.00  0.00    +0.000 A 
ATOM      3  C   UNL     1      -1.154  10.265  17.507  0.00  0.00    +0.000 A 
ATOM      4  C   UNL     1      -1.031  10.841  18.791  0.00  0.00    +0.000 A 
ATOM      5  C   UNL     1       0.145  10.712  19.579  0.00  0.00    +0.000 A 
ATOM      6  C   UNL     1       0.207  11.377  20.824  0.00  0.00    +0.000 A 
ATOM      7  C   UNL     1      -0.851  12.156  21.313  0.00  0.00    +0.000 A 
ATOM      8  C   UNL     1      -0.726  12.832  22.549  0.00  0.00    +0.000 A 
ATOM      9  C   UNL     1      -1.778  13.597  23.002  0.00  0.00    +0.000 A 
ATOM     10  C   UNL     1      -2.926  13.726  22.274  0.00  0.00    +0.000 A 
ATOM     11  C   UNL     1      -3.083  13.090  21.061  0.00  0.00    +0.000 A 
ATOM     12  C   UNL     1      -2.043  12.276  20.541  0.00  0.00    +0.000 A 
ATOM     13  C   UNL     1      -2.134  11.597  19.281  0.00  0.00    +0.000 A 
ATOM     14  C   UNL     1      -3.303  11.673  18.474  0.00  0.00    +0.000 A 
ATOM     15  O   UNL     1      -3.847  14.526  22.868  0.00  0.00    +0.000 OA
ATOM     16  C   UNL     1      -3.159  14.860  24.090  0.00  0.00    +0.000 C 
ATOM     17  O   UNL     1      -1.828  14.306  24.165  0.00  0.00    +0.000 OA
ENDROOT
BRANCH   1  19
ATOM     18  C   UNL     1      -5.608  11.915  17.329  0.00  0.00    +0.000 C 
ATOM     19  O   UNL     1      -4.579  11.280  16.573  0.00  0.00    +0.000 OA
ENDBRANCH   1  19
BRANCH   5  20
ATOM     20  C   UNL     1       1.394   9.965  19.107  0.00  0.00    +0.000 C 
BRANCH  20  21
ATOM     21  N   UNL     1       1.330   8.474  19.080  0.00  0.00    +0.000 NA
ATOM     22  C   UNL     1       1.577   7.920  20.422  0.00  0.00    +0.000 C 
ATOM     23  C   UNL     1       1.995   6.444  20.498  0.00  0.00    +0.000 C 
ATOM     24  C   UNL     1       3.110   6.122  19.510  0.00  0.00    +0.000 C 
ATOM     25  C   UNL     1       2.643   6.504  18.112  0.00  0.00    +0.000 C 
ATOM     26  C   UNL     1       2.284   7.990  18.057  0.00  0.00    +0.000 C 
BRANCH  24  27
ATOM     27  N   UNL     1       3.476   4.702  19.559  0.00  0.00    +0.000 NA
ATOM     28  H   UNL     1       4.097   4.534  20.351  0.00  0.00    +0.000 HD
ATOM     29  H   UNL     1       4.013   4.456  18.728  0.00  0.00    +0.000 HD
ENDBRANCH  24  27
ENDBRANCH  20  21
ENDBRANCH   5  20
TORSDOF 4
ENDMDL
MODEL 9
REMARK VINA RESULT:      -7.5      3.196      5.563
REMARK  Name = 
REMARK  5 active torsions:
REMARK  status: ('A' for Active; 'I' for Inactive)
REMARK    1  A    between atoms: C_1  and  O_2
REMARK    2  A    between atoms: O_2  and  C_3
REMARK    3  A    between atoms: C_7  and  C_8
REMARK    4  A    between atoms: C_8  and  N_9
REMARK    5  A    between atoms: C_12  and  N_13
REMARK                            x       y       z     vdW  Elec       q    Type
REMARK                         _______ _______ _______ _____ _____    ______ ____
ROOT
ATOM      1  C   UNL     1      -0.041  10.203  22.457  0.00  0.00    +0.000 A 
ATOM      2  C   UNL     1       1.126   9.474  22.354  0.00  0.00    +0.000 A 
ATOM      3  C   UNL     1       1.579   9.059  21.096  0.00  0.00    +0.000 A 
ATOM      4  C   UNL     1       0.859   9.303  19.904  0.00  0.00    +0.000 A 
ATOM      5  C   UNL     1       1.304   8.847  18.634  0.00  0.00    +0.000 A 
ATOM      6  C   UNL     1       0.489   9.077  17.503  0.00  0.00    +0.000 A 
ATOM      7  C   UNL     1      -0.742   9.744  17.589  0.00  0.00    +0.000 A 
ATOM      8  C   UNL     1      -1.539   9.918  16.433  0.00  0.00    +0.000 A 
ATOM      9  C   UNL     1      -2.747  10.569  16.546  0.00  0.00    +0.000 A 
ATOM     10  C   UNL     1      -3.192  11.032  17.751  0.00  0.00    +0.000 A 
ATOM     11  C   UNL     1      -2.449  10.875  18.901  0.00  0.00    +0.000 A 
ATOM     12  C   UNL     1      -1.189  10.224  18.854  0.00  0.00    +0.000 A 
ATOM     13  C   UNL     1      -0.370  10.015  20.012  0.00  0.00    +0.000 A 
ATOM     14  C   UNL     1      -0.761  10.481  21.298  0.00  0.00    +0.000 A 
ATOM     15  O   UNL     1      -4.406  11.635  17.675  0.00  0.00    +0.000 OA
ATOM     16  C   UNL     1      -4.663  11.536  16.261  0.00  0.00    +0.000 C 
ATOM     17  O   UNL     1      -3.631  10.825  15.542  0.00  0.00    +0.000 OA
ENDROOT
BRANCH   1  19
ATOM     18  C   UNL     1      -1.713  11.557  23.447  0.00  0.00    +0.000 C 
ATOM     19  O   UNL     1      -0.560  10.732  23.599  0.00  0.00    +0.000 OA
ENDBRANCH   1  19
BRANCH   5  20
ATOM     20  C   UNL     1       2.583   8.030  18.436  0.00  0.00    +0.000 C 
BRANCH  20  21
ATOM     21  N   UNL     1       2.446   6.544  18.393  0.00  0.00    +0.000 NA
ATOM     22  C   UNL     1       2.480   5.980  19.753  0.00  0.00    +0.000 C 
ATOM     23  C   UNL     1       2.807   4.485  19.875  0.00  0.00    +0.000 C 
ATOM     24  C   UNL     1       4.027   4.103  19.045  0.00  0.00    +0.000 C 
ATOM     25  C   UNL     1       3.772   4.507  17.599  0.00  0.00    +0.000 C 
ATOM     26  C   UNL     1       3.502   6.009  17.505  0.00  0.00    +0.000 C 
BRANCH  24  27
ATOM     27  N   UNL     1       4.308   2.666  19.134  0.00  0.00    +0.000 NA
ATOM     28  H   UNL     1       4.098   2.332  20.076  0.00  0.00    +0.000 HD
ATOM     29  H   UNL     1       5.304   2.501  18.997  0.00  0.00    +0.000 HD
ENDBRANCH  24  27
ENDBRANCH  20  21
ENDBRANCH   5  20
TORSDOF 4
ENDMDL
