MODEL 1
REMARK VINA RESULT:      -6.4      0.000      0.000
REMARK  Name = 
REMARK  5 active torsions:
REMARK  status: ('A' for Active; 'I' for Inactive)
REMARK    1  A    between atoms: C_1  and  C_2
REMARK    2  A    between atoms: C_2  and  C_3
REMARK    3  A    between atoms: C_2  and  C_4
REMARK    4  A    between atoms: C_14  and  C_15
REMARK    5  A    between atoms: C_16  and  C_17
REMARK                            x       y       z     vdW  Elec       q    Type
REMARK                         _______ _______ _______ _____ _____    ______ ____
ROOT
ATOM      1  C   UNL     1       5.195   5.203  16.077  0.00  0.00    +0.000 C 
ATOM      2  C   UNL     1       4.909   6.639  16.528  0.00  0.00    +0.000 C 
ATOM      3  C   UNL     1       3.550   6.794  17.204  0.00  0.00    +0.000 C 
ATOM      4  C   UNL     1       3.371   5.809  18.380  0.00  0.00    +0.000 C 
ATOM      5  C   UNL     1       2.042   6.028  19.122  0.00  0.00    +0.000 C 
ATOM      6 BR   UNL     1       2.015   7.830  19.925  0.00  0.00    +0.000 Br
ATOM      7  C   UNL     1       1.820   5.027  20.255  0.00  0.00    +0.000 C 
ATOM      8  O   UNL     1       1.236   5.347  21.293  0.00  0.00    +0.000 OA
ATOM      9  C   UNL     1       2.156   3.569  19.941  0.00  0.00    +0.000 C 
ATOM     10 BR   UNL     1       2.238   2.606  21.660  0.00  0.00    +0.000 Br
ATOM     11  C   UNL     1       3.479   3.389  19.170  0.00  0.00    +0.000 C 
ATOM     12  C   UNL     1       3.716   1.903  18.821  0.00  0.00    +0.000 C 
ATOM     13  C   UNL     1       3.544   4.327  17.901  0.00  0.00    +0.000 C 
ATOM     14  C   UNL     1       2.453   3.923  16.875  0.00  0.00    +0.000 C 
ATOM     15  C   UNL     1       4.946   4.205  17.227  0.00  0.00    +0.000 C 
ENDROOT
BRANCH   1  17
ATOM     16  C   UNL     1       6.644   4.142  14.198  0.00  0.00    +0.000 C 
ATOM     17  C   UNL     1       6.613   5.015  15.458  0.00  0.00    +0.000 C 
ATOM     18  C   UNL     1       7.603   4.459  16.488  0.00  0.00    +0.000 C 
ENDBRANCH   1  17
TORSDOF 1
ENDMDL
MODEL 2
REMARK VINA RESULT:      -6.3      7.261      9.537
REMARK  Name = 
REMARK  5 active torsions:
REMARK  status: ('A' for Active; 'I' for Inactive)
REMARK    1  A    between atoms: C_1  and  C_2
REMARK    2  A    between atoms: C_2  and  C_3
REMARK    3  A    between atoms: C_2  and  C_4
REMARK    4  A    between atoms: C_14  and  C_15
REMARK    5  A    between atoms: C_16  and  C_17
REMARK                            x       y       z     vdW  Elec       q    Type
REMARK                         _______ _______ _______ _____ _____    ______ ____
ROOT
ATOM      1  C   UNL     1      -2.087  11.262  17.090  0.00  0.00    +0.000 C 
ATOM      2  C   UNL     1      -1.288   9.986  17.369  0.00  0.00    +0.000 C 
ATOM      3  C   UNL     1      -0.318  10.131  18.538  0.00  0.00    +0.000 C 
ATOM      4  C   UNL     1      -1.025  10.622  19.821  0.00  0.00    +0.000 C 
ATOM      5  C   UNL     1      -0.068  10.678  21.024  0.00  0.00    +0.000 C 
ATOM      6 BR   UNL     1       0.593   8.866  21.437  0.00  0.00    +0.000 Br
ATOM      7  C   UNL     1      -0.734  11.214  22.290  0.00  0.00    +0.000 C 
ATOM      8  O   UNL     1      -0.425  10.795  23.409  0.00  0.00    +0.000 OA
ATOM      9  C   UNL     1      -1.629  12.441  22.113  0.00  0.00    +0.000 C 
ATOM     10 BR   UNL     1      -2.705  12.620  23.757  0.00  0.00    +0.000 Br
ATOM     11  C   UNL     1      -2.552  12.364  20.882  0.00  0.00    +0.000 C 
ATOM     12  C   UNL     1      -3.368  13.666  20.722  0.00  0.00    +0.000 C 
ATOM     13  C   UNL     1      -1.747  11.991  19.575  0.00  0.00    +0.000 C 
ATOM     14  C   UNL     1      -0.741  13.117  19.220  0.00  0.00    +0.000 C 
ATOM     15  C   UNL     1      -2.735  11.800  18.383  0.00  0.00    +0.000 C 
ENDROOT
BRANCH   1  17
ATOM     16  C   UNL     1      -4.594  11.263  16.405  0.00  0.00    +0.000 C 
ATOM     17  C   UNL     1      -3.139  11.101  15.952  0.00  0.00    +0.000 C 
ATOM     18  C   UNL     1      -2.978   9.760  15.227  0.00  0.00    +0.000 C 
ENDBRANCH   1  17
TORSDOF 1
ENDMDL
MODEL 3
REMARK VINA RESULT:      -5.4      6.716      8.860
REMARK  Name = 
REMARK  5 active torsions:
REMARK  status: ('A' for Active; 'I' for Inactive)
REMARK    1  A    between atoms: C_1  and  C_2
REMARK    2  A    between atoms: C_2  and  C_3
REMARK    3  A    between atoms: C_2  and  C_4
REMARK    4  A    between atoms: C_14  and  C_15
REMARK    5  A    between atoms: C_16  and  C_17
REMARK                            x       y       z     vdW  Elec       q    Type
REMARK                         _______ _______ _______ _____ _____    ______ ____
ROOT
ATOM      1  C   UNL     1       0.925  10.315  19.435  0.00  0.00    +0.000 C 
ATOM      2  C   UNL     1       0.687  10.658  20.908  0.00  0.00    +0.000 C 
ATOM      3  C   UNL     1      -0.307  11.799  21.103  0.00  0.00    +0.000 C 
ATOM      4  C   UNL     1      -1.647  11.531  20.383  0.00  0.00    +0.000 C 
ATOM      5  C   UNL     1      -2.682  12.635  20.657  0.00  0.00    +0.000 C 
ATOM      6 BR   UNL     1      -3.111  12.687  22.582  0.00  0.00    +0.000 Br
ATOM      7  C   UNL     1      -3.997  12.417  19.909  0.00  0.00    +0.000 C 
ATOM      8  O   UNL     1      -5.080  12.744  20.400  0.00  0.00    +0.000 OA
ATOM      9  C   UNL     1      -3.877  11.986  18.447  0.00  0.00    +0.000 C 
ATOM     10 BR   UNL     1      -5.650  11.329  17.885  0.00  0.00    +0.000 Br
ATOM     11  C   UNL     1      -2.810  10.901  18.206  0.00  0.00    +0.000 C 
ATOM     12  C   UNL     1      -2.690  10.571  16.701  0.00  0.00    +0.000 C 
ATOM     13  C   UNL     1      -1.423  11.297  18.851  0.00  0.00    +0.000 C 
ATOM     14  C   UNL     1      -0.843  12.556  18.154  0.00  0.00    +0.000 C 
ATOM     15  C   UNL     1      -0.413  10.119  18.692  0.00  0.00    +0.000 C 
ENDROOT
BRANCH   1  17
ATOM     16  C   UNL     1       1.812   8.478  17.825  0.00  0.00    +0.000 C 
ATOM     17  C   UNL     1       1.876   9.098  19.225  0.00  0.00    +0.000 C 
ATOM     18  C   UNL     1       1.630   8.009  20.276  0.00  0.00    +0.000 C 
ENDBRANCH   1  17
TORSDOF 1
ENDMDL
MODEL 4
REMARK VINA RESULT:      -5.4     10.029     11.941
REMARK  Name = 
REMARK  5 active torsions:
REMARK  status: ('A' for Active; 'I' for Inactive)
REMARK    1  A    between atoms: C_1  and  C_2
REMARK    2  A    between atoms: C_2  and  C_3
REMARK    3  A    between atoms: C_2  and  C_4
REMARK    4  A    between atoms: C_14  and  C_15
REMARK    5  A    between atoms: C_16  and  C_17
REMARK                            x       y       z     vdW  Elec       q    Type
REMARK                         _______ _______ _______ _____ _____    ______ ____
ROOT
ATOM      1  C   UNL     1       9.420  12.115  18.280  0.00  0.00    +0.000 C 
ATOM      2  C   UNL     1      10.715  12.693  17.701  0.00  0.00    +0.000 C 
ATOM      3  C   UNL     1      10.554  14.119  17.183  0.00  0.00    +0.000 C 
ATOM      4  C   UNL     1       9.969  15.064  18.255  0.00  0.00    +0.000 C 
ATOM      5  C   UNL     1       9.894  16.519  17.766  0.00  0.00    +0.000 C 
ATOM      6 BR   UNL     1      11.711  17.193  17.394  0.00  0.00    +0.000 Br
ATOM      7  C   UNL     1       9.266  17.462  18.792  0.00  0.00    +0.000 C 
ATOM      8  O   UNL     1       9.642  18.631  18.909  0.00  0.00    +0.000 OA
ATOM      9  C   UNL     1       8.011  16.948  19.498  0.00  0.00    +0.000 C 
ATOM     10 BR   UNL     1       7.702  18.114  21.059  0.00  0.00    +0.000 Br
ATOM     11  C   UNL     1       8.109  15.477  19.947  0.00  0.00    +0.000 C 
ATOM     12  C   UNL     1       6.782  15.005  20.581  0.00  0.00    +0.000 C 
ATOM     13  C   UNL     1       8.583  14.540  18.767  0.00  0.00    +0.000 C 
ATOM     14  C   UNL     1       7.522  14.517  17.636  0.00  0.00    +0.000 C 
ATOM     15  C   UNL     1       8.790  13.088  19.298  0.00  0.00    +0.000 C 
ENDROOT
BRANCH   1  17
ATOM     16  C   UNL     1       8.623   9.641  18.328  0.00  0.00    +0.000 C 
ATOM     17  C   UNL     1       9.592  10.689  18.887  0.00  0.00    +0.000 C 
ATOM     18  C   UNL     1       9.486  10.716  20.416  0.00  0.00    +0.000 C 
ENDBRANCH   1  17
TORSDOF 1
ENDMDL
MODEL 5
REMARK VINA RESULT:      -5.3      2.885      4.789
REMARK  Name = 
REMARK  5 active torsions:
REMARK  status: ('A' for Active; 'I' for Inactive)
REMARK    1  A    between atoms: C_1  and  C_2
REMARK    2  A    between atoms: C_2  and  C_3
REMARK    3  A    between atoms: C_2  and  C_4
REMARK    4  A    between atoms: C_14  and  C_15
REMARK    5  A    between atoms: C_16  and  C_17
REMARK                            x       y       z     vdW  Elec       q    Type
REMARK                         _______ _______ _______ _____ _____    ______ ____
ROOT
ATOM      1  C   UNL     1       2.529   8.224  18.394  0.00  0.00    +0.000 C 
ATOM      2  C   UNL     1       3.462   8.061  17.191  0.00  0.00    +0.000 C 
ATOM      3  C   UNL     1       4.370   6.840  17.298  0.00  0.00    +0.000 C 
ATOM      4  C   UNL     1       3.569   5.542  17.545  0.00  0.00    +0.000 C 
ATOM      5  C   UNL     1       4.473   4.298  17.559  0.00  0.00    +0.000 C 
ATOM      6 BR   UNL     1       5.327   4.072  15.794  0.00  0.00    +0.000 Br
ATOM      7  C   UNL     1       3.708   3.009  17.857  0.00  0.00    +0.000 C 
ATOM      8  O   UNL     1       4.027   1.935  17.339  0.00  0.00    +0.000 OA
ATOM      9  C   UNL     1       2.683   3.080  18.989  0.00  0.00    +0.000 C 
ATOM     10 BR   UNL     1       1.540   1.479  18.842  0.00  0.00    +0.000 Br
ATOM     11  C   UNL     1       1.816   4.354  18.961  0.00  0.00    +0.000 C 
ATOM     12  C   UNL     1       0.859   4.395  20.173  0.00  0.00    +0.000 C 
ATOM     13  C   UNL     1       2.701   5.657  18.844  0.00  0.00    +0.000 C 
ATOM     14  C   UNL     1       3.580   5.828  20.111  0.00  0.00    +0.000 C 
ATOM     15  C   UNL     1       1.781   6.907  18.692  0.00  0.00    +0.000 C 
ENDROOT
BRANCH   1  17
ATOM     16  C   UNL     1       2.211  10.764  17.944  0.00  0.00    +0.000 C 
ATOM     17  C   UNL     1       1.541   9.421  18.259  0.00  0.00    +0.000 C 
ATOM     18  C   UNL     1       0.666   9.569  19.509  0.00  0.00    +0.000 C 
ENDBRANCH   1  17
TORSDOF 1
ENDMDL
MODEL 6
REMARK VINA RESULT:      -5.3      2.856      5.288
REMARK  Name = 
REMARK  5 active torsions:
REMARK  status: ('A' for Active; 'I' for Inactive)
REMARK    1  A    between atoms: C_1  and  C_2
REMARK    2  A    between atoms: C_2  and  C_3
REMARK    3  A    between atoms: C_2  and  C_4
REMARK    4  A    between atoms: C_14  and  C_15
REMARK    5  A    between atoms: C_16  and  C_17
REMARK                            x       y       z     vdW  Elec       q    Type
REMARK                         _______ _______ _______ _____ _____    ______ ____
ROOT
ATOM      1  C   UNL     1       2.162   4.068  20.281  0.00  0.00    +0.000 C 
ATOM      2  C   UNL     1       1.670   5.515  20.170  0.00  0.00    +0.000 C 
ATOM      3  C   UNL     1       2.723   6.462  19.601  0.00  0.00    +0.000 C 
ATOM      4  C   UNL     1       3.275   5.969  18.245  0.00  0.00    +0.000 C 
ATOM      5  C   UNL     1       4.265   6.969  17.626  0.00  0.00    +0.000 C 
ATOM      6 BR   UNL     1       3.344   8.671  17.241  0.00  0.00    +0.000 Br
ATOM      7  C   UNL     1       4.866   6.475  16.310  0.00  0.00    +0.000 C 
ATOM      8  O   UNL     1       5.138   7.254  15.393  0.00  0.00    +0.000 OA
ATOM      9  C   UNL     1       5.314   5.014  16.281  0.00  0.00    +0.000 C 
ATOM     10 BR   UNL     1       5.590   4.526  14.390  0.00  0.00    +0.000 Br
ATOM     11  C   UNL     1       4.312   4.044  16.938  0.00  0.00    +0.000 C 
ATOM     12  C   UNL     1       4.863   2.601  16.941  0.00  0.00    +0.000 C 
ATOM     13  C   UNL     1       3.889   4.534  18.378  0.00  0.00    +0.000 C 
ATOM     14  C   UNL     1       5.110   4.516  19.335  0.00  0.00    +0.000 C 
ATOM     15  C   UNL     1       2.783   3.594  18.951  0.00  0.00    +0.000 C 
ENDROOT
BRANCH   1  17
ATOM     16  C   UNL     1       1.463   2.280  22.033  0.00  0.00    +0.000 C 
ATOM     17  C   UNL     1       1.070   3.077  20.784  0.00  0.00    +0.000 C 
ATOM     18  C   UNL     1       0.640   2.108  19.676  0.00  0.00    +0.000 C 
ENDBRANCH   1  17
TORSDOF 1
ENDMDL
MODEL 7
REMARK VINA RESULT:      -5.3      2.797      5.700
REMARK  Name = 
REMARK  5 active torsions:
REMARK  status: ('A' for Active; 'I' for Inactive)
REMARK    1  A    between atoms: C_1  and  C_2
REMARK    2  A    between atoms: C_2  and  C_3
REMARK    3  A    between atoms: C_2  and  C_4
REMARK    4  A    between atoms: C_14  and  C_15
REMARK    5  A    between atoms: C_16  and  C_17
REMARK                            x       y       z     vdW  Elec       q    Type
REMARK                         _______ _______ _______ _____ _____    ______ ____
ROOT
ATOM      1  C   UNL     1       1.248   7.793  20.002  0.00  0.00    +0.000 C 
ATOM      2  C   UNL     1       1.031   6.772  21.123  0.00  0.00    +0.000 C 
ATOM      3  C   UNL     1       1.310   5.337  20.688  0.00  0.00    +0.000 C 
ATOM      4  C   UNL     1       2.720   5.180  20.075  0.00  0.00    +0.000 C 
ATOM      5  C   UNL     1       3.039   3.718  19.723  0.00  0.00    +0.000 C 
ATOM      6 BR   UNL     1       3.043   2.621  21.363  0.00  0.00    +0.000 Br
ATOM      7  C   UNL     1       4.407   3.548  19.064  0.00  0.00    +0.000 C 
ATOM      8  O   UNL     1       5.099   2.546  19.262  0.00  0.00    +0.000 OA
ATOM      9  C   UNL     1       4.766   4.570  17.985  0.00  0.00    +0.000 C 
ATOM     10 BR   UNL     1       6.706   4.418  17.660  0.00  0.00    +0.000 Br
ATOM     11  C   UNL     1       4.405   6.021  18.359  0.00  0.00    +0.000 C 
ATOM     12  C   UNL     1       4.723   6.986  17.196  0.00  0.00    +0.000 C 
ATOM     13  C   UNL     1       2.908   6.138  18.850  0.00  0.00    +0.000 C 
ATOM     14  C   UNL     1       1.932   5.794  17.694  0.00  0.00    +0.000 C 
ATOM     15  C   UNL     1       2.626   7.594  19.336  0.00  0.00    +0.000 C 
ENDROOT
BRANCH   1  17
ATOM     16  C   UNL     1       0.512   9.425  21.886  0.00  0.00    +0.000 C 
ATOM     17  C   UNL     1       1.045   9.270  20.457  0.00  0.00    +0.000 C 
ATOM     18  C   UNL     1       0.134  10.033  19.489  0.00  0.00    +0.000 C 
ENDBRANCH   1  17
TORSDOF 1
ENDMDL
MODEL 8
REMARK VINA RESULT:      -5.3      2.488      3.591
REMARK  Name = 
REMARK  5 active torsions:
REMARK  status: ('A' for Active; 'I' for Inactive)
REMARK    1  A    between atoms: C_1  and  C_2
REMARK    2  A    between atoms: C_2  and  C_3
REMARK    3  A    between atoms: C_2  and  C_4
REMARK    4  A    between atoms: C_14  and  C_15
REMARK    5  A    between atoms: C_16  and  C_17
REMARK                            x       y       z     vdW  Elec       q    Type
REMARK                         _______ _______ _______ _____ _____    ______ ____
ROOT
ATOM      1  C   UNL     1       5.917   4.295  13.933  0.00  0.00    +0.000 C 
ATOM      2  C   UNL     1       7.280   4.683  14.513  0.00  0.00    +0.000 C 
ATOM      3  C   UNL     1       7.175   5.417  15.847  0.00  0.00    +0.000 C 
ATOM      4  C   UNL     1       6.349   4.622  16.883  0.00  0.00    +0.000 C 
ATOM      5  C   UNL     1       6.322   5.314  18.256  0.00  0.00    +0.000 C 
ATOM      6 BR   UNL     1       8.150   5.412  18.992  0.00  0.00    +0.000 Br
ATOM      7  C   UNL     1       5.464   4.572  19.280  0.00  0.00    +0.000 C 
ATOM      8  O   UNL     1       5.764   4.547  20.476  0.00  0.00    +0.000 OA
ATOM      9  C   UNL     1       4.111   4.062  18.782  0.00  0.00    +0.000 C 
ATOM     10 BR   UNL     1       3.448   2.769  20.117  0.00  0.00    +0.000 Br
ATOM     11  C   UNL     1       4.171   3.402  17.391  0.00  0.00    +0.000 C 
ATOM     12  C   UNL     1       2.761   2.981  16.919  0.00  0.00    +0.000 C 
ATOM     13  C   UNL     1       4.909   4.324  16.342  0.00  0.00    +0.000 C 
ATOM     14  C   UNL     1       4.101   5.627  16.105  0.00  0.00    +0.000 C 
ATOM     15  C   UNL     1       5.058   3.565  14.986  0.00  0.00    +0.000 C 
ENDROOT
BRANCH   1  17
ATOM     16  C   UNL     1       7.133   3.926  11.665  0.00  0.00    +0.000 C 
ATOM     17  C   UNL     1       6.015   3.474  12.612  0.00  0.00    +0.000 C 
ATOM     18  C   UNL     1       4.680   3.468  11.856  0.00  0.00    +0.000 C 
ENDBRANCH   1  17
TORSDOF 1
ENDMDL
MODEL 9
REMARK VINA RESULT:      -5.2      1.247      3.215
REMARK  Name = 
REMARK  5 active torsions:
REMARK  status: ('A' for Active; 'I' for Inactive)
REMARK    1  A    between atoms: C_1  and  C_2
REMARK    2  A    between atoms: C_2  and  C_3
REMARK    3  A    between atoms: C_2  and  C_4
REMARK    4  A    between atoms: C_14  and  C_15
REMARK    5  A    between atoms: C_16  and  C_17
REMARK                            x       y       z     vdW  Elec       q    Type
REMARK                         _______ _______ _______ _____ _____    ______ ____
ROOT
ATOM      1  C   UNL     1       5.547   4.505  15.829  0.00  0.00    +0.000 C 
ATOM      2  C   UNL     1       4.861   3.151  16.036  0.00  0.00    +0.000 C 
ATOM      3  C   UNL     1       4.396   2.929  17.472  0.00  0.00    +0.000 C 
ATOM      4  C   UNL     1       3.495   4.079  17.974  0.00  0.00    +0.000 C 
ATOM      5  C   UNL     1       2.949   3.811  19.387  0.00  0.00    +0.000 C 
ATOM      6 BR   UNL     1       1.806   2.203  19.368  0.00  0.00    +0.000 Br
ATOM      7  C   UNL     1       2.099   4.962  19.925  0.00  0.00    +0.000 C 
ATOM      8  O   UNL     1       1.126   4.758  20.655  0.00  0.00    +0.000 OA
ATOM      9  C   UNL     1       2.650   6.370  19.697  0.00  0.00    +0.000 C 
ATOM     10 BR   UNL     1       1.177   7.635  20.044  0.00  0.00    +0.000 Br
ATOM     11  C   UNL     1       3.216   6.592  18.280  0.00  0.00    +0.000 C 
ATOM     12  C   UNL     1       3.822   8.007  18.145  0.00  0.00    +0.000 C 
ATOM     13  C   UNL     1       4.236   5.456  17.877  0.00  0.00    +0.000 C 
ATOM     14  C   UNL     1       5.486   5.503  18.793  0.00  0.00    +0.000 C 
ATOM     15  C   UNL     1       4.684   5.651  16.396  0.00  0.00    +0.000 C 
ENDROOT
BRANCH   1  17
ATOM     16  C   UNL     1       5.624   3.634  13.381  0.00  0.00    +0.000 C 
ATOM     17  C   UNL     1       5.953   4.777  14.349  0.00  0.00    +0.000 C 
ATOM     18  C   UNL     1       7.441   5.130  14.232  0.00  0.00    +0.000 C 
ENDBRANCH   1  17
TORSDOF 1
ENDMDL
