MODEL 1
REMARK VINA RESULT:      -6.5      0.000      0.000
REMARK  Name = 
REMARK  12 active torsions:
REMARK  status: ('A' for Active; 'I' for Inactive)
REMARK    1  A    between atoms: C_1  and  O_2
REMARK    2  A    between atoms: O_2  and  C_3
REMARK    3  A    between atoms: C_3  and  C_4
REMARK    4  A    between atoms: C_4  and  O_6
REMARK    5  A    between atoms: C_8  and  O_9
REMARK    6  A    between atoms: C_10  and  N_11
REMARK    7  A    between atoms: C_12  and  C_13
REMARK    8  A    between atoms: C_15  and  C_16
REMARK    9  A    between atoms: C_16  and  O_17
REMARK   10  A    between atoms: C_16  and  C_18
REMARK   11  A    between atoms: C_18  and  O_19
REMARK   12  A    between atoms: C_18  and  O_20
REMARK                            x       y       z     vdW  Elec       q    Type
REMARK                         _______ _______ _______ _____ _____    ______ ____
ROOT
ATOM      1  C   UNL     1       2.220   3.522  19.619  0.00  0.00    +0.000 C 
ATOM      2  C   UNL     1       3.580   2.873  19.913  0.00  0.00    +0.000 C 
ATOM      3  C   UNL     1       4.721   3.531  19.153  0.00  0.00    +0.000 C 
ATOM      4  C   UNL     1       4.692   5.070  19.339  0.00  0.00    +0.000 C 
ATOM      5  C   UNL     1       3.283   5.568  18.917  0.00  0.00    +0.000 C 
ATOM      6  O   UNL     1       2.269   4.941  19.727  0.00  0.00    +0.000 OA
ENDROOT
BRANCH   4   7
ATOM      7  N   UNL     1       5.778   5.719  18.605  0.00  0.00    +0.000 N 
ATOM      8  C   UNL     1       7.049   5.824  19.117  0.00  0.00    +0.000 C 
ATOM      9  C   UNL     1       8.019   6.546  18.222  0.00  0.00    +0.000 C 
ATOM     10  O   UNL     1       7.380   5.372  20.210  0.00  0.00    +0.000 OA
ATOM     11  H   UNL     1       5.507   6.398  17.895  0.00  0.00    +0.000 HD
ENDBRANCH   4   7
BRANCH   1  13
ATOM     12  C   UNL     1       1.722   2.596  21.818  0.00  0.00    +0.000 C 
ATOM     13  O   UNL     1       1.226   2.990  20.545  0.00  0.00    +0.000 OA
ENDBRANCH   1  13
BRANCH   1  14
ATOM     14  C   UNL     1       1.629   3.026  18.240  0.00  0.00    +0.000 C 
ATOM     15  O   UNL     1       0.948   3.683  17.472  0.00  0.00    +0.000 OA
BRANCH  14  16
ATOM     16  O   UNL     1       1.911   1.715  18.003  0.00  0.00    +0.000 OA
ATOM     17  H   UNL     1       1.145   1.181  18.326  0.00  0.00    +0.000 HD
ENDBRANCH  14  16
ENDBRANCH   1  14
BRANCH   3  18
ATOM     18  O   UNL     1       4.595   3.202  17.771  0.00  0.00    +0.000 OA
ATOM     19  H   UNL     1       4.871   3.981  17.246  0.00  0.00    +0.000 HD
ENDBRANCH   3  18
BRANCH   5  20
ATOM     20  C   UNL     1       3.109   7.101  19.032  0.00  0.00    +0.000 C 
BRANCH  20  21
ATOM     21  O   UNL     1       3.101   7.709  17.725  0.00  0.00    +0.000 OA
ATOM     22  H   UNL     1       2.529   8.501  17.780  0.00  0.00    +0.000 HD
ENDBRANCH  20  21
BRANCH  20  23
ATOM     23  C   UNL     1       1.799   7.475  19.789  0.00  0.00    +0.000 C 
BRANCH  23  24
ATOM     24  O   UNL     1       1.937   7.344  21.188  0.00  0.00    +0.000 OA
ATOM     25  H   UNL     1       2.894   7.388  21.377  0.00  0.00    +0.000 HD
ENDBRANCH  23  24
BRANCH  23  26
ATOM     26  O   UNL     1       1.434   8.817  19.489  0.00  0.00    +0.000 OA
ATOM     27  H   UNL     1       2.125   9.186  18.913  0.00  0.00    +0.000 HD
ENDBRANCH  23  26
ENDBRANCH  20  23
ENDBRANCH   5  20
TORSDOF 10
ENDMDL
MODEL 2
REMARK VINA RESULT:      -6.4      2.212      5.195
REMARK  Name = 
REMARK  12 active torsions:
REMARK  status: ('A' for Active; 'I' for Inactive)
REMARK    1  A    between atoms: C_1  and  O_2
REMARK    2  A    between atoms: O_2  and  C_3
REMARK    3  A    between atoms: C_3  and  C_4
REMARK    4  A    between atoms: C_4  and  O_6
REMARK    5  A    between atoms: C_8  and  O_9
REMARK    6  A    between atoms: C_10  and  N_11
REMARK    7  A    between atoms: C_12  and  C_13
REMARK    8  A    between atoms: C_15  and  C_16
REMARK    9  A    between atoms: C_16  and  O_17
REMARK   10  A    between atoms: C_16  and  C_18
REMARK   11  A    between atoms: C_18  and  O_19
REMARK   12  A    between atoms: C_18  and  O_20
REMARK                            x       y       z     vdW  Elec       q    Type
REMARK                         _______ _______ _______ _____ _____    ______ ____
ROOT
ATOM      1  C   UNL     1       6.690   5.936  16.965  0.00  0.00    +0.000 C 
ATOM      2  C   UNL     1       6.922   4.580  17.647  0.00  0.00    +0.000 C 
ATOM      3  C   UNL     1       6.102   4.413  18.916  0.00  0.00    +0.000 C 
ATOM      4  C   UNL     1       4.611   4.753  18.657  0.00  0.00    +0.000 C 
ATOM      5  C   UNL     1       4.553   6.181  18.052  0.00  0.00    +0.000 C 
ATOM      6  O   UNL     1       5.305   6.234  16.823  0.00  0.00    +0.000 OA
ENDROOT
BRANCH   4   7
ATOM      7  N   UNL     1       3.810   4.607  19.872  0.00  0.00    +0.000 N 
ATOM      8  C   UNL     1       2.901   3.589  20.033  0.00  0.00    +0.000 C 
ATOM      9  C   UNL     1       2.158   3.623  21.342  0.00  0.00    +0.000 C 
ATOM     10  O   UNL     1       2.702   2.718  19.192  0.00  0.00    +0.000 OA
ATOM     11  H   UNL     1       3.665   5.449  20.427  0.00  0.00    +0.000 HD
ENDBRANCH   4   7
BRANCH   1  13
ATOM     12  C   UNL     1       7.006   4.824  14.819  0.00  0.00    +0.000 C 
ATOM     13  O   UNL     1       7.330   5.928  15.654  0.00  0.00    +0.000 OA
ENDBRANCH   1  13
BRANCH   1  14
ATOM     14  C   UNL     1       7.502   7.089  17.678  0.00  0.00    +0.000 C 
ATOM     15  O   UNL     1       8.268   6.953  18.617  0.00  0.00    +0.000 OA
BRANCH  14  16
ATOM     16  O   UNL     1       7.211   8.316  17.164  0.00  0.00    +0.000 OA
ATOM     17  H   UNL     1       8.063   8.806  17.061  0.00  0.00    +0.000 HD
ENDBRANCH  14  16
ENDBRANCH   1  14
BRANCH   3  18
ATOM     18  O   UNL     1       6.635   5.277  19.918  0.00  0.00    +0.000 OA
ATOM     19  H   UNL     1       7.598   5.364  19.764  0.00  0.00    +0.000 HD
ENDBRANCH   3  18
BRANCH   5  20
ATOM     20  C   UNL     1       3.115   6.670  17.756  0.00  0.00    +0.000 C 
BRANCH  20  21
ATOM     21  O   UNL     1       2.186   5.568  17.799  0.00  0.00    +0.000 OA
ATOM     22  H   UNL     1       1.303   5.944  17.985  0.00  0.00    +0.000 HD
ENDBRANCH  20  21
BRANCH  20  23
ATOM     23  C   UNL     1       2.664   7.771  18.762  0.00  0.00    +0.000 C 
BRANCH  23  24
ATOM     24  O   UNL     1       1.576   8.526  18.273  0.00  0.00    +0.000 OA
ATOM     25  H   UNL     1       0.906   7.883  17.972  0.00  0.00    +0.000 HD
ENDBRANCH  23  24
BRANCH  23  26
ATOM     26  O   UNL     1       2.287   7.172  19.996  0.00  0.00    +0.000 OA
ATOM     27  H   UNL     1       1.371   7.438  20.182  0.00  0.00    +0.000 HD
ENDBRANCH  23  26
ENDBRANCH  20  23
ENDBRANCH   5  20
TORSDOF 10
ENDMDL
MODEL 3
REMARK VINA RESULT:      -6.3      2.192      4.981
REMARK  Name = 
REMARK  12 active torsions:
REMARK  status: ('A' for Active; 'I' for Inactive)
REMARK    1  A    between atoms: C_1  and  O_2
REMARK    2  A    between atoms: O_2  and  C_3
REMARK    3  A    between atoms: C_3  and  C_4
REMARK    4  A    between atoms: C_4  and  O_6
REMARK    5  A    between atoms: C_8  and  O_9
REMARK    6  A    between atoms: C_10  and  N_11
REMARK    7  A    between atoms: C_12  and  C_13
REMARK    8  A    between atoms: C_15  and  C_16
REMARK    9  A    between atoms: C_16  and  O_17
REMARK   10  A    between atoms: C_16  and  C_18
REMARK   11  A    between atoms: C_18  and  O_19
REMARK   12  A    between atoms: C_18  and  O_20
REMARK                            x       y       z     vdW  Elec       q    Type
REMARK                         _______ _______ _______ _____ _____    ______ ____
ROOT
ATOM      1  C   UNL     1       5.241   5.555  16.666  0.00  0.00    +0.000 C 
ATOM      2  C   UNL     1       5.154   4.023  16.737  0.00  0.00    +0.000 C 
ATOM      3  C   UNL     1       4.674   3.524  18.091  0.00  0.00    +0.000 C 
ATOM      4  C   UNL     1       3.380   4.260  18.521  0.00  0.00    +0.000 C 
ATOM      5  C   UNL     1       3.668   5.785  18.477  0.00  0.00    +0.000 C 
ATOM      6  O   UNL     1       4.057   6.181  17.146  0.00  0.00    +0.000 OA
ENDROOT
BRANCH   4   7
ATOM      7  N   UNL     1       2.910   3.798  19.827  0.00  0.00    +0.000 N 
ATOM      8  C   UNL     1       1.733   3.108  19.982  0.00  0.00    +0.000 C 
ATOM      9  C   UNL     1       1.412   2.741  21.405  0.00  0.00    +0.000 C 
ATOM     10  O   UNL     1       0.995   2.807  19.047  0.00  0.00    +0.000 OA
ATOM     11  H   UNL     1       3.263   4.299  20.642  0.00  0.00    +0.000 HD
ENDBRANCH   4   7
BRANCH   1  13
ATOM     12  C   UNL     1       6.189   5.011  14.486  0.00  0.00    +0.000 C 
ATOM     13  O   UNL     1       5.488   5.956  15.285  0.00  0.00    +0.000 OA
ENDBRANCH   1  13
BRANCH   1  14
ATOM     14  C   UNL     1       6.554   6.092  17.364  0.00  0.00    +0.000 C 
ATOM     15  O   UNL     1       7.451   5.410  17.828  0.00  0.00    +0.000 OA
BRANCH  14  16
ATOM     16  O   UNL     1       6.566   7.450  17.458  0.00  0.00    +0.000 OA
ATOM     17  H   UNL     1       7.302   7.782  16.888  0.00  0.00    +0.000 HD
ENDBRANCH  14  16
ENDBRANCH   1  14
BRANCH   3  18
ATOM     18  O   UNL     1       5.707   3.748  19.049  0.00  0.00    +0.000 OA
ATOM     19  H   UNL     1       5.833   4.715  19.141  0.00  0.00    +0.000 HD
ENDBRANCH   3  18
BRANCH   5  20
ATOM     20  C   UNL     1       2.463   6.656  18.904  0.00  0.00    +0.000 C 
BRANCH  20  21
ATOM     21  O   UNL     1       2.270   6.591  20.331  0.00  0.00    +0.000 OA
ATOM     22  H   UNL     1       1.305   6.587  20.491  0.00  0.00    +0.000 HD
ENDBRANCH  20  21
BRANCH  20  23
ATOM     23  C   UNL     1       2.645   8.141  18.470  0.00  0.00    +0.000 C 
BRANCH  23  24
ATOM     24  O   UNL     1       2.416   8.325  17.089  0.00  0.00    +0.000 OA
ATOM     25  H   UNL     1       2.539   7.452  16.670  0.00  0.00    +0.000 HD
ENDBRANCH  23  24
BRANCH  23  26
ATOM     26  O   UNL     1       1.747   8.971  19.197  0.00  0.00    +0.000 OA
ATOM     27  H   UNL     1       2.280   9.608  19.702  0.00  0.00    +0.000 HD
ENDBRANCH  23  26
ENDBRANCH  20  23
ENDBRANCH   5  20
TORSDOF 10
ENDMDL
MODEL 4
REMARK VINA RESULT:      -6.2      2.402      5.135
REMARK  Name = 
REMARK  12 active torsions:
REMARK  status: ('A' for Active; 'I' for Inactive)
REMARK    1  A    between atoms: C_1  and  O_2
REMARK    2  A    between atoms: O_2  and  C_3
REMARK    3  A    between atoms: C_3  and  C_4
REMARK    4  A    between atoms: C_4  and  O_6
REMARK    5  A    between atoms: C_8  and  O_9
REMARK    6  A    between atoms: C_10  and  N_11
REMARK    7  A    between atoms: C_12  and  C_13
REMARK    8  A    between atoms: C_15  and  C_16
REMARK    9  A    between atoms: C_16  and  O_17
REMARK   10  A    between atoms: C_16  and  C_18
REMARK   11  A    between atoms: C_18  and  O_19
REMARK   12  A    between atoms: C_18  and  O_20
REMARK                            x       y       z     vdW  Elec       q    Type
REMARK                         _______ _______ _______ _____ _____    ______ ____
ROOT
ATOM      1  C   UNL     1       5.760   5.470  16.240  0.00  0.00    +0.000 C 
ATOM      2  C   UNL     1       5.694   3.941  16.366  0.00  0.00    +0.000 C 
ATOM      3  C   UNL     1       5.043   3.486  17.662  0.00  0.00    +0.000 C 
ATOM      4  C   UNL     1       3.687   4.206  17.880  0.00  0.00    +0.000 C 
ATOM      5  C   UNL     1       3.950   5.735  17.808  0.00  0.00    +0.000 C 
ATOM      6  O   UNL     1       4.509   6.086  16.527  0.00  0.00    +0.000 OA
ENDROOT
BRANCH   4   7
ATOM      7  N   UNL     1       3.053   3.786  19.129  0.00  0.00    +0.000 N 
ATOM      8  C   UNL     1       1.880   3.071  19.152  0.00  0.00    +0.000 C 
ATOM      9  C   UNL     1       1.374   2.755  20.533  0.00  0.00    +0.000 C 
ATOM     10  O   UNL     1       1.284   2.712  18.139  0.00  0.00    +0.000 OA
ATOM     11  H   UNL     1       3.280   4.329  19.961  0.00  0.00    +0.000 HD
ENDBRANCH   4   7
BRANCH   1  13
ATOM     12  C   UNL     1       6.821   4.782  14.156  0.00  0.00    +0.000 C 
ATOM     13  O   UNL     1       6.186   5.821  14.890  0.00  0.00    +0.000 OA
ENDBRANCH   1  13
BRANCH   1  14
ATOM     14  C   UNL     1       6.954   6.069  17.086  0.00  0.00    +0.000 C 
ATOM     15  O   UNL     1       7.796   5.429  17.692  0.00  0.00    +0.000 OA
BRANCH  14  16
ATOM     16  O   UNL     1       6.922   7.429  17.127  0.00  0.00    +0.000 OA
ATOM     17  H   UNL     1       6.927   7.699  18.078  0.00  0.00    +0.000 HD
ENDBRANCH  14  16
ENDBRANCH   1  14
BRANCH   3  18
ATOM     18  O   UNL     1       5.930   3.774  18.741  0.00  0.00    +0.000 OA
ATOM     19  H   UNL     1       6.269   2.925  19.091  0.00  0.00    +0.000 HD
ENDBRANCH   3  18
BRANCH   5  20
ATOM     20  C   UNL     1       2.681   6.591  18.029  0.00  0.00    +0.000 C 
BRANCH  20  21
ATOM     21  O   UNL     1       1.493   5.793  17.852  0.00  0.00    +0.000 OA
ATOM     22  H   UNL     1       1.767   4.962  17.416  0.00  0.00    +0.000 HD
ENDBRANCH  20  21
BRANCH  20  23
ATOM     23  C   UNL     1       2.666   7.241  19.445  0.00  0.00    +0.000 C 
BRANCH  23  24
ATOM     24  O   UNL     1       1.769   8.329  19.523  0.00  0.00    +0.000 OA
ATOM     25  H   UNL     1       0.995   8.089  18.978  0.00  0.00    +0.000 HD
ENDBRANCH  23  24
BRANCH  23  26
ATOM     26  O   UNL     1       2.293   6.272  20.418  0.00  0.00    +0.000 OA
ATOM     27  H   UNL     1       1.635   5.685  20.009  0.00  0.00    +0.000 HD
ENDBRANCH  23  26
ENDBRANCH  20  23
ENDBRANCH   5  20
TORSDOF 10
ENDMDL
MODEL 5
REMARK VINA RESULT:      -6.1      1.027      1.138
REMARK  Name = 
REMARK  12 active torsions:
REMARK  status: ('A' for Active; 'I' for Inactive)
REMARK    1  A    between atoms: C_1  and  O_2
REMARK    2  A    between atoms: O_2  and  C_3
REMARK    3  A    between atoms: C_3  and  C_4
REMARK    4  A    between atoms: C_4  and  O_6
REMARK    5  A    between atoms: C_8  and  O_9
REMARK    6  A    between atoms: C_10  and  N_11
REMARK    7  A    between atoms: C_12  and  C_13
REMARK    8  A    between atoms: C_15  and  C_16
REMARK    9  A    between atoms: C_16  and  O_17
REMARK   10  A    between atoms: C_16  and  C_18
REMARK   11  A    between atoms: C_18  and  O_19
REMARK   12  A    between atoms: C_18  and  O_20
REMARK                            x       y       z     vdW  Elec       q    Type
REMARK                         _______ _______ _______ _____ _____    ______ ____
ROOT
ATOM      1  C   UNL     1       1.955   3.339  19.866  0.00  0.00    +0.000 C 
ATOM      2  C   UNL     1       3.085   2.396  20.304  0.00  0.00    +0.000 C 
ATOM      3  C   UNL     1       4.317   2.506  19.419  0.00  0.00    +0.000 C 
ATOM      4  C   UNL     1       4.746   3.986  19.254  0.00  0.00    +0.000 C 
ATOM      5  C   UNL     1       3.518   4.776  18.726  0.00  0.00    +0.000 C 
ATOM      6  O   UNL     1       2.419   4.668  19.652  0.00  0.00    +0.000 OA
ENDROOT
BRANCH   4   7
ATOM      7  N   UNL     1       5.925   4.109  18.397  0.00  0.00    +0.000 N 
ATOM      8  C   UNL     1       7.033   4.831  18.772  0.00  0.00    +0.000 C 
ATOM      9  C   UNL     1       8.131   4.858  17.744  0.00  0.00    +0.000 C 
ATOM     10  O   UNL     1       7.133   5.407  19.851  0.00  0.00    +0.000 OA
ATOM     11  H   UNL     1       5.779   3.972  17.398  0.00  0.00    +0.000 HD
ENDBRANCH   4   7
BRANCH   1  13
ATOM     12  C   UNL     1       1.203   2.601  22.064  0.00  0.00    +0.000 C 
ATOM     13  O   UNL     1       0.910   3.339  20.884  0.00  0.00    +0.000 OA
ENDBRANCH   1  13
BRANCH   1  14
ATOM     14  C   UNL     1       1.159   2.755  18.632  0.00  0.00    +0.000 C 
ATOM     15  O   UNL     1       0.608   3.403  17.760  0.00  0.00    +0.000 OA
BRANCH  14  16
ATOM     16  O   UNL     1       1.090   1.395  18.664  0.00  0.00    +0.000 OA
ATOM     17  H   UNL     1       1.989   1.056  18.894  0.00  0.00    +0.000 HD
ENDBRANCH  14  16
ENDBRANCH   1  14
BRANCH   3  18
ATOM     18  O   UNL     1       4.014   1.938  18.146  0.00  0.00    +0.000 OA
ATOM     19  H   UNL     1       3.631   2.642  17.583  0.00  0.00    +0.000 HD
ENDBRANCH   3  18
BRANCH   5  20
ATOM     20  C   UNL     1       3.803   6.278  18.491  0.00  0.00    +0.000 C 
BRANCH  20  21
ATOM     21  O   UNL     1       4.276   6.501  17.148  0.00  0.00    +0.000 OA
ATOM     22  H   UNL     1       4.644   5.653  16.828  0.00  0.00    +0.000 HD
ENDBRANCH  20  21
BRANCH  20  23
ATOM     23  C   UNL     1       2.537   7.150  18.749  0.00  0.00    +0.000 C 
BRANCH  23  24
ATOM     24  O   UNL     1       2.347   7.421  20.122  0.00  0.00    +0.000 OA
ATOM     25  H   UNL     1       3.235   7.422  20.528  0.00  0.00    +0.000 HD
ENDBRANCH  23  24
BRANCH  23  26
ATOM     26  O   UNL     1       2.649   8.383  18.050  0.00  0.00    +0.000 OA
ATOM     27  H   UNL     1       2.032   8.352  17.300  0.00  0.00    +0.000 HD
ENDBRANCH  23  26
ENDBRANCH  20  23
ENDBRANCH   5  20
TORSDOF 10
ENDMDL
MODEL 6
REMARK VINA RESULT:      -6.1      2.454      4.120
REMARK  Name = 
REMARK  12 active torsions:
REMARK  status: ('A' for Active; 'I' for Inactive)
REMARK    1  A    between atoms: C_1  and  O_2
REMARK    2  A    between atoms: O_2  and  C_3
REMARK    3  A    between atoms: C_3  and  C_4
REMARK    4  A    between atoms: C_4  and  O_6
REMARK    5  A    between atoms: C_8  and  O_9
REMARK    6  A    between atoms: C_10  and  N_11
REMARK    7  A    between atoms: C_12  and  C_13
REMARK    8  A    between atoms: C_15  and  C_16
REMARK    9  A    between atoms: C_16  and  O_17
REMARK   10  A    between atoms: C_16  and  C_18
REMARK   11  A    between atoms: C_18  and  O_19
REMARK   12  A    between atoms: C_18  and  O_20
REMARK                            x       y       z     vdW  Elec       q    Type
REMARK                         _______ _______ _______ _____ _____    ______ ____
ROOT
ATOM      1  C   UNL     1       3.230   3.462  18.232  0.00  0.00    +0.000 C 
ATOM      2  C   UNL     1       3.288   4.589  19.274  0.00  0.00    +0.000 C 
ATOM      3  C   UNL     1       4.656   5.247  19.352  0.00  0.00    +0.000 C 
ATOM      4  C   UNL     1       5.152   5.654  17.940  0.00  0.00    +0.000 C 
ATOM      5  C   UNL     1       5.112   4.387  17.044  0.00  0.00    +0.000 C 
ATOM      6  O   UNL     1       3.770   3.865  16.978  0.00  0.00    +0.000 OA
ENDROOT
BRANCH   4   7
ATOM      7  N   UNL     1       6.473   6.280  17.997  0.00  0.00    +0.000 N 
ATOM      8  C   UNL     1       6.717   7.527  17.473  0.00  0.00    +0.000 C 
ATOM      9  C   UNL     1       8.143   7.988  17.608  0.00  0.00    +0.000 C 
ATOM     10  O   UNL     1       5.854   8.219  16.939  0.00  0.00    +0.000 OA
ATOM     11  H   UNL     1       7.271   5.654  18.091  0.00  0.00    +0.000 HD
ENDBRANCH   4   7
BRANCH   1  13
ATOM     12  C   UNL     1       1.073   2.967  19.253  0.00  0.00    +0.000 C 
ATOM     13  O   UNL     1       1.844   3.040  18.061  0.00  0.00    +0.000 OA
ENDBRANCH   1  13
BRANCH   1  14
ATOM     14  C   UNL     1       3.874   2.130  18.785  0.00  0.00    +0.000 C 
ATOM     15  O   UNL     1       4.283   1.946  19.919  0.00  0.00    +0.000 OA
BRANCH  14  16
ATOM     16  O   UNL     1       3.992   1.177  17.820  0.00  0.00    +0.000 OA
ATOM     17  H   UNL     1       4.712   0.559  18.096  0.00  0.00    +0.000 HD
ENDBRANCH  14  16
ENDBRANCH   1  14
BRANCH   3  18
ATOM     18  O   UNL     1       5.570   4.327  19.946  0.00  0.00    +0.000 OA
ATOM     19  H   UNL     1       5.919   4.732  20.767  0.00  0.00    +0.000 HD
ENDBRANCH   3  18
BRANCH   5  20
ATOM     20  C   UNL     1       5.602   4.636  15.598  0.00  0.00    +0.000 C 
BRANCH  20  21
ATOM     21  O   UNL     1       5.339   5.997  15.200  0.00  0.00    +0.000 OA
ATOM     22  H   UNL     1       5.101   6.492  16.010  0.00  0.00    +0.000 HD
ENDBRANCH  20  21
BRANCH  20  23
ATOM     23  C   UNL     1       7.123   4.335  15.448  0.00  0.00    +0.000 C 
BRANCH  23  24
ATOM     24  O   UNL     1       7.820   5.401  14.838  0.00  0.00    +0.000 OA
ATOM     25  H   UNL     1       7.201   6.156  14.811  0.00  0.00    +0.000 HD
ENDBRANCH  23  24
BRANCH  23  26
ATOM     26  O   UNL     1       7.695   4.086  16.726  0.00  0.00    +0.000 OA
ATOM     27  H   UNL     1       8.308   3.338  16.632  0.00  0.00    +0.000 HD
ENDBRANCH  23  26
ENDBRANCH  20  23
ENDBRANCH   5  20
TORSDOF 10
ENDMDL
MODEL 7
REMARK VINA RESULT:      -6.0      2.231      5.249
REMARK  Name = 
REMARK  12 active torsions:
REMARK  status: ('A' for Active; 'I' for Inactive)
REMARK    1  A    between atoms: C_1  and  O_2
REMARK    2  A    between atoms: O_2  and  C_3
REMARK    3  A    between atoms: C_3  and  C_4
REMARK    4  A    between atoms: C_4  and  O_6
REMARK    5  A    between atoms: C_8  and  O_9
REMARK    6  A    between atoms: C_10  and  N_11
REMARK    7  A    between atoms: C_12  and  C_13
REMARK    8  A    between atoms: C_15  and  C_16
REMARK    9  A    between atoms: C_16  and  O_17
REMARK   10  A    between atoms: C_16  and  C_18
REMARK   11  A    between atoms: C_18  and  O_19
REMARK   12  A    between atoms: C_18  and  O_20
REMARK                            x       y       z     vdW  Elec       q    Type
REMARK                         _______ _______ _______ _____ _____    ______ ____
ROOT
ATOM      1  C   UNL     1       6.683   5.011  17.567  0.00  0.00    +0.000 C 
ATOM      2  C   UNL     1       6.839   6.539  17.545  0.00  0.00    +0.000 C 
ATOM      3  C   UNL     1       5.581   7.251  17.076  0.00  0.00    +0.000 C 
ATOM      4  C   UNL     1       4.339   6.745  17.854  0.00  0.00    +0.000 C 
ATOM      5  C   UNL     1       4.284   5.201  17.701  0.00  0.00    +0.000 C 
ATOM      6  O   UNL     1       5.487   4.604  18.225  0.00  0.00    +0.000 OA
ENDROOT
BRANCH   4   7
ATOM      7  N   UNL     1       3.117   7.414  17.407  0.00  0.00    +0.000 N 
ATOM      8  C   UNL     1       2.223   7.973  18.287  0.00  0.00    +0.000 C 
ATOM      9  C   UNL     1       1.017   8.593  17.634  0.00  0.00    +0.000 C 
ATOM     10  O   UNL     1       2.381   7.977  19.504  0.00  0.00    +0.000 OA
ATOM     11  H   UNL     1       2.759   7.145  16.491  0.00  0.00    +0.000 HD
ENDBRANCH   4   7
BRANCH   1  13
ATOM     12  C   UNL     1       8.346   5.152  19.344  0.00  0.00    +0.000 C 
ATOM     13  O   UNL     1       7.839   4.422  18.235  0.00  0.00    +0.000 OA
ENDBRANCH   1  13
BRANCH   1  14
ATOM     14  C   UNL     1       6.836   4.393  16.121  0.00  0.00    +0.000 C 
ATOM     15  O   UNL     1       7.490   4.862  15.205  0.00  0.00    +0.000 OA
BRANCH  14  16
ATOM     16  O   UNL     1       6.088   3.267  15.962  0.00  0.00    +0.000 OA
ATOM     17  H   UNL     1       5.583   3.361  15.118  0.00  0.00    +0.000 HD
ENDBRANCH  14  16
ENDBRANCH   1  14
BRANCH   3  18
ATOM     18  O   UNL     1       5.416   7.009  15.680  0.00  0.00    +0.000 OA
ATOM     19  H   UNL     1       4.704   6.346  15.568  0.00  0.00    +0.000 HD
ENDBRANCH   3  18
BRANCH   5  20
ATOM     20  C   UNL     1       3.076   4.550  18.415  0.00  0.00    +0.000 C 
BRANCH  20  21
ATOM     21  O   UNL     1       1.892   4.646  17.598  0.00  0.00    +0.000 OA
ATOM     22  H   UNL     1       1.698   3.747  17.266  0.00  0.00    +0.000 HD
ENDBRANCH  20  21
BRANCH  20  23
ATOM     23  C   UNL     1       3.350   3.056  18.761  0.00  0.00    +0.000 C 
BRANCH  23  24
ATOM     24  O   UNL     1       4.029   2.384  17.721  0.00  0.00    +0.000 OA
ATOM     25  H   UNL     1       4.439   3.075  17.166  0.00  0.00    +0.000 HD
ENDBRANCH  23  24
BRANCH  23  26
ATOM     26  O   UNL     1       4.131   2.970  19.947  0.00  0.00    +0.000 OA
ATOM     27  H   UNL     1       4.432   2.050  20.033  0.00  0.00    +0.000 HD
ENDBRANCH  23  26
ENDBRANCH  20  23
ENDBRANCH   5  20
TORSDOF 10
ENDMDL
MODEL 8
REMARK VINA RESULT:      -6.0      2.213      5.001
REMARK  Name = 
REMARK  12 active torsions:
REMARK  status: ('A' for Active; 'I' for Inactive)
REMARK    1  A    between atoms: C_1  and  O_2
REMARK    2  A    between atoms: O_2  and  C_3
REMARK    3  A    between atoms: C_3  and  C_4
REMARK    4  A    between atoms: C_4  and  O_6
REMARK    5  A    between atoms: C_8  and  O_9
REMARK    6  A    between atoms: C_10  and  N_11
REMARK    7  A    between atoms: C_12  and  C_13
REMARK    8  A    between atoms: C_15  and  C_16
REMARK    9  A    between atoms: C_16  and  O_17
REMARK   10  A    between atoms: C_16  and  C_18
REMARK   11  A    between atoms: C_18  and  O_19
REMARK   12  A    between atoms: C_18  and  O_20
REMARK                            x       y       z     vdW  Elec       q    Type
REMARK                         _______ _______ _______ _____ _____    ______ ____
ROOT
ATOM      1  C   UNL     1       6.354   5.817  16.831  0.00  0.00    +0.000 C 
ATOM      2  C   UNL     1       6.706   4.512  17.561  0.00  0.00    +0.000 C 
ATOM      3  C   UNL     1       5.924   4.333  18.853  0.00  0.00    +0.000 C 
ATOM      4  C   UNL     1       4.407   4.544  18.613  0.00  0.00    +0.000 C 
ATOM      5  C   UNL     1       4.224   5.937  17.953  0.00  0.00    +0.000 C 
ATOM      6  O   UNL     1       4.947   5.999  16.707  0.00  0.00    +0.000 OA
ENDROOT
BRANCH   4   7
ATOM      7  N   UNL     1       3.642   4.385  19.850  0.00  0.00    +0.000 N 
ATOM      8  C   UNL     1       3.086   3.184  20.219  0.00  0.00    +0.000 C 
ATOM      9  C   UNL     1       2.318   3.229  21.512  0.00  0.00    +0.000 C 
ATOM     10  O   UNL     1       3.200   2.153  19.562  0.00  0.00    +0.000 OA
ATOM     11  H   UNL     1       3.222   5.228  20.238  0.00  0.00    +0.000 HD
ENDBRANCH   4   7
BRANCH   1  13
ATOM     12  C   UNL     1       6.850   4.586  14.786  0.00  0.00    +0.000 C 
ATOM     13  O   UNL     1       6.969   5.805  15.508  0.00  0.00    +0.000 OA
ENDBRANCH   1  13
BRANCH   1  14
ATOM     14  C   UNL     1       7.085   7.058  17.481  0.00  0.00    +0.000 C 
ATOM     15  O   UNL     1       6.831   8.232  17.272  0.00  0.00    +0.000 OA
BRANCH  14  16
ATOM     16  O   UNL     1       8.113   6.682  18.291  0.00  0.00    +0.000 OA
ATOM     17  H   UNL     1       8.955   6.874  17.812  0.00  0.00    +0.000 HD
ENDBRANCH  14  16
ENDBRANCH   1  14
BRANCH   3  18
ATOM     18  O   UNL     1       6.405   5.277  19.809  0.00  0.00    +0.000 OA
ATOM     19  H   UNL     1       5.651   5.833  20.093  0.00  0.00    +0.000 HD
ENDBRANCH   3  18
BRANCH   5  20
ATOM     20  C   UNL     1       2.747   6.299  17.669  0.00  0.00    +0.000 C 
BRANCH  20  21
ATOM     21  O   UNL     1       1.909   5.132  17.783  0.00  0.00    +0.000 OA
ATOM     22  H   UNL     1       2.004   4.797  18.697  0.00  0.00    +0.000 HD
ENDBRANCH  20  21
BRANCH  20  23
ATOM     23  C   UNL     1       2.231   7.407  18.636  0.00  0.00    +0.000 C 
BRANCH  23  24
ATOM     24  O   UNL     1       2.638   7.182  19.969  0.00  0.00    +0.000 OA
ATOM     25  H   UNL     1       1.874   7.410  20.533  0.00  0.00    +0.000 HD
ENDBRANCH  23  24
BRANCH  23  26
ATOM     26  O   UNL     1       2.717   8.677  18.218  0.00  0.00    +0.000 OA
ATOM     27  H   UNL     1       3.496   8.885  18.762  0.00  0.00    +0.000 HD
ENDBRANCH  23  26
ENDBRANCH  20  23
ENDBRANCH   5  20
TORSDOF 10
ENDMDL
MODEL 9
REMARK VINA RESULT:      -6.0      2.476      5.255
REMARK  Name = 
REMARK  12 active torsions:
REMARK  status: ('A' for Active; 'I' for Inactive)
REMARK    1  A    between atoms: C_1  and  O_2
REMARK    2  A    between atoms: O_2  and  C_3
REMARK    3  A    between atoms: C_3  and  C_4
REMARK    4  A    between atoms: C_4  and  O_6
REMARK    5  A    between atoms: C_8  and  O_9
REMARK    6  A    between atoms: C_10  and  N_11
REMARK    7  A    between atoms: C_12  and  C_13
REMARK    8  A    between atoms: C_15  and  C_16
REMARK    9  A    between atoms: C_16  and  O_17
REMARK   10  A    between atoms: C_16  and  C_18
REMARK   11  A    between atoms: C_18  and  O_19
REMARK   12  A    between atoms: C_18  and  O_20
REMARK                            x       y       z     vdW  Elec       q    Type
REMARK                         _______ _______ _______ _____ _____    ______ ____
ROOT
ATOM      1  C   UNL     1       6.341   5.024  16.456  0.00  0.00    +0.000 C 
ATOM      2  C   UNL     1       7.045   4.625  17.761  0.00  0.00    +0.000 C 
ATOM      3  C   UNL     1       6.093   4.550  18.944  0.00  0.00    +0.000 C 
ATOM      4  C   UNL     1       4.851   3.690  18.597  0.00  0.00    +0.000 C 
ATOM      5  C   UNL     1       4.213   4.280  17.310  0.00  0.00    +0.000 C 
ATOM      6  O   UNL     1       5.164   4.256  16.226  0.00  0.00    +0.000 OA
ENDROOT
BRANCH   4   7
ATOM      7  N   UNL     1       3.919   3.617  19.722  0.00  0.00    +0.000 N 
ATOM      8  C   UNL     1       3.922   2.568  20.610  0.00  0.00    +0.000 C 
ATOM      9  C   UNL     1       2.872   2.663  21.684  0.00  0.00    +0.000 C 
ATOM     10  O   UNL     1       4.708   1.627  20.546  0.00  0.00    +0.000 OA
ATOM     11  H   UNL     1       3.051   4.143  19.631  0.00  0.00    +0.000 HD
ENDBRANCH   4   7
BRANCH   1  13
ATOM     12  C   UNL     1       6.729   4.223  14.187  0.00  0.00    +0.000 C 
ATOM     13  O   UNL     1       7.267   4.855  15.342  0.00  0.00    +0.000 OA
ENDBRANCH   1  13
BRANCH   1  14
ATOM     14  C   UNL     1       6.087   6.583  16.390  0.00  0.00    +0.000 C 
ATOM     15  O   UNL     1       6.665   7.433  17.044  0.00  0.00    +0.000 OA
BRANCH  14  16
ATOM     16  O   UNL     1       5.075   6.902  15.537  0.00  0.00    +0.000 OA
ATOM     17  H   UNL     1       4.658   6.057  15.238  0.00  0.00    +0.000 HD
ENDBRANCH  14  16
ENDBRANCH   1  14
BRANCH   3  18
ATOM     18  O   UNL     1       5.691   5.875  19.287  0.00  0.00    +0.000 OA
ATOM     19  H   UNL     1       5.628   6.397  18.461  0.00  0.00    +0.000 HD
ENDBRANCH   3  18
BRANCH   5  20
ATOM     20  C   UNL     1       2.942   3.530  16.849  0.00  0.00    +0.000 C 
BRANCH  20  21
ATOM     21  O   UNL     1       3.005   2.141  17.230  0.00  0.00    +0.000 OA
ATOM     22  H   UNL     1       3.383   2.107  18.132  0.00  0.00    +0.000 HD
ENDBRANCH  20  21
BRANCH  20  23
ATOM     23  C   UNL     1       1.650   4.173  17.438  0.00  0.00    +0.000 C 
BRANCH  23  24
ATOM     24  O   UNL     1       1.073   3.375  18.451  0.00  0.00    +0.000 OA
ATOM     25  H   UNL     1       1.799   2.850  18.838  0.00  0.00    +0.000 HD
ENDBRANCH  23  24
BRANCH  23  26
ATOM     26  O   UNL     1       1.952   5.452  17.981  0.00  0.00    +0.000 OA
ATOM     27  H   UNL     1       1.639   6.120  17.348  0.00  0.00    +0.000 HD
ENDBRANCH  23  26
ENDBRANCH  20  23
ENDBRANCH   5  20
TORSDOF 10
ENDMDL
