MODEL 1
REMARK VINA RESULT:      -7.3      0.000      0.000
REMARK  Name = 
REMARK  9 active torsions:
REMARK  status: ('A' for Active; 'I' for Inactive)
REMARK    1  A    between atoms: C_1  and  O_2
REMARK    2  A    between atoms: O_2  and  C_3
REMARK    3  A    between atoms: C_4  and  N_5
REMARK    4  A    between atoms: N_5  and  C_6
REMARK    5  A    between atoms: C_6  and  C_7
REMARK    6  A    between atoms: C_7  and  N_8
REMARK    7  A    between atoms: C_17  and  N_18
REMARK    8  A    between atoms: C_22  and  C_23
REMARK    9  A    between atoms: C_23  and  O_25
REMARK                            x       y       z     vdW  Elec       q    Type
REMARK                         _______ _______ _______ _____ _____    ______ ____
ROOT
ATOM      1  C   UNL     1       2.451   6.560  19.793  0.00  0.00    +0.000 A 
ATOM      2  C   UNL     1       3.063   6.624  18.515  0.00  0.00    +0.000 A 
ATOM      3  C   UNL     1       2.896   7.825  17.780  0.00  0.00    +0.000 A 
ATOM      4  F   UNL     1       3.489   7.977  16.581  0.00  0.00    +0.000 F 
ATOM      5  C   UNL     1       2.071   8.880  18.190  0.00  0.00    +0.000 A 
ATOM      6  C   UNL     1       1.472   8.779  19.445  0.00  0.00    +0.000 A 
ATOM      7  C   UNL     1       0.569   9.853  19.940  0.00  0.00    +0.000 A 
ATOM      8  O   UNL     1       0.155  10.745  19.197  0.00  0.00    +0.000 OA
ATOM      9  C   UNL     1       0.151   9.832  21.357  0.00  0.00    +0.000 A 
ATOM     10  C   UNL     1       0.437   8.724  22.056  0.00  0.00    +0.000 A 
ATOM     11  N   UNL     1       1.083   7.629  21.545  0.00  0.00    +0.000 N 
ATOM     12  C   UNL     1       1.670   7.647  20.259  0.00  0.00    +0.000 A 
ATOM     13  H   UNL     1       1.283   6.823  22.136  0.00  0.00    +0.000 HD
ENDROOT
BRANCH   5  14
ATOM     14  N   UNL     1       2.064  10.078  17.444  0.00  0.00    +0.000 N 
ATOM     15  H   UNL     1       1.964   9.929  16.442  0.00  0.00    +0.000 HD
ATOM     16  H   UNL     1       1.408  10.773  17.814  0.00  0.00    +0.000 HD
ENDBRANCH   5  14
BRANCH   1  18
ATOM     17  C   UNL     1       1.587   4.398  20.429  0.00  0.00    +0.000 C 
ATOM     18  O   UNL     1       2.480   5.485  20.660  0.00  0.00    +0.000 OA
ENDBRANCH   1  18
BRANCH   2  19
ATOM     19  N   UNL     1       3.796   5.524  18.019  0.00  0.00    +0.000 N 
ATOM     20  H   UNL     1       3.587   5.424  17.025  0.00  0.00    +0.000 HD
BRANCH  19  21
ATOM     21  C   UNL     1       5.241   5.451  18.244  0.00  0.00    +0.000 C 
BRANCH  21  22
ATOM     22  C   UNL     1       6.010   5.551  16.918  0.00  0.00    +0.000 C 
BRANCH  22  23
ATOM     23  N   UNL     1       5.503   4.547  15.982  0.00  0.00    +0.000 N 
ATOM     24  C   UNL     1       6.149   4.560  14.733  0.00  0.00    +0.000 A 
ATOM     25  C   UNL     1       5.664   3.711  13.743  0.00  0.00    +0.000 A 
ATOM     26  C   UNL     1       6.292   3.676  12.501  0.00  0.00    +0.000 A 
ATOM     27  C   UNL     1       7.398   4.482  12.281  0.00  0.00    +0.000 A 
ATOM     28  C   UNL     1       7.828   5.287  13.321  0.00  0.00    +0.000 A 
ATOM     29  N   UNL     1       7.231   5.337  14.533  0.00  0.00    +0.000 NA
ATOM     30  H   UNL     1       4.502   4.630  15.831  0.00  0.00    +0.000 HD
ENDBRANCH  22  23
ENDBRANCH  21  22
ENDBRANCH  19  21
ENDBRANCH   2  19
BRANCH   9  31
ATOM     31  C   UNL     1      -0.575  10.959  21.991  0.00  0.00    +0.000 C 
ATOM     32  O   UNL     1      -0.382  11.316  23.144  0.00  0.00    +0.000 OA
BRANCH  31  33
ATOM     33  O   UNL     1      -1.469  11.570  21.188  0.00  0.00    +0.000 OA
ATOM     34  H   UNL     1      -2.008  12.265  21.633  0.00  0.00    +0.000 HD
ENDBRANCH  31  33
ENDBRANCH   9  31
TORSDOF 8
ENDMDL
MODEL 2
REMARK VINA RESULT:      -7.2      3.039      9.389
REMARK  Name = 
REMARK  9 active torsions:
REMARK  status: ('A' for Active; 'I' for Inactive)
REMARK    1  A    between atoms: C_1  and  O_2
REMARK    2  A    between atoms: O_2  and  C_3
REMARK    3  A    between atoms: C_4  and  N_5
REMARK    4  A    between atoms: N_5  and  C_6
REMARK    5  A    between atoms: C_6  and  C_7
REMARK    6  A    between atoms: C_7  and  N_8
REMARK    7  A    between atoms: C_17  and  N_18
REMARK    8  A    between atoms: C_22  and  C_23
REMARK    9  A    between atoms: C_23  and  O_25
REMARK                            x       y       z     vdW  Elec       q    Type
REMARK                         _______ _______ _______ _____ _____    ______ ____
ROOT
ATOM      1  C   UNL     1       2.649   7.355  18.923  0.00  0.00    +0.000 A 
ATOM      2  C   UNL     1       1.942   6.784  20.011  0.00  0.00    +0.000 A 
ATOM      3  C   UNL     1       2.204   5.422  20.306  0.00  0.00    +0.000 A 
ATOM      4  F   UNL     1       1.607   4.826  21.355  0.00  0.00    +0.000 F 
ATOM      5  C   UNL     1       3.014   4.596  19.516  0.00  0.00    +0.000 A 
ATOM      6  C   UNL     1       3.683   5.186  18.444  0.00  0.00    +0.000 A 
ATOM      7  C   UNL     1       4.546   4.368  17.550  0.00  0.00    +0.000 A 
ATOM      8  O   UNL     1       4.536   3.136  17.588  0.00  0.00    +0.000 OA
ATOM      9  C   UNL     1       5.425   5.060  16.584  0.00  0.00    +0.000 A 
ATOM     10  C   UNL     1       5.228   6.376  16.422  0.00  0.00    +0.000 A 
ATOM     11  N   UNL     1       4.279   7.108  17.088  0.00  0.00    +0.000 N 
ATOM     12  C   UNL     1       3.530   6.556  18.152  0.00  0.00    +0.000 A 
ATOM     13  H   UNL     1       4.192   8.110  16.930  0.00  0.00    +0.000 HD
ENDROOT
BRANCH   5  14
ATOM     14  N   UNL     1       3.303   3.288  19.959  0.00  0.00    +0.000 N 
ATOM     15  H   UNL     1       3.302   2.599  19.210  0.00  0.00    +0.000 HD
ATOM     16  H   UNL     1       4.142   3.243  20.545  0.00  0.00    +0.000 HD
ENDBRANCH   5  14
BRANCH   1  18
ATOM     17  C   UNL     1       1.349   9.025  17.763  0.00  0.00    +0.000 C 
ATOM     18  O   UNL     1       2.533   8.653  18.463  0.00  0.00    +0.000 OA
ENDBRANCH   1  18
BRANCH   2  19
ATOM     19  N   UNL     1       1.020   7.559  20.749  0.00  0.00    +0.000 N 
ATOM     20  H   UNL     1       0.364   6.924  21.206  0.00  0.00    +0.000 HD
BRANCH  19  21
ATOM     21  C   UNL     1       1.508   8.557  21.702  0.00  0.00    +0.000 C 
BRANCH  21  22
ATOM     22  C   UNL     1       0.925   9.944  21.392  0.00  0.00    +0.000 C 
BRANCH  22  23
ATOM     23  N   UNL     1      -0.378  10.084  22.044  0.00  0.00    +0.000 N 
ATOM     24  C   UNL     1      -0.709  11.412  22.368  0.00  0.00    +0.000 A 
ATOM     25  C   UNL     1      -1.882  11.632  23.084  0.00  0.00    +0.000 A 
ATOM     26  C   UNL     1      -2.258  12.934  23.402  0.00  0.00    +0.000 A 
ATOM     27  C   UNL     1      -1.459  13.988  22.986  0.00  0.00    +0.000 A 
ATOM     28  C   UNL     1      -0.316  13.687  22.266  0.00  0.00    +0.000 A 
ATOM     29  N   UNL     1       0.067  12.431  21.949  0.00  0.00    +0.000 NA
ATOM     30  H   UNL     1      -0.453   9.517  22.883  0.00  0.00    +0.000 HD
ENDBRANCH  22  23
ENDBRANCH  21  22
ENDBRANCH  19  21
ENDBRANCH   2  19
BRANCH   9  31
ATOM     31  C   UNL     1       6.462   4.349  15.798  0.00  0.00    +0.000 C 
ATOM     32  O   UNL     1       7.557   4.830  15.546  0.00  0.00    +0.000 OA
BRANCH  31  33
ATOM     33  O   UNL     1       6.104   3.116  15.386  0.00  0.00    +0.000 OA
ATOM     34  H   UNL     1       6.663   2.751  14.661  0.00  0.00    +0.000 HD
ENDBRANCH  31  33
ENDBRANCH   9  31
TORSDOF 8
ENDMDL
MODEL 3
REMARK VINA RESULT:      -7.2      3.112      8.520
REMARK  Name = 
REMARK  9 active torsions:
REMARK  status: ('A' for Active; 'I' for Inactive)
REMARK    1  A    between atoms: C_1  and  O_2
REMARK    2  A    between atoms: O_2  and  C_3
REMARK    3  A    between atoms: C_4  and  N_5
REMARK    4  A    between atoms: N_5  and  C_6
REMARK    5  A    between atoms: C_6  and  C_7
REMARK    6  A    between atoms: C_7  and  N_8
REMARK    7  A    between atoms: C_17  and  N_18
REMARK    8  A    between atoms: C_22  and  C_23
REMARK    9  A    between atoms: C_23  and  O_25
REMARK                            x       y       z     vdW  Elec       q    Type
REMARK                         _______ _______ _______ _____ _____    ______ ____
ROOT
ATOM      1  C   UNL     1       2.693   7.253  18.898  0.00  0.00    +0.000 A 
ATOM      2  C   UNL     1       2.033   6.609  19.975  0.00  0.00    +0.000 A 
ATOM      3  C   UNL     1       2.335   5.240  20.190  0.00  0.00    +0.000 A 
ATOM      4  F   UNL     1       1.785   4.576  21.223  0.00  0.00    +0.000 F 
ATOM      5  C   UNL     1       3.138   4.477  19.332  0.00  0.00    +0.000 A 
ATOM      6  C   UNL     1       3.759   5.137  18.274  0.00  0.00    +0.000 A 
ATOM      7  C   UNL     1       4.613   4.389  17.313  0.00  0.00    +0.000 A 
ATOM      8  O   UNL     1       4.632   3.157  17.286  0.00  0.00    +0.000 OA
ATOM      9  C   UNL     1       5.445   5.151  16.358  0.00  0.00    +0.000 A 
ATOM     10  C   UNL     1       5.213   6.468  16.273  0.00  0.00    +0.000 A 
ATOM     11  N   UNL     1       4.270   7.141  17.005  0.00  0.00    +0.000 N 
ATOM     12  C   UNL     1       3.567   6.517  18.060  0.00  0.00    +0.000 A 
ATOM     13  H   UNL     1       4.155   8.148  16.902  0.00  0.00    +0.000 HD
ENDROOT
BRANCH   5  14
ATOM     14  N   UNL     1       3.470   3.154  19.697  0.00  0.00    +0.000 N 
ATOM     15  H   UNL     1       4.458   3.030  19.907  0.00  0.00    +0.000 HD
ATOM     16  H   UNL     1       2.854   2.776  20.423  0.00  0.00    +0.000 HD
ENDBRANCH   5  14
BRANCH   1  18
ATOM     17  C   UNL     1       1.437   8.904  17.664  0.00  0.00    +0.000 C 
ATOM     18  O   UNL     1       2.533   8.570  18.511  0.00  0.00    +0.000 OA
ENDBRANCH   1  18
BRANCH   2  19
ATOM     19  N   UNL     1       1.118   7.321  20.780  0.00  0.00    +0.000 N 
ATOM     20  H   UNL     1       0.676   6.661  21.421  0.00  0.00    +0.000 HD
BRANCH  19  21
ATOM     21  C   UNL     1       1.562   8.513  21.506  0.00  0.00    +0.000 C 
BRANCH  21  22
ATOM     22  C   UNL     1       0.389   9.474  21.755  0.00  0.00    +0.000 C 
BRANCH  22  23
ATOM     23  N   UNL     1       0.735  10.807  21.261  0.00  0.00    +0.000 N 
ATOM     24  C   UNL     1      -0.012  11.207  20.139  0.00  0.00    +0.000 A 
ATOM     25  C   UNL     1       0.320  12.417  19.536  0.00  0.00    +0.000 A 
ATOM     26  C   UNL     1      -0.412  12.860  18.438  0.00  0.00    +0.000 A 
ATOM     27  C   UNL     1      -1.468  12.090  17.975  0.00  0.00    +0.000 A 
ATOM     28  C   UNL     1      -1.744  10.906  18.639  0.00  0.00    +0.000 A 
ATOM     29  N   UNL     1      -1.044  10.458  19.704  0.00  0.00    +0.000 NA
ATOM     30  H   UNL     1       1.723  10.893  21.040  0.00  0.00    +0.000 HD
ENDBRANCH  22  23
ENDBRANCH  21  22
ENDBRANCH  19  21
ENDBRANCH   2  19
BRANCH   9  31
ATOM     31  C   UNL     1       6.473   4.507  15.505  0.00  0.00    +0.000 C 
ATOM     32  O   UNL     1       7.620   4.920  15.412  0.00  0.00    +0.000 OA
BRANCH  31  33
ATOM     33  O   UNL     1       6.043   3.416  14.839  0.00  0.00    +0.000 OA
ATOM     34  H   UNL     1       6.380   3.344  13.916  0.00  0.00    +0.000 HD
ENDBRANCH  31  33
ENDBRANCH   9  31
TORSDOF 8
ENDMDL
MODEL 4
REMARK VINA RESULT:      -7.2      3.045      8.458
REMARK  Name = 
REMARK  9 active torsions:
REMARK  status: ('A' for Active; 'I' for Inactive)
REMARK    1  A    between atoms: C_1  and  O_2
REMARK    2  A    between atoms: O_2  and  C_3
REMARK    3  A    between atoms: C_4  and  N_5
REMARK    4  A    between atoms: N_5  and  C_6
REMARK    5  A    between atoms: C_6  and  C_7
REMARK    6  A    between atoms: C_7  and  N_8
REMARK    7  A    between atoms: C_17  and  N_18
REMARK    8  A    between atoms: C_22  and  C_23
REMARK    9  A    between atoms: C_23  and  O_25
REMARK                            x       y       z     vdW  Elec       q    Type
REMARK                         _______ _______ _______ _____ _____    ______ ____
ROOT
ATOM      1  C   UNL     1       2.682   7.339  18.920  0.00  0.00    +0.000 A 
ATOM      2  C   UNL     1       1.977   6.763  20.007  0.00  0.00    +0.000 A 
ATOM      3  C   UNL     1       2.227   5.395  20.285  0.00  0.00    +0.000 A 
ATOM      4  F   UNL     1       1.631   4.793  21.331  0.00  0.00    +0.000 F 
ATOM      5  C   UNL     1       3.025   4.571  19.481  0.00  0.00    +0.000 A 
ATOM      6  C   UNL     1       3.693   5.166  18.412  0.00  0.00    +0.000 A 
ATOM      7  C   UNL     1       4.544   4.351  17.504  0.00  0.00    +0.000 A 
ATOM      8  O   UNL     1       4.523   3.118  17.529  0.00  0.00    +0.000 OA
ATOM      9  C   UNL     1       5.423   5.044  16.540  0.00  0.00    +0.000 A 
ATOM     10  C   UNL     1       5.237   6.364  16.394  0.00  0.00    +0.000 A 
ATOM     11  N   UNL     1       4.299   7.097  17.074  0.00  0.00    +0.000 N 
ATOM     12  C   UNL     1       3.551   6.541  18.136  0.00  0.00    +0.000 A 
ATOM     13  H   UNL     1       4.220   8.102  16.927  0.00  0.00    +0.000 HD
ENDROOT
BRANCH   5  14
ATOM     14  N   UNL     1       3.304   3.255  19.908  0.00  0.00    +0.000 N 
ATOM     15  H   UNL     1       4.148   3.185  20.472  0.00  0.00    +0.000 HD
ATOM     16  H   UNL     1       2.495   2.796  20.337  0.00  0.00    +0.000 HD
ENDBRANCH   5  14
BRANCH   1  18
ATOM     17  C   UNL     1       1.499   8.981  17.604  0.00  0.00    +0.000 C 
ATOM     18  O   UNL     1       2.575   8.643  18.476  0.00  0.00    +0.000 OA
ENDBRANCH   1  18
BRANCH   2  19
ATOM     19  N   UNL     1       1.066   7.538  20.758  0.00  0.00    +0.000 N 
ATOM     20  H   UNL     1       0.375   6.909  21.169  0.00  0.00    +0.000 HD
BRANCH  19  21
ATOM     21  C   UNL     1       1.567   8.471  21.769  0.00  0.00    +0.000 C 
BRANCH  21  22
ATOM     22  C   UNL     1       0.813   9.808  21.705  0.00  0.00    +0.000 C 
BRANCH  22  23
ATOM     23  N   UNL     1      -0.276   9.710  20.732  0.00  0.00    +0.000 N 
ATOM     24  C   UNL     1      -0.395  10.837  19.900  0.00  0.00    +0.000 A 
ATOM     25  C   UNL     1      -1.468  10.878  19.014  0.00  0.00    +0.000 A 
ATOM     26  C   UNL     1      -1.607  11.965  18.155  0.00  0.00    +0.000 A 
ATOM     27  C   UNL     1      -0.663  12.980  18.192  0.00  0.00    +0.000 A 
ATOM     28  C   UNL     1       0.383  12.857  19.091  0.00  0.00    +0.000 A 
ATOM     29  N   UNL     1       0.534  11.812  19.934  0.00  0.00    +0.000 NA
ATOM     30  H   UNL     1      -1.174   9.536  21.175  0.00  0.00    +0.000 HD
ENDBRANCH  22  23
ENDBRANCH  21  22
ENDBRANCH  19  21
ENDBRANCH   2  19
BRANCH   9  31
ATOM     31  C   UNL     1       6.449   4.333  15.741  0.00  0.00    +0.000 C 
ATOM     32  O   UNL     1       6.186   3.686  14.737  0.00  0.00    +0.000 OA
BRANCH  31  33
ATOM     33  O   UNL     1       7.708   4.460  16.206  0.00  0.00    +0.000 OA
ATOM     34  H   UNL     1       7.872   4.005  17.065  0.00  0.00    +0.000 HD
ENDBRANCH  31  33
ENDBRANCH   9  31
TORSDOF 8
ENDMDL
MODEL 5
REMARK VINA RESULT:      -7.2      4.413      6.779
REMARK  Name = 
REMARK  9 active torsions:
REMARK  status: ('A' for Active; 'I' for Inactive)
REMARK    1  A    between atoms: C_1  and  O_2
REMARK    2  A    between atoms: O_2  and  C_3
REMARK    3  A    between atoms: C_4  and  N_5
REMARK    4  A    between atoms: N_5  and  C_6
REMARK    5  A    between atoms: C_6  and  C_7
REMARK    6  A    between atoms: C_7  and  N_8
REMARK    7  A    between atoms: C_17  and  N_18
REMARK    8  A    between atoms: C_22  and  C_23
REMARK    9  A    between atoms: C_23  and  O_25
REMARK                            x       y       z     vdW  Elec       q    Type
REMARK                         _______ _______ _______ _____ _____    ______ ____
ROOT
ATOM      1  C   UNL     1       5.833   5.330  17.987  0.00  0.00    +0.000 A 
ATOM      2  C   UNL     1       5.627   6.653  17.521  0.00  0.00    +0.000 A 
ATOM      3  C   UNL     1       4.419   7.290  17.901  0.00  0.00    +0.000 A 
ATOM      4  F   UNL     1       4.177   8.563  17.538  0.00  0.00    +0.000 F 
ATOM      5  C   UNL     1       3.385   6.647  18.594  0.00  0.00    +0.000 A 
ATOM      6  C   UNL     1       3.613   5.342  19.025  0.00  0.00    +0.000 A 
ATOM      7  C   UNL     1       2.556   4.589  19.752  0.00  0.00    +0.000 A 
ATOM      8  O   UNL     1       1.394   4.999  19.812  0.00  0.00    +0.000 OA
ATOM      9  C   UNL     1       2.911   3.311  20.402  0.00  0.00    +0.000 A 
ATOM     10  C   UNL     1       4.116   2.800  20.112  0.00  0.00    +0.000 A 
ATOM     11  N   UNL     1       5.024   3.381  19.264  0.00  0.00    +0.000 N 
ATOM     12  C   UNL     1       4.829   4.684  18.751  0.00  0.00    +0.000 A 
ATOM     13  H   UNL     1       5.930   2.948  19.098  0.00  0.00    +0.000 HD
ENDROOT
BRANCH   5  14
ATOM     14  N   UNL     1       2.273   7.402  19.026  0.00  0.00    +0.000 N 
ATOM     15  H   UNL     1       1.380   6.998  18.750  0.00  0.00    +0.000 HD
ATOM     16  H   UNL     1       2.317   7.639  20.022  0.00  0.00    +0.000 HD
ENDBRANCH   5  14
BRANCH   1  18
ATOM     17  C   UNL     1       7.205   4.178  16.369  0.00  0.00    +0.000 C 
ATOM     18  O   UNL     1       6.928   4.531  17.721  0.00  0.00    +0.000 OA
ENDBRANCH   1  18
BRANCH   2  19
ATOM     19  N   UNL     1       6.597   7.283  16.711  0.00  0.00    +0.000 N 
ATOM     20  H   UNL     1       6.144   8.046  16.205  0.00  0.00    +0.000 HD
BRANCH  19  21
ATOM     21  C   UNL     1       7.853   7.745  17.305  0.00  0.00    +0.000 C 
BRANCH  21  22
ATOM     22  C   UNL     1       7.730   9.195  17.795  0.00  0.00    +0.000 C 
BRANCH  22  23
ATOM     23  N   UNL     1       8.847   9.508  18.687  0.00  0.00    +0.000 N 
ATOM     24  C   UNL     1       9.326  10.823  18.554  0.00  0.00    +0.000 A 
ATOM     25  C   UNL     1      10.455  11.179  19.288  0.00  0.00    +0.000 A 
ATOM     26  C   UNL     1      10.946  12.479  19.204  0.00  0.00    +0.000 A 
ATOM     27  C   UNL     1      10.290  13.397  18.398  0.00  0.00    +0.000 A 
ATOM     28  C   UNL     1       9.166  12.969  17.713  0.00  0.00    +0.000 A 
ATOM     29  N   UNL     1       8.676  11.712  17.780  0.00  0.00    +0.000 NA
ATOM     30  H   UNL     1       9.625   8.865  18.571  0.00  0.00    +0.000 HD
ENDBRANCH  22  23
ENDBRANCH  21  22
ENDBRANCH  19  21
ENDBRANCH   2  19
BRANCH   9  31
ATOM     31  C   UNL     1       1.987   2.595  21.313  0.00  0.00    +0.000 C 
ATOM     32  O   UNL     1       2.352   2.046  22.343  0.00  0.00    +0.000 OA
BRANCH  31  33
ATOM     33  O   UNL     1       0.697   2.602  20.920  0.00  0.00    +0.000 OA
ATOM     34  H   UNL     1       0.099   2.048  21.474  0.00  0.00    +0.000 HD
ENDBRANCH  31  33
ENDBRANCH   9  31
TORSDOF 8
ENDMDL
MODEL 6
REMARK VINA RESULT:      -7.1      3.115      8.541
REMARK  Name = 
REMARK  9 active torsions:
REMARK  status: ('A' for Active; 'I' for Inactive)
REMARK    1  A    between atoms: C_1  and  O_2
REMARK    2  A    between atoms: O_2  and  C_3
REMARK    3  A    between atoms: C_4  and  N_5
REMARK    4  A    between atoms: N_5  and  C_6
REMARK    5  A    between atoms: C_6  and  C_7
REMARK    6  A    between atoms: C_7  and  N_8
REMARK    7  A    between atoms: C_17  and  N_18
REMARK    8  A    between atoms: C_22  and  C_23
REMARK    9  A    between atoms: C_23  and  O_25
REMARK                            x       y       z     vdW  Elec       q    Type
REMARK                         _______ _______ _______ _____ _____    ______ ____
ROOT
ATOM      1  C   UNL     1       2.694   7.315  18.876  0.00  0.00    +0.000 A 
ATOM      2  C   UNL     1       2.017   6.706  19.962  0.00  0.00    +0.000 A 
ATOM      3  C   UNL     1       2.301   5.340  20.215  0.00  0.00    +0.000 A 
ATOM      4  F   UNL     1       1.734   4.709  21.260  0.00  0.00    +0.000 F 
ATOM      5  C   UNL     1       3.104   4.546  19.386  0.00  0.00    +0.000 A 
ATOM      6  C   UNL     1       3.743   5.172  18.317  0.00  0.00    +0.000 A 
ATOM      7  C   UNL     1       4.597   4.390  17.384  0.00  0.00    +0.000 A 
ATOM      8  O   UNL     1       4.603   3.157  17.389  0.00  0.00    +0.000 OA
ATOM      9  C   UNL     1       5.447   5.118  16.418  0.00  0.00    +0.000 A 
ATOM     10  C   UNL     1       5.230   6.435  16.296  0.00  0.00    +0.000 A 
ATOM     11  N   UNL     1       4.288   7.137  17.001  0.00  0.00    +0.000 N 
ATOM     12  C   UNL     1       3.567   6.548  18.065  0.00  0.00    +0.000 A 
ATOM     13  H   UNL     1       4.185   8.142  16.872  0.00  0.00    +0.000 HD
ENDROOT
BRANCH   5  14
ATOM     14  N   UNL     1       3.418   3.230  19.788  0.00  0.00    +0.000 N 
ATOM     15  H   UNL     1       3.768   3.172  20.742  0.00  0.00    +0.000 HD
ATOM     16  H   UNL     1       2.662   2.565  19.596  0.00  0.00    +0.000 HD
ENDBRANCH   5  14
BRANCH   1  18
ATOM     17  C   UNL     1       1.415   8.967  17.666  0.00  0.00    +0.000 C 
ATOM     18  O   UNL     1       2.552   8.623  18.453  0.00  0.00    +0.000 OA
ENDBRANCH   1  18
BRANCH   2  19
ATOM     19  N   UNL     1       1.102   7.449  20.740  0.00  0.00    +0.000 N 
ATOM     20  H   UNL     1       0.480   6.793  21.214  0.00  0.00    +0.000 HD
BRANCH  19  21
ATOM     21  C   UNL     1       1.596   8.452  21.685  0.00  0.00    +0.000 C 
BRANCH  21  22
ATOM     22  C   UNL     1       0.505   9.482  22.015  0.00  0.00    +0.000 C 
BRANCH  22  23
ATOM     23  N   UNL     1      -0.121   9.946  20.776  0.00  0.00    +0.000 N 
ATOM     24  C   UNL     1       0.249  11.252  20.410  0.00  0.00    +0.000 A 
ATOM     25  C   UNL     1      -0.377  11.817  19.302  0.00  0.00    +0.000 A 
ATOM     26  C   UNL     1      -0.020  13.098  18.891  0.00  0.00    +0.000 A 
ATOM     27  C   UNL     1       0.964  13.781  19.589  0.00  0.00    +0.000 A 
ATOM     28  C   UNL     1       1.549  13.145  20.670  0.00  0.00    +0.000 A 
ATOM     29  N   UNL     1       1.215  11.903  21.086  0.00  0.00    +0.000 NA
ATOM     30  H   UNL     1      -1.135   9.894  20.813  0.00  0.00    +0.000 HD
ENDBRANCH  22  23
ENDBRANCH  21  22
ENDBRANCH  19  21
ENDBRANCH   2  19
BRANCH   9  31
ATOM     31  C   UNL     1       6.475   4.441  15.592  0.00  0.00    +0.000 C 
ATOM     32  O   UNL     1       7.643   4.801  15.549  0.00  0.00    +0.000 OA
BRANCH  31  33
ATOM     33  O   UNL     1       6.022   3.382  14.891  0.00  0.00    +0.000 OA
ATOM     34  H   UNL     1       6.106   3.475  13.914  0.00  0.00    +0.000 HD
ENDBRANCH  31  33
ENDBRANCH   9  31
TORSDOF 8
ENDMDL
MODEL 7
REMARK VINA RESULT:      -7.1      4.822      7.166
REMARK  Name = 
REMARK  9 active torsions:
REMARK  status: ('A' for Active; 'I' for Inactive)
REMARK    1  A    between atoms: C_1  and  O_2
REMARK    2  A    between atoms: O_2  and  C_3
REMARK    3  A    between atoms: C_4  and  N_5
REMARK    4  A    between atoms: N_5  and  C_6
REMARK    5  A    between atoms: C_6  and  C_7
REMARK    6  A    between atoms: C_7  and  N_8
REMARK    7  A    between atoms: C_17  and  N_18
REMARK    8  A    between atoms: C_22  and  C_23
REMARK    9  A    between atoms: C_23  and  O_25
REMARK                            x       y       z     vdW  Elec       q    Type
REMARK                         _______ _______ _______ _____ _____    ______ ____
ROOT
ATOM      1  C   UNL     1       6.362   5.408  18.243  0.00  0.00    +0.000 A 
ATOM      2  C   UNL     1       6.186   6.676  17.634  0.00  0.00    +0.000 A 
ATOM      3  C   UNL     1       4.855   7.137  17.477  0.00  0.00    +0.000 A 
ATOM      4  F   UNL     1       4.613   8.352  16.953  0.00  0.00    +0.000 F 
ATOM      5  C   UNL     1       3.724   6.365  17.774  0.00  0.00    +0.000 A 
ATOM      6  C   UNL     1       3.932   5.116  18.357  0.00  0.00    +0.000 A 
ATOM      7  C   UNL     1       2.781   4.233  18.684  0.00  0.00    +0.000 A 
ATOM      8  O   UNL     1       1.644   4.469  18.268  0.00  0.00    +0.000 OA
ATOM      9  C   UNL     1       3.017   3.035  19.517  0.00  0.00    +0.000 A 
ATOM     10  C   UNL     1       4.295   2.701  19.746  0.00  0.00    +0.000 A 
ATOM     11  N   UNL     1       5.377   3.390  19.264  0.00  0.00    +0.000 N 
ATOM     12  C   UNL     1       5.232   4.639  18.617  0.00  0.00    +0.000 A 
ATOM     13  H   UNL     1       6.324   3.091  19.488  0.00  0.00    +0.000 HD
ENDROOT
BRANCH   5  14
ATOM     14  N   UNL     1       2.445   6.957  17.692  0.00  0.00    +0.000 N 
ATOM     15  H   UNL     1       2.184   7.468  18.532  0.00  0.00    +0.000 HD
ATOM     16  H   UNL     1       2.314   7.500  16.833  0.00  0.00    +0.000 HD
ENDBRANCH   5  14
BRANCH   1  18
ATOM     17  C   UNL     1       8.309   5.121  19.642  0.00  0.00    +0.000 C 
ATOM     18  O   UNL     1       7.567   4.773  18.476  0.00  0.00    +0.000 OA
ENDBRANCH   1  18
BRANCH   2  19
ATOM     19  N   UNL     1       7.306   7.424  17.207  0.00  0.00    +0.000 N 
ATOM     20  H   UNL     1       6.978   8.156  16.575  0.00  0.00    +0.000 HD
BRANCH  19  21
ATOM     21  C   UNL     1       8.228   7.983  18.197  0.00  0.00    +0.000 C 
BRANCH  21  22
ATOM     22  C   UNL     1       8.360   9.504  18.028  0.00  0.00    +0.000 C 
BRANCH  22  23
ATOM     23  N   UNL     1       8.928  10.085  19.245  0.00  0.00    +0.000 N 
ATOM     24  C   UNL     1       9.983  10.983  19.005  0.00  0.00    +0.000 A 
ATOM     25  C   UNL     1      10.654  11.505  20.108  0.00  0.00    +0.000 A 
ATOM     26  C   UNL     1      11.687  12.417  19.913  0.00  0.00    +0.000 A 
ATOM     27  C   UNL     1      12.018  12.797  18.622  0.00  0.00    +0.000 A 
ATOM     28  C   UNL     1      11.293  12.244  17.580  0.00  0.00    +0.000 A 
ATOM     29  N   UNL     1      10.289  11.356  17.748  0.00  0.00    +0.000 NA
ATOM     30  H   UNL     1       9.248   9.375  19.899  0.00  0.00    +0.000 HD
ENDBRANCH  22  23
ENDBRANCH  21  22
ENDBRANCH  19  21
ENDBRANCH   2  19
BRANCH   9  31
ATOM     31  C   UNL     1       1.911   2.212  20.061  0.00  0.00    +0.000 C 
ATOM     32  O   UNL     1       1.587   2.221  21.240  0.00  0.00    +0.000 OA
BRANCH  31  33
ATOM     33  O   UNL     1       1.278   1.450  19.146  0.00  0.00    +0.000 OA
ATOM     34  H   UNL     1       1.867   1.080  18.447  0.00  0.00    +0.000 HD
ENDBRANCH  31  33
ENDBRANCH   9  31
TORSDOF 8
ENDMDL
MODEL 8
REMARK VINA RESULT:      -7.0      1.855      2.569
REMARK  Name = 
REMARK  9 active torsions:
REMARK  status: ('A' for Active; 'I' for Inactive)
REMARK    1  A    between atoms: C_1  and  O_2
REMARK    2  A    between atoms: O_2  and  C_3
REMARK    3  A    between atoms: C_4  and  N_5
REMARK    4  A    between atoms: N_5  and  C_6
REMARK    5  A    between atoms: C_6  and  C_7
REMARK    6  A    between atoms: C_7  and  N_8
REMARK    7  A    between atoms: C_17  and  N_18
REMARK    8  A    between atoms: C_22  and  C_23
REMARK    9  A    between atoms: C_23  and  O_25
REMARK                            x       y       z     vdW  Elec       q    Type
REMARK                         _______ _______ _______ _____ _____    ______ ____
ROOT
ATOM      1  C   UNL     1       2.112   6.658  20.241  0.00  0.00    +0.000 A 
ATOM      2  C   UNL     1       2.783   6.595  18.994  0.00  0.00    +0.000 A 
ATOM      3  C   UNL     1       2.702   7.739  18.160  0.00  0.00    +0.000 A 
ATOM      4  F   UNL     1       3.354   7.771  16.983  0.00  0.00    +0.000 F 
ATOM      5  C   UNL     1       1.905   8.855  18.445  0.00  0.00    +0.000 A 
ATOM      6  C   UNL     1       1.246   8.879  19.673  0.00  0.00    +0.000 A 
ATOM      7  C   UNL     1       0.369  10.023  20.039  0.00  0.00    +0.000 A 
ATOM      8  O   UNL     1       0.028  10.869  19.209  0.00  0.00    +0.000 OA
ATOM      9  C   UNL     1      -0.114  10.133  21.431  0.00  0.00    +0.000 A 
ATOM     10  C   UNL     1       0.092   9.074  22.227  0.00  0.00    +0.000 A 
ATOM     11  N   UNL     1       0.713   7.917  21.836  0.00  0.00    +0.000 N 
ATOM     12  C   UNL     1       1.358   7.808  20.583  0.00  0.00    +0.000 A 
ATOM     13  H   UNL     1       0.851   7.154  22.497  0.00  0.00    +0.000 HD
ENDROOT
BRANCH   5  14
ATOM     14  N   UNL     1       1.983   9.989  17.608  0.00  0.00    +0.000 N 
ATOM     15  H   UNL     1       2.915  10.146  17.229  0.00  0.00    +0.000 HD
ATOM     16  H   UNL     1       1.250  10.006  16.893  0.00  0.00    +0.000 HD
ENDBRANCH   5  14
BRANCH   1  18
ATOM     17  C   UNL     1       1.369   4.448  20.867  0.00  0.00    +0.000 C 
ATOM     18  O   UNL     1       2.054   5.656  21.190  0.00  0.00    +0.000 OA
ENDBRANCH   1  18
BRANCH   2  19
ATOM     19  N   UNL     1       3.490   5.431  18.622  0.00  0.00    +0.000 N 
ATOM     20  H   UNL     1       3.466   4.779  19.407  0.00  0.00    +0.000 HD
BRANCH  19  21
ATOM     21  C   UNL     1       3.148   4.739  17.377  0.00  0.00    +0.000 C 
BRANCH  21  22
ATOM     22  C   UNL     1       4.415   4.314  16.619  0.00  0.00    +0.000 C 
BRANCH  22  23
ATOM     23  N   UNL     1       5.157   5.503  16.199  0.00  0.00    +0.000 N 
ATOM     24  C   UNL     1       6.142   5.909  17.117  0.00  0.00    +0.000 A 
ATOM     25  C   UNL     1       6.828   7.091  16.852  0.00  0.00    +0.000 A 
ATOM     26  C   UNL     1       7.828   7.514  17.723  0.00  0.00    +0.000 A 
ATOM     27  C   UNL     1       8.129   6.740  18.833  0.00  0.00    +0.000 A 
ATOM     28  C   UNL     1       7.412   5.570  19.018  0.00  0.00    +0.000 A 
ATOM     29  N   UNL     1       6.437   5.143  18.186  0.00  0.00    +0.000 NA
ATOM     30  H   UNL     1       4.546   6.292  16.008  0.00  0.00    +0.000 HD
ENDBRANCH  22  23
ENDBRANCH  21  22
ENDBRANCH  19  21
ENDBRANCH   2  19
BRANCH   9  31
ATOM     31  C   UNL     1      -0.819  11.334  21.939  0.00  0.00    +0.000 C 
ATOM     32  O   UNL     1      -0.611  11.817  23.043  0.00  0.00    +0.000 OA
BRANCH  31  33
ATOM     33  O   UNL     1      -1.711  11.865  21.078  0.00  0.00    +0.000 OA
ATOM     34  H   UNL     1      -2.648  11.618  21.260  0.00  0.00    +0.000 HD
ENDBRANCH  31  33
ENDBRANCH   9  31
TORSDOF 8
ENDMDL
MODEL 9
REMARK VINA RESULT:      -7.0      1.051      1.529
REMARK  Name = 
REMARK  9 active torsions:
REMARK  status: ('A' for Active; 'I' for Inactive)
REMARK    1  A    between atoms: C_1  and  O_2
REMARK    2  A    between atoms: O_2  and  C_3
REMARK    3  A    between atoms: C_4  and  N_5
REMARK    4  A    between atoms: N_5  and  C_6
REMARK    5  A    between atoms: C_6  and  C_7
REMARK    6  A    between atoms: C_7  and  N_8
REMARK    7  A    between atoms: C_17  and  N_18
REMARK    8  A    between atoms: C_22  and  C_23
REMARK    9  A    between atoms: C_23  and  O_25
REMARK                            x       y       z     vdW  Elec       q    Type
REMARK                         _______ _______ _______ _____ _____    ______ ____
ROOT
ATOM      1  C   UNL     1       1.988   6.838  20.164  0.00  0.00    +0.000 A 
ATOM      2  C   UNL     1       2.697   6.809  18.936  0.00  0.00    +0.000 A 
ATOM      3  C   UNL     1       2.662   7.983  18.143  0.00  0.00    +0.000 A 
ATOM      4  F   UNL     1       3.352   8.046  16.989  0.00  0.00    +0.000 F 
ATOM      5  C   UNL     1       1.877   9.103  18.446  0.00  0.00    +0.000 A 
ATOM      6  C   UNL     1       1.180   9.094  19.652  0.00  0.00    +0.000 A 
ATOM      7  C   UNL     1       0.312  10.241  20.033  0.00  0.00    +0.000 A 
ATOM      8  O   UNL     1       0.012  11.123  19.225  0.00  0.00    +0.000 OA
ATOM      9  C   UNL     1      -0.213  10.309  21.413  0.00  0.00    +0.000 A 
ATOM     10  C   UNL     1      -0.051   9.217  22.175  0.00  0.00    +0.000 A 
ATOM     11  N   UNL     1       0.561   8.063  21.760  0.00  0.00    +0.000 N 
ATOM     12  C   UNL     1       1.244   7.989  20.524  0.00  0.00    +0.000 A 
ATOM     13  H   UNL     1       0.665   7.274  22.396  0.00  0.00    +0.000 HD
ENDROOT
BRANCH   5  14
ATOM     14  N   UNL     1       2.002  10.266  17.654  0.00  0.00    +0.000 N 
ATOM     15  H   UNL     1       1.410  10.255  16.826  0.00  0.00    +0.000 HD
ATOM     16  H   UNL     1       1.916  11.129  18.199  0.00  0.00    +0.000 HD
ENDBRANCH   5  14
BRANCH   1  18
ATOM     17  C   UNL     1       1.182   4.623  20.685  0.00  0.00    +0.000 C 
ATOM     18  O   UNL     1       1.882   5.803  21.072  0.00  0.00    +0.000 OA
ENDBRANCH   1  18
BRANCH   2  19
ATOM     19  N   UNL     1       3.394   5.645  18.543  0.00  0.00    +0.000 N 
ATOM     20  H   UNL     1       3.778   5.804  17.610  0.00  0.00    +0.000 HD
BRANCH  19  21
ATOM     21  C   UNL     1       4.417   5.078  19.423  0.00  0.00    +0.000 C 
BRANCH  21  22
ATOM     22  C   UNL     1       5.069   3.842  18.784  0.00  0.00    +0.000 C 
BRANCH  22  23
ATOM     23  N   UNL     1       6.321   4.231  18.134  0.00  0.00    +0.000 N 
ATOM     24  C   UNL     1       6.223   4.341  16.736  0.00  0.00    +0.000 A 
ATOM     25  C   UNL     1       7.389   4.604  16.022  0.00  0.00    +0.000 A 
ATOM     26  C   UNL     1       7.330   4.746  14.639  0.00  0.00    +0.000 A 
ATOM     27  C   UNL     1       6.104   4.635  14.001  0.00  0.00    +0.000 A 
ATOM     28  C   UNL     1       4.989   4.388  14.783  0.00  0.00    +0.000 A 
ATOM     29  N   UNL     1       5.026   4.245  16.126  0.00  0.00    +0.000 NA
ATOM     30  H   UNL     1       7.084   3.598  18.357  0.00  0.00    +0.000 HD
ENDBRANCH  22  23
ENDBRANCH  21  22
ENDBRANCH  19  21
ENDBRANCH   2  19
BRANCH   9  31
ATOM     31  C   UNL     1      -0.912  11.504  21.943  0.00  0.00    +0.000 C 
ATOM     32  O   UNL     1      -0.651  12.007  23.026  0.00  0.00    +0.000 OA
BRANCH  31  33
ATOM     33  O   UNL     1      -1.862  12.003  21.127  0.00  0.00    +0.000 OA
ATOM     34  H   UNL     1      -1.757  11.755  20.179  0.00  0.00    +0.000 HD
ENDBRANCH  31  33
ENDBRANCH   9  31
TORSDOF 8
ENDMDL
