MODEL 1
REMARK VINA RESULT:      -6.5      0.000      0.000
REMARK  Name = 
REMARK  5 active torsions:
REMARK  status: ('A' for Active; 'I' for Inactive)
REMARK    1  A    between atoms: C_1  and  C_2
REMARK    2  A    between atoms: C_3  and  O_4
REMARK    3  A    between atoms: C_5  and  O_6
REMARK    4  A    between atoms: C_7  and  C_8
REMARK    5  A    between atoms: N_14  and  C_15
REMARK                            x       y       z     vdW  Elec       q    Type
REMARK                         _______ _______ _______ _____ _____    ______ ____
ROOT
ATOM      1  C   UNL     1       0.523   3.201  19.523  0.00  0.00    +0.000 C 
ATOM      2  C   UNL     1       1.944   3.404  18.996  0.00  0.00    +0.000 C 
ATOM      3  C   UNL     1       2.813   2.141  19.113  0.00  0.00    +0.000 C 
ATOM      4  C   UNL     1       4.255   2.661  19.266  0.00  0.00    +0.000 C 
ATOM      5  C   UNL     1       4.144   4.209  19.263  0.00  0.00    +0.000 C 
ATOM      6  N   UNL     1       2.725   4.497  19.614  0.00  0.00    +0.000 NA
ATOM      7  C   UNL     1       2.530   4.657  21.051  0.00  0.00    +0.000 C 
ENDROOT
BRANCH   5   8
ATOM      8  C   UNL     1       4.555   4.815  17.912  0.00  0.00    +0.000 A 
ATOM      9  C   UNL     1       4.999   4.017  16.840  0.00  0.00    +0.000 A 
ATOM     10  C   UNL     1       5.398   4.582  15.630  0.00  0.00    +0.000 A 
ATOM     11  C   UNL     1       5.335   5.959  15.449  0.00  0.00    +0.000 A 
ATOM     12  C   UNL     1       4.861   6.767  16.478  0.00  0.00    +0.000 A 
ATOM     13  C   UNL     1       4.468   6.202  17.697  0.00  0.00    +0.000 A 
ENDBRANCH   5   8
BRANCH   3  14
ATOM     14  O   UNL     1       2.669   1.312  17.957  0.00  0.00    +0.000 OA
ATOM     15  H   UNL     1       2.887   1.843  17.169  0.00  0.00    +0.000 HD
ENDBRANCH   3  14
BRANCH   4  16
ATOM     16  O   UNL     1       4.841   2.188  20.491  0.00  0.00    +0.000 OA
ATOM     17  H   UNL     1       4.179   1.664  20.965  0.00  0.00    +0.000 HD
ENDBRANCH   4  16
TORSDOF 3
ENDMDL
MODEL 2
REMARK VINA RESULT:      -6.5      0.127      1.249
REMARK  Name = 
REMARK  5 active torsions:
REMARK  status: ('A' for Active; 'I' for Inactive)
REMARK    1  A    between atoms: C_1  and  C_2
REMARK    2  A    between atoms: C_3  and  O_4
REMARK    3  A    between atoms: C_5  and  O_6
REMARK    4  A    between atoms: C_7  and  C_8
REMARK    5  A    between atoms: N_14  and  C_15
REMARK                            x       y       z     vdW  Elec       q    Type
REMARK                         _______ _______ _______ _____ _____    ______ ____
ROOT
ATOM      1  C   UNL     1       0.562   3.010  19.353  0.00  0.00    +0.000 C 
ATOM      2  C   UNL     1       1.992   3.296  18.893  0.00  0.00    +0.000 C 
ATOM      3  C   UNL     1       2.927   2.086  19.052  0.00  0.00    +0.000 C 
ATOM      4  C   UNL     1       4.328   2.689  19.272  0.00  0.00    +0.000 C 
ATOM      5  C   UNL     1       4.127   4.229  19.261  0.00  0.00    +0.000 C 
ATOM      6  N   UNL     1       2.678   4.432  19.545  0.00  0.00    +0.000 NA
ATOM      7  C   UNL     1       2.407   4.579  20.972  0.00  0.00    +0.000 C 
ENDROOT
BRANCH   5   8
ATOM      8  C   UNL     1       4.564   4.860  17.931  0.00  0.00    +0.000 A 
ATOM      9  C   UNL     1       4.506   6.250  17.710  0.00  0.00    +0.000 A 
ATOM     10  C   UNL     1       4.877   6.807  16.486  0.00  0.00    +0.000 A 
ATOM     11  C   UNL     1       5.342   5.992  15.462  0.00  0.00    +0.000 A 
ATOM     12  C   UNL     1       5.448   4.619  15.668  0.00  0.00    +0.000 A 
ATOM     13  C   UNL     1       5.068   4.057  16.892  0.00  0.00    +0.000 A 
ENDBRANCH   5   8
BRANCH   3  14
ATOM     14  O   UNL     1       2.887   1.252  17.892  0.00  0.00    +0.000 OA
ATOM     15  H   UNL     1       1.953   1.087  17.665  0.00  0.00    +0.000 HD
ENDBRANCH   3  14
BRANCH   4  16
ATOM     16  O   UNL     1       4.882   2.250  20.523  0.00  0.00    +0.000 OA
ATOM     17  H   UNL     1       5.172   3.028  21.020  0.00  0.00    +0.000 HD
ENDBRANCH   4  16
TORSDOF 3
ENDMDL
MODEL 3
REMARK VINA RESULT:      -6.4      1.588      2.030
REMARK  Name = 
REMARK  5 active torsions:
REMARK  status: ('A' for Active; 'I' for Inactive)
REMARK    1  A    between atoms: C_1  and  C_2
REMARK    2  A    between atoms: C_3  and  O_4
REMARK    3  A    between atoms: C_5  and  O_6
REMARK    4  A    between atoms: C_7  and  C_8
REMARK    5  A    between atoms: N_14  and  C_15
REMARK                            x       y       z     vdW  Elec       q    Type
REMARK                         _______ _______ _______ _____ _____    ______ ____
ROOT
ATOM      1  C   UNL     1       1.008   4.438  20.509  0.00  0.00    +0.000 C 
ATOM      2  C   UNL     1       2.117   4.295  19.467  0.00  0.00    +0.000 C 
ATOM      3  C   UNL     1       1.697   3.445  18.256  0.00  0.00    +0.000 C 
ATOM      4  C   UNL     1       3.002   2.807  17.743  0.00  0.00    +0.000 C 
ATOM      5  C   UNL     1       4.115   3.296  18.709  0.00  0.00    +0.000 C 
ATOM      6  N   UNL     1       3.397   3.726  19.942  0.00  0.00    +0.000 NA
ATOM      7  C   UNL     1       3.267   2.645  20.914  0.00  0.00    +0.000 C 
ENDROOT
BRANCH   5   8
ATOM      8  C   UNL     1       4.960   4.422  18.093  0.00  0.00    +0.000 A 
ATOM      9  C   UNL     1       4.718   4.913  16.795  0.00  0.00    +0.000 A 
ATOM     10  C   UNL     1       5.512   5.913  16.237  0.00  0.00    +0.000 A 
ATOM     11  C   UNL     1       6.551   6.471  16.972  0.00  0.00    +0.000 A 
ATOM     12  C   UNL     1       6.786   6.033  18.273  0.00  0.00    +0.000 A 
ATOM     13  C   UNL     1       5.995   5.022  18.832  0.00  0.00    +0.000 A 
ENDBRANCH   5   8
BRANCH   3  14
ATOM     14  O   UNL     1       1.074   4.253  17.255  0.00  0.00    +0.000 OA
ATOM     15  H   UNL     1       1.750   4.506  16.600  0.00  0.00    +0.000 HD
ENDBRANCH   3  14
BRANCH   4  16
ATOM     16  O   UNL     1       2.906   1.372  17.751  0.00  0.00    +0.000 OA
ATOM     17  H   UNL     1       2.073   1.123  18.177  0.00  0.00    +0.000 HD
ENDBRANCH   4  16
TORSDOF 3
ENDMDL
MODEL 4
REMARK VINA RESULT:      -6.4      1.586      2.143
REMARK  Name = 
REMARK  5 active torsions:
REMARK  status: ('A' for Active; 'I' for Inactive)
REMARK    1  A    between atoms: C_1  and  C_2
REMARK    2  A    between atoms: C_3  and  O_4
REMARK    3  A    between atoms: C_5  and  O_6
REMARK    4  A    between atoms: C_7  and  C_8
REMARK    5  A    between atoms: N_14  and  C_15
REMARK                            x       y       z     vdW  Elec       q    Type
REMARK                         _______ _______ _______ _____ _____    ______ ____
ROOT
ATOM      1  C   UNL     1       1.049   4.555  20.510  0.00  0.00    +0.000 C 
ATOM      2  C   UNL     1       2.144   4.356  19.462  0.00  0.00    +0.000 C 
ATOM      3  C   UNL     1       1.683   3.511  18.264  0.00  0.00    +0.000 C 
ATOM      4  C   UNL     1       2.958   2.816  17.750  0.00  0.00    +0.000 C 
ATOM      5  C   UNL     1       4.096   3.271  18.703  0.00  0.00    +0.000 C 
ATOM      6  N   UNL     1       3.404   3.742  19.936  0.00  0.00    +0.000 NA
ATOM      7  C   UNL     1       3.238   2.678  20.920  0.00  0.00    +0.000 C 
ENDROOT
BRANCH   5   8
ATOM      8  C   UNL     1       4.981   4.356  18.070  0.00  0.00    +0.000 A 
ATOM      9  C   UNL     1       5.999   5.005  18.796  0.00  0.00    +0.000 A 
ATOM     10  C   UNL     1       6.775   6.010  18.218  0.00  0.00    +0.000 A 
ATOM     11  C   UNL     1       6.573   6.371  16.892  0.00  0.00    +0.000 A 
ATOM     12  C   UNL     1       5.601   5.717  16.140  0.00  0.00    +0.000 A 
ATOM     13  C   UNL     1       4.815   4.714  16.721  0.00  0.00    +0.000 A 
ENDBRANCH   5   8
BRANCH   3  14
ATOM     14  O   UNL     1       1.086   4.333  17.258  0.00  0.00    +0.000 OA
ATOM     15  H   UNL     1       0.698   5.115  17.691  0.00  0.00    +0.000 HD
ENDBRANCH   3  14
BRANCH   4  16
ATOM     16  O   UNL     1       2.806   1.387  17.774  0.00  0.00    +0.000 OA
ATOM     17  H   UNL     1       2.943   1.049  16.877  0.00  0.00    +0.000 HD
ENDBRANCH   4  16
TORSDOF 3
ENDMDL
MODEL 5
REMARK VINA RESULT:      -6.4      2.439      4.927
REMARK  Name = 
REMARK  5 active torsions:
REMARK  status: ('A' for Active; 'I' for Inactive)
REMARK    1  A    between atoms: C_1  and  C_2
REMARK    2  A    between atoms: C_3  and  O_4
REMARK    3  A    between atoms: C_5  and  O_6
REMARK    4  A    between atoms: C_7  and  C_8
REMARK    5  A    between atoms: N_14  and  C_15
REMARK                            x       y       z     vdW  Elec       q    Type
REMARK                         _______ _______ _______ _____ _____    ______ ____
ROOT
ATOM      1  C   UNL     1       7.131   7.091  17.462  0.00  0.00    +0.000 C 
ATOM      2  C   UNL     1       6.268   5.835  17.348  0.00  0.00    +0.000 C 
ATOM      3  C   UNL     1       7.041   4.623  16.803  0.00  0.00    +0.000 C 
ATOM      4  C   UNL     1       5.983   3.764  16.083  0.00  0.00    +0.000 C 
ATOM      5  C   UNL     1       4.648   4.544  16.219  0.00  0.00    +0.000 C 
ATOM      6  N   UNL     1       5.048   5.948  16.520  0.00  0.00    +0.000 NA
ATOM      7  C   UNL     1       5.196   6.753  15.312  0.00  0.00    +0.000 C 
ENDROOT
BRANCH   5   8
ATOM      8  C   UNL     1       3.736   3.944  17.301  0.00  0.00    +0.000 A 
ATOM      9  C   UNL     1       3.955   2.658  17.831  0.00  0.00    +0.000 A 
ATOM     10  C   UNL     1       3.102   2.113  18.790  0.00  0.00    +0.000 A 
ATOM     11  C   UNL     1       2.025   2.851  19.266  0.00  0.00    +0.000 A 
ATOM     12  C   UNL     1       1.810   4.141  18.788  0.00  0.00    +0.000 A 
ATOM     13  C   UNL     1       2.660   4.686  17.819  0.00  0.00    +0.000 A 
ENDBRANCH   5   8
BRANCH   3  14
ATOM     14  O   UNL     1       7.675   3.902  17.862  0.00  0.00    +0.000 OA
ATOM     15  H   UNL     1       7.879   3.004  17.543  0.00  0.00    +0.000 HD
ENDBRANCH   3  14
BRANCH   4  16
ATOM     16  O   UNL     1       6.332   3.577  14.701  0.00  0.00    +0.000 OA
ATOM     17  H   UNL     1       5.575   3.835  14.156  0.00  0.00    +0.000 HD
ENDBRANCH   4  16
TORSDOF 3
ENDMDL
MODEL 6
REMARK VINA RESULT:      -6.4      1.697      2.420
REMARK  Name = 
REMARK  5 active torsions:
REMARK  status: ('A' for Active; 'I' for Inactive)
REMARK    1  A    between atoms: C_1  and  C_2
REMARK    2  A    between atoms: C_3  and  O_4
REMARK    3  A    between atoms: C_5  and  O_6
REMARK    4  A    between atoms: C_7  and  C_8
REMARK    5  A    between atoms: N_14  and  C_15
REMARK                            x       y       z     vdW  Elec       q    Type
REMARK                         _______ _______ _______ _____ _____    ______ ____
ROOT
ATOM      1  C   UNL     1       2.344   1.683  18.551  0.00  0.00    +0.000 C 
ATOM      2  C   UNL     1       3.364   2.774  18.222  0.00  0.00    +0.000 C 
ATOM      3  C   UNL     1       4.035   3.365  19.472  0.00  0.00    +0.000 C 
ATOM      4  C   UNL     1       4.396   4.812  19.085  0.00  0.00    +0.000 C 
ATOM      5  C   UNL     1       3.883   4.997  17.632  0.00  0.00    +0.000 C 
ATOM      6  N   UNL     1       2.865   3.926  17.441  0.00  0.00    +0.000 NA
ATOM      7  C   UNL     1       1.520   4.371  17.790  0.00  0.00    +0.000 C 
ENDROOT
BRANCH   5   8
ATOM      8  C   UNL     1       5.022   4.922  16.603  0.00  0.00    +0.000 A 
ATOM      9  C   UNL     1       4.824   4.404  15.308  0.00  0.00    +0.000 A 
ATOM     10  C   UNL     1       5.874   4.313  14.394  0.00  0.00    +0.000 A 
ATOM     11  C   UNL     1       7.141   4.764  14.741  0.00  0.00    +0.000 A 
ATOM     12  C   UNL     1       7.354   5.319  16.000  0.00  0.00    +0.000 A 
ATOM     13  C   UNL     1       6.304   5.403  16.922  0.00  0.00    +0.000 A 
ENDBRANCH   5   8
BRANCH   3  14
ATOM     14  O   UNL     1       5.193   2.611  19.837  0.00  0.00    +0.000 OA
ATOM     15  H   UNL     1       4.902   1.823  20.333  0.00  0.00    +0.000 HD
ENDBRANCH   3  14
BRANCH   4  16
ATOM     16  O   UNL     1       3.770   5.751  19.977  0.00  0.00    +0.000 OA
ATOM     17  H   UNL     1       2.957   5.352  20.320  0.00  0.00    +0.000 HD
ENDBRANCH   4  16
TORSDOF 3
ENDMDL
MODEL 7
REMARK VINA RESULT:      -6.4      2.433      5.062
REMARK  Name = 
REMARK  5 active torsions:
REMARK  status: ('A' for Active; 'I' for Inactive)
REMARK    1  A    between atoms: C_1  and  C_2
REMARK    2  A    between atoms: C_3  and  O_4
REMARK    3  A    between atoms: C_5  and  O_6
REMARK    4  A    between atoms: C_7  and  C_8
REMARK    5  A    between atoms: N_14  and  C_15
REMARK                            x       y       z     vdW  Elec       q    Type
REMARK                         _______ _______ _______ _____ _____    ______ ____
ROOT
ATOM      1  C   UNL     1       7.127   7.093  17.458  0.00  0.00    +0.000 C 
ATOM      2  C   UNL     1       6.259   5.839  17.349  0.00  0.00    +0.000 C 
ATOM      3  C   UNL     1       7.026   4.624  16.801  0.00  0.00    +0.000 C 
ATOM      4  C   UNL     1       5.962   3.769  16.086  0.00  0.00    +0.000 C 
ATOM      5  C   UNL     1       4.630   4.552  16.229  0.00  0.00    +0.000 C 
ATOM      6  N   UNL     1       5.035   5.955  16.526  0.00  0.00    +0.000 NA
ATOM      7  C   UNL     1       5.180   6.759  15.317  0.00  0.00    +0.000 C 
ENDROOT
BRANCH   5   8
ATOM      8  C   UNL     1       3.722   3.956  17.315  0.00  0.00    +0.000 A 
ATOM      9  C   UNL     1       2.630   4.668  17.849  0.00  0.00    +0.000 A 
ATOM     10  C   UNL     1       1.833   4.127  18.857  0.00  0.00    +0.000 A 
ATOM     11  C   UNL     1       2.088   2.848  19.336  0.00  0.00    +0.000 A 
ATOM     12  C   UNL     1       3.135   2.106  18.797  0.00  0.00    +0.000 A 
ATOM     13  C   UNL     1       3.942   2.651  17.791  0.00  0.00    +0.000 A 
ENDBRANCH   5   8
BRANCH   3  14
ATOM     14  O   UNL     1       7.663   3.902  17.857  0.00  0.00    +0.000 OA
ATOM     15  H   UNL     1       7.315   4.229  18.707  0.00  0.00    +0.000 HD
ENDBRANCH   3  14
BRANCH   4  16
ATOM     16  O   UNL     1       6.304   3.580  14.702  0.00  0.00    +0.000 OA
ATOM     17  H   UNL     1       5.493   3.632  14.176  0.00  0.00    +0.000 HD
ENDBRANCH   4  16
TORSDOF 3
ENDMDL
MODEL 8
REMARK VINA RESULT:      -6.4      1.703      2.550
REMARK  Name = 
REMARK  5 active torsions:
REMARK  status: ('A' for Active; 'I' for Inactive)
REMARK    1  A    between atoms: C_1  and  C_2
REMARK    2  A    between atoms: C_3  and  O_4
REMARK    3  A    between atoms: C_5  and  O_6
REMARK    4  A    between atoms: C_7  and  C_8
REMARK    5  A    between atoms: N_14  and  C_15
REMARK                            x       y       z     vdW  Elec       q    Type
REMARK                         _______ _______ _______ _____ _____    ______ ____
ROOT
ATOM      1  C   UNL     1       2.261   1.727  18.487  0.00  0.00    +0.000 C 
ATOM      2  C   UNL     1       3.325   2.779  18.171  0.00  0.00    +0.000 C 
ATOM      3  C   UNL     1       4.021   3.325  19.429  0.00  0.00    +0.000 C 
ATOM      4  C   UNL     1       4.440   4.762  19.061  0.00  0.00    +0.000 C 
ATOM      5  C   UNL     1       3.934   4.987  17.611  0.00  0.00    +0.000 C 
ATOM      6  N   UNL     1       2.872   3.962  17.407  0.00  0.00    +0.000 NA
ATOM      7  C   UNL     1       1.547   4.456  17.764  0.00  0.00    +0.000 C 
ENDROOT
BRANCH   5   8
ATOM      8  C   UNL     1       5.067   4.880  16.579  0.00  0.00    +0.000 A 
ATOM      9  C   UNL     1       6.401   5.200  16.900  0.00  0.00    +0.000 A 
ATOM     10  C   UNL     1       7.415   5.128  15.945  0.00  0.00    +0.000 A 
ATOM     11  C   UNL     1       7.127   4.704  14.653  0.00  0.00    +0.000 A 
ATOM     12  C   UNL     1       5.825   4.342  14.321  0.00  0.00    +0.000 A 
ATOM     13  C   UNL     1       4.804   4.423  15.276  0.00  0.00    +0.000 A 
ENDBRANCH   5   8
BRANCH   3  14
ATOM     14  O   UNL     1       5.147   2.519  19.781  0.00  0.00    +0.000 OA
ATOM     15  H   UNL     1       4.886   1.929  20.512  0.00  0.00    +0.000 HD
ENDBRANCH   3  14
BRANCH   4  16
ATOM     16  O   UNL     1       3.854   5.712  19.966  0.00  0.00    +0.000 OA
ATOM     17  H   UNL     1       3.176   5.260  20.489  0.00  0.00    +0.000 HD
ENDBRANCH   4  16
TORSDOF 3
ENDMDL
MODEL 9
REMARK VINA RESULT:      -6.2      2.108      2.881
REMARK  Name = 
REMARK  5 active torsions:
REMARK  status: ('A' for Active; 'I' for Inactive)
REMARK    1  A    between atoms: C_1  and  C_2
REMARK    2  A    between atoms: C_3  and  O_4
REMARK    3  A    between atoms: C_5  and  O_6
REMARK    4  A    between atoms: C_7  and  C_8
REMARK    5  A    between atoms: N_14  and  C_15
REMARK                            x       y       z     vdW  Elec       q    Type
REMARK                         _______ _______ _______ _____ _____    ______ ____
ROOT
ATOM      1  C   UNL     1       2.673   2.847  21.285  0.00  0.00    +0.000 C 
ATOM      2  C   UNL     1       3.094   3.709  20.094  0.00  0.00    +0.000 C 
ATOM      3  C   UNL     1       1.951   4.582  19.552  0.00  0.00    +0.000 C 
ATOM      4  C   UNL     1       2.264   4.767  18.054  0.00  0.00    +0.000 C 
ATOM      5  C   UNL     1       3.564   3.958  17.796  0.00  0.00    +0.000 C 
ATOM      6  N   UNL     1       3.650   2.991  18.927  0.00  0.00    +0.000 NA
ATOM      7  C   UNL     1       3.002   1.720  18.619  0.00  0.00    +0.000 C 
ENDROOT
BRANCH   5   8
ATOM      8  C   UNL     1       4.799   4.866  17.699  0.00  0.00    +0.000 A 
ATOM      9  C   UNL     1       6.080   4.428  18.092  0.00  0.00    +0.000 A 
ATOM     10  C   UNL     1       7.187   5.273  18.027  0.00  0.00    +0.000 A 
ATOM     11  C   UNL     1       7.050   6.567  17.540  0.00  0.00    +0.000 A 
ATOM     12  C   UNL     1       5.804   7.011  17.107  0.00  0.00    +0.000 A 
ATOM     13  C   UNL     1       4.689   6.167  17.179  0.00  0.00    +0.000 A 
ENDBRANCH   5   8
BRANCH   3  14
ATOM     14  O   UNL     1       1.894   5.835  20.238  0.00  0.00    +0.000 OA
ATOM     15  H   UNL     1       2.383   5.748  21.077  0.00  0.00    +0.000 HD
ENDBRANCH   3  14
BRANCH   4  16
ATOM     16  O   UNL     1       1.183   4.278  17.243  0.00  0.00    +0.000 OA
ATOM     17  H   UNL     1       0.541   4.993  17.124  0.00  0.00    +0.000 HD
ENDBRANCH   4  16
TORSDOF 3
ENDMDL
