MODEL 1
REMARK VINA RESULT:      -8.9      0.000      0.000
REMARK  Name = 
REMARK  9 active torsions:
REMARK  status: ('A' for Active; 'I' for Inactive)
REMARK    1  A    between atoms: C_1  and  C_2
REMARK    2  A    between atoms: C_2  and  C_3
REMARK    3  A    between atoms: C_2  and  N_4
REMARK    4  A    between atoms: C_8  and  N_9
REMARK    5  A    between atoms: N_9  and  C_10
REMARK    6  A    between atoms: C_14  and  N_15
REMARK    7  A    between atoms: N_21  and  C_22
REMARK    8  A    between atoms: C_22  and  C_23
REMARK    9  A    between atoms: C_23  and  C_24
REMARK                            x       y       z     vdW  Elec       q    Type
REMARK                         _______ _______ _______ _____ _____    ______ ____
ROOT
ATOM      1  N   UNL     1       2.728   3.824  19.188  0.00  0.00    +0.000 N 
ATOM      2  C   UNL     1       2.514   5.032  19.822  0.00  0.00    +0.000 C 
ATOM      3  O   UNL     1       2.039   5.131  20.955  0.00  0.00    +0.000 OA
ATOM      4  C   UNL     1       2.880   6.229  19.048  0.00  0.00    +0.000 C 
ATOM      5  C   UNL     1       2.557   7.446  19.524  0.00  0.00    +0.000 C 
ATOM      6  C   UNL     1       3.556   6.129  17.744  0.00  0.00    +0.000 C 
ATOM      7  O   UNL     1       3.823   7.131  17.087  0.00  0.00    +0.000 OA
ATOM      8  N   UNL     1       3.863   4.835  17.351  0.00  0.00    +0.000 N 
ATOM      9  C   UNL     1       3.546   3.682  18.073  0.00  0.00    +0.000 C 
ATOM     10  O   UNL     1       3.994   2.586  17.729  0.00  0.00    +0.000 OA
ENDROOT
BRANCH   1  12
ATOM     11  C   UNL     1       2.414   2.590  21.323  0.00  0.00    +0.000 C 
ATOM     12  C   UNL     1       2.103   2.639  19.826  0.00  0.00    +0.000 C 
ATOM     13  C   UNL     1       0.601   2.481  19.591  0.00  0.00    +0.000 C 
ENDBRANCH   1  12
BRANCH   5  14
ATOM     14  N   UNL     1       1.878   7.723  20.688  0.00  0.00    +0.000 N 
ATOM     15  H   UNL     1       2.067   7.069  21.455  0.00  0.00    +0.000 HD
BRANCH  14  16
ATOM     16  C   UNL     1       1.017   8.782  20.993  0.00  0.00    +0.000 A 
ATOM     17  C   UNL     1       0.697   9.019  22.338  0.00  0.00    +0.000 A 
ATOM     18  C   UNL     1      -0.137  10.068  22.712  0.00  0.00    +0.000 A 
ATOM     19  C   UNL     1      -0.678  10.908  21.732  0.00  0.00    +0.000 A 
ATOM     20  C   UNL     1      -0.369  10.673  20.386  0.00  0.00    +0.000 A 
ATOM     21  C   UNL     1       0.477   9.622  20.018  0.00  0.00    +0.000 A 
BRANCH  20  22
ATOM     22  N   UNL     1      -0.930  11.535  19.340  0.00  0.00    +0.000 N 
ATOM     23  O   UNL     1      -2.156  11.512  19.180  0.00  0.00    +0.000 OA
ATOM     24  O   UNL     1      -0.147  12.232  18.678  0.00  0.00    +0.000 OA
ENDBRANCH  20  22
ENDBRANCH  14  16
ENDBRANCH   5  14
BRANCH   8  25
ATOM     25  C   UNL     1       4.681   4.684  16.131  0.00  0.00    +0.000 C 
BRANCH  25  26
ATOM     26  C   UNL     1       6.162   4.342  16.399  0.00  0.00    +0.000 C 
BRANCH  26  27
ATOM     27  C   UNL     1       6.887   5.366  17.250  0.00  0.00    +0.000 A 
ATOM     28  C   UNL     1       7.426   5.021  18.499  0.00  0.00    +0.000 A 
ATOM     29  C   UNL     1       8.102   5.972  19.271  0.00  0.00    +0.000 A 
ATOM     30  C   UNL     1       8.258   7.274  18.798  0.00  0.00    +0.000 A 
ATOM     31  C   UNL     1       7.754   7.620  17.548  0.00  0.00    +0.000 A 
ATOM     32  C   UNL     1       7.076   6.672  16.777  0.00  0.00    +0.000 A 
ENDBRANCH  26  27
ENDBRANCH  25  26
ENDBRANCH   8  25
TORSDOF 7
ENDMDL
MODEL 2
REMARK VINA RESULT:      -8.8      1.506      1.982
REMARK  Name = 
REMARK  9 active torsions:
REMARK  status: ('A' for Active; 'I' for Inactive)
REMARK    1  A    between atoms: C_1  and  C_2
REMARK    2  A    between atoms: C_2  and  C_3
REMARK    3  A    between atoms: C_2  and  N_4
REMARK    4  A    between atoms: C_8  and  N_9
REMARK    5  A    between atoms: N_9  and  C_10
REMARK    6  A    between atoms: C_14  and  N_15
REMARK    7  A    between atoms: N_21  and  C_22
REMARK    8  A    between atoms: C_22  and  C_23
REMARK    9  A    between atoms: C_23  and  C_24
REMARK                            x       y       z     vdW  Elec       q    Type
REMARK                         _______ _______ _______ _____ _____    ______ ____
ROOT
ATOM      1  N   UNL     1       2.888   3.690  18.832  0.00  0.00    +0.000 N 
ATOM      2  C   UNL     1       2.672   4.935  19.391  0.00  0.00    +0.000 C 
ATOM      3  O   UNL     1       2.147   5.105  20.494  0.00  0.00    +0.000 OA
ATOM      4  C   UNL     1       3.100   6.081  18.573  0.00  0.00    +0.000 C 
ATOM      5  C   UNL     1       2.782   7.328  18.968  0.00  0.00    +0.000 C 
ATOM      6  C   UNL     1       3.833   5.897  17.310  0.00  0.00    +0.000 C 
ATOM      7  O   UNL     1       4.153   6.857  16.614  0.00  0.00    +0.000 OA
ATOM      8  N   UNL     1       4.129   4.578  17.000  0.00  0.00    +0.000 N 
ATOM      9  C   UNL     1       3.753   3.472  17.766  0.00  0.00    +0.000 C 
ATOM     10  O   UNL     1       4.192   2.351  17.503  0.00  0.00    +0.000 OA
ENDROOT
BRANCH   1  12
ATOM     11  C   UNL     1       2.557   2.501  20.990  0.00  0.00    +0.000 C 
ATOM     12  C   UNL     1       2.207   2.554  19.502  0.00  0.00    +0.000 C 
ATOM     13  C   UNL     1       0.692   2.490  19.311  0.00  0.00    +0.000 C 
ENDBRANCH   1  12
BRANCH   5  14
ATOM     14  N   UNL     1       2.058   7.681  20.082  0.00  0.00    +0.000 N 
ATOM     15  H   UNL     1       2.171   7.047  20.880  0.00  0.00    +0.000 HD
BRANCH  14  16
ATOM     16  C   UNL     1       1.236   8.792  20.302  0.00  0.00    +0.000 A 
ATOM     17  C   UNL     1       0.826   9.552  19.197  0.00  0.00    +0.000 A 
ATOM     18  C   UNL     1      -0.008  10.656  19.344  0.00  0.00    +0.000 A 
ATOM     19  C   UNL     1      -0.448  11.028  20.620  0.00  0.00    +0.000 A 
ATOM     20  C   UNL     1      -0.035  10.279  21.729  0.00  0.00    +0.000 A 
ATOM     21  C   UNL     1       0.796   9.165  21.573  0.00  0.00    +0.000 A 
BRANCH  20  22
ATOM     22  N   UNL     1      -0.476  10.653  23.078  0.00  0.00    +0.000 N 
ATOM     23  O   UNL     1      -1.159  11.680  23.188  0.00  0.00    +0.000 OA
ATOM     24  O   UNL     1      -0.142   9.925  24.023  0.00  0.00    +0.000 OA
ENDBRANCH  20  22
ENDBRANCH  14  16
ENDBRANCH   5  14
BRANCH   8  25
ATOM     25  C   UNL     1       4.999   4.345  15.830  0.00  0.00    +0.000 C 
BRANCH  25  26
ATOM     26  C   UNL     1       6.485   4.117  16.181  0.00  0.00    +0.000 C 
BRANCH  26  27
ATOM     27  C   UNL     1       7.082   5.195  17.064  0.00  0.00    +0.000 A 
ATOM     28  C   UNL     1       7.241   6.509  16.598  0.00  0.00    +0.000 A 
ATOM     29  C   UNL     1       7.785   7.498  17.426  0.00  0.00    +0.000 A 
ATOM     30  C   UNL     1       8.162   7.187  18.731  0.00  0.00    +0.000 A 
ATOM     31  C   UNL     1       7.982   5.894  19.214  0.00  0.00    +0.000 A 
ATOM     32  C   UNL     1       7.441   4.905  18.387  0.00  0.00    +0.000 A 
ENDBRANCH  26  27
ENDBRANCH  25  26
ENDBRANCH   8  25
TORSDOF 7
ENDMDL
MODEL 3
REMARK VINA RESULT:      -8.8      2.647      8.315
REMARK  Name = 
REMARK  9 active torsions:
REMARK  status: ('A' for Active; 'I' for Inactive)
REMARK    1  A    between atoms: C_1  and  C_2
REMARK    2  A    between atoms: C_2  and  C_3
REMARK    3  A    between atoms: C_2  and  N_4
REMARK    4  A    between atoms: C_8  and  N_9
REMARK    5  A    between atoms: N_9  and  C_10
REMARK    6  A    between atoms: C_14  and  N_15
REMARK    7  A    between atoms: N_21  and  C_22
REMARK    8  A    between atoms: C_22  and  C_23
REMARK    9  A    between atoms: C_23  and  C_24
REMARK                            x       y       z     vdW  Elec       q    Type
REMARK                         _______ _______ _______ _____ _____    ______ ____
ROOT
ATOM      1  N   UNL     1       2.899   4.167  19.140  0.00  0.00    +0.000 N 
ATOM      2  C   UNL     1       3.760   4.209  18.060  0.00  0.00    +0.000 C 
ATOM      3  O   UNL     1       4.244   3.203  17.536  0.00  0.00    +0.000 OA
ATOM      4  C   UNL     1       4.087   5.554  17.561  0.00  0.00    +0.000 C 
ATOM      5  C   UNL     1       5.038   5.694  16.619  0.00  0.00    +0.000 C 
ATOM      6  C   UNL     1       3.428   6.757  18.095  0.00  0.00    +0.000 C 
ATOM      7  O   UNL     1       3.734   7.879  17.701  0.00  0.00    +0.000 OA
ATOM      8  N   UNL     1       2.451   6.506  19.047  0.00  0.00    +0.000 N 
ATOM      9  C   UNL     1       2.105   5.241  19.525  0.00  0.00    +0.000 C 
ATOM     10  O   UNL     1       1.120   5.095  20.252  0.00  0.00    +0.000 OA
ENDROOT
BRANCH   1  12
ATOM     11  C   UNL     1       2.732   3.038  21.349  0.00  0.00    +0.000 C 
ATOM     12  C   UNL     1       2.792   2.857  19.831  0.00  0.00    +0.000 C 
ATOM     13  C   UNL     1       1.651   1.957  19.359  0.00  0.00    +0.000 C 
ENDBRANCH   1  12
BRANCH   5  14
ATOM     14  N   UNL     1       5.791   4.693  16.052  0.00  0.00    +0.000 N 
ATOM     15  H   UNL     1       6.077   3.955  16.705  0.00  0.00    +0.000 HD
BRANCH  14  16
ATOM     16  C   UNL     1       6.180   4.508  14.721  0.00  0.00    +0.000 A 
ATOM     17  C   UNL     1       7.314   5.190  14.253  0.00  0.00    +0.000 A 
ATOM     18  C   UNL     1       7.767   5.034  12.947  0.00  0.00    +0.000 A 
ATOM     19  C   UNL     1       7.080   4.185  12.071  0.00  0.00    +0.000 A 
ATOM     20  C   UNL     1       5.943   3.508  12.528  0.00  0.00    +0.000 A 
ATOM     21  C   UNL     1       5.498   3.662  13.845  0.00  0.00    +0.000 A 
BRANCH  20  22
ATOM     22  N   UNL     1       5.202   2.618  11.627  0.00  0.00    +0.000 N 
ATOM     23  O   UNL     1       5.732   1.540  11.330  0.00  0.00    +0.000 OA
ATOM     24  O   UNL     1       4.096   2.995  11.216  0.00  0.00    +0.000 OA
ENDBRANCH  20  22
ENDBRANCH  14  16
ENDBRANCH   5  14
BRANCH   8  25
ATOM     25  C   UNL     1       1.648   7.660  19.500  0.00  0.00    +0.000 C 
BRANCH  25  26
ATOM     26  C   UNL     1       1.728   7.933  21.016  0.00  0.00    +0.000 C 
BRANCH  26  27
ATOM     27  C   UNL     1       0.857   9.083  21.483  0.00  0.00    +0.000 A 
ATOM     28  C   UNL     1       0.171   9.023  22.705  0.00  0.00    +0.000 A 
ATOM     29  C   UNL     1      -0.623  10.095  23.131  0.00  0.00    +0.000 A 
ATOM     30  C   UNL     1      -0.728  11.241  22.346  0.00  0.00    +0.000 A 
ATOM     31  C   UNL     1      -0.028  11.324  21.145  0.00  0.00    +0.000 A 
ATOM     32  C   UNL     1       0.763  10.254  20.718  0.00  0.00    +0.000 A 
ENDBRANCH  26  27
ENDBRANCH  25  26
ENDBRANCH   8  25
TORSDOF 7
ENDMDL
MODEL 4
REMARK VINA RESULT:      -8.7      2.100      3.022
REMARK  Name = 
REMARK  9 active torsions:
REMARK  status: ('A' for Active; 'I' for Inactive)
REMARK    1  A    between atoms: C_1  and  C_2
REMARK    2  A    between atoms: C_2  and  C_3
REMARK    3  A    between atoms: C_2  and  N_4
REMARK    4  A    between atoms: C_8  and  N_9
REMARK    5  A    between atoms: N_9  and  C_10
REMARK    6  A    between atoms: C_14  and  N_15
REMARK    7  A    between atoms: N_21  and  C_22
REMARK    8  A    between atoms: C_22  and  C_23
REMARK    9  A    between atoms: C_23  and  C_24
REMARK                            x       y       z     vdW  Elec       q    Type
REMARK                         _______ _______ _______ _____ _____    ______ ____
ROOT
ATOM      1  N   UNL     1       2.890   4.101  19.477  0.00  0.00    +0.000 N 
ATOM      2  C   UNL     1       2.460   5.391  19.719  0.00  0.00    +0.000 C 
ATOM      3  O   UNL     1       1.678   5.690  20.625  0.00  0.00    +0.000 OA
ATOM      4  C   UNL     1       2.987   6.419  18.807  0.00  0.00    +0.000 C 
ATOM      5  C   UNL     1       2.497   7.670  18.871  0.00  0.00    +0.000 C 
ATOM      6  C   UNL     1       4.009   6.102  17.796  0.00  0.00    +0.000 C 
ATOM      7  O   UNL     1       4.417   6.956  17.013  0.00  0.00    +0.000 OA
ATOM      8  N   UNL     1       4.463   4.791  17.824  0.00  0.00    +0.000 N 
ATOM      9  C   UNL     1       3.996   3.801  18.691  0.00  0.00    +0.000 C 
ATOM     10  O   UNL     1       4.563   2.708  18.755  0.00  0.00    +0.000 OA
ENDROOT
BRANCH   1  12
ATOM     11  C   UNL     1       2.266   3.196  21.707  0.00  0.00    +0.000 C 
ATOM     12  C   UNL     1       2.152   3.029  20.190  0.00  0.00    +0.000 C 
ATOM     13  C   UNL     1       0.688   2.855  19.785  0.00  0.00    +0.000 C 
ENDBRANCH   1  12
BRANCH   5  14
ATOM     14  N   UNL     1       1.506   8.128  19.707  0.00  0.00    +0.000 N 
ATOM     15  H   UNL     1       1.108   7.411  20.324  0.00  0.00    +0.000 HD
BRANCH  14  16
ATOM     16  C   UNL     1       1.000   9.420  19.875  0.00  0.00    +0.000 A 
ATOM     17  C   UNL     1       0.996  10.287  18.772  0.00  0.00    +0.000 A 
ATOM     18  C   UNL     1       0.488  11.579  18.865  0.00  0.00    +0.000 A 
ATOM     19  C   UNL     1      -0.029  12.035  20.084  0.00  0.00    +0.000 A 
ATOM     20  C   UNL     1      -0.020  11.179  21.191  0.00  0.00    +0.000 A 
ATOM     21  C   UNL     1       0.484   9.878  21.088  0.00  0.00    +0.000 A 
BRANCH  20  22
ATOM     22  N   UNL     1      -0.549  11.636  22.481  0.00  0.00    +0.000 N 
ATOM     23  O   UNL     1      -0.758  12.848  22.613  0.00  0.00    +0.000 OA
ATOM     24  O   UNL     1      -0.755  10.787  23.360  0.00  0.00    +0.000 OA
ENDBRANCH  20  22
ENDBRANCH  14  16
ENDBRANCH   5  14
BRANCH   8  25
ATOM     25  C   UNL     1       5.600   4.459  16.942  0.00  0.00    +0.000 C 
BRANCH  25  26
ATOM     26  C   UNL     1       5.207   3.694  15.661  0.00  0.00    +0.000 C 
BRANCH  26  27
ATOM     27  C   UNL     1       6.022   4.076  14.441  0.00  0.00    +0.000 A 
ATOM     28  C   UNL     1       7.092   4.978  14.537  0.00  0.00    +0.000 A 
ATOM     29  C   UNL     1       7.844   5.316  13.405  0.00  0.00    +0.000 A 
ATOM     30  C   UNL     1       7.542   4.745  12.170  0.00  0.00    +0.000 A 
ATOM     31  C   UNL     1       6.501   3.826  12.068  0.00  0.00    +0.000 A 
ATOM     32  C   UNL     1       5.748   3.491  13.197  0.00  0.00    +0.000 A 
ENDBRANCH  26  27
ENDBRANCH  25  26
ENDBRANCH   8  25
TORSDOF 7
ENDMDL
MODEL 5
REMARK VINA RESULT:      -8.7      2.252      3.185
REMARK  Name = 
REMARK  9 active torsions:
REMARK  status: ('A' for Active; 'I' for Inactive)
REMARK    1  A    between atoms: C_1  and  C_2
REMARK    2  A    between atoms: C_2  and  C_3
REMARK    3  A    between atoms: C_2  and  N_4
REMARK    4  A    between atoms: C_8  and  N_9
REMARK    5  A    between atoms: N_9  and  C_10
REMARK    6  A    between atoms: C_14  and  N_15
REMARK    7  A    between atoms: N_21  and  C_22
REMARK    8  A    between atoms: C_22  and  C_23
REMARK    9  A    between atoms: C_23  and  C_24
REMARK                            x       y       z     vdW  Elec       q    Type
REMARK                         _______ _______ _______ _____ _____    ______ ____
ROOT
ATOM      1  N   UNL     1       2.693   4.673  19.495  0.00  0.00    +0.000 N 
ATOM      2  C   UNL     1       2.329   6.003  19.565  0.00  0.00    +0.000 C 
ATOM      3  O   UNL     1       1.535   6.449  20.397  0.00  0.00    +0.000 OA
ATOM      4  C   UNL     1       2.945   6.885  18.561  0.00  0.00    +0.000 C 
ATOM      5  C   UNL     1       2.526   8.159  18.456  0.00  0.00    +0.000 C 
ATOM      6  C   UNL     1       3.982   6.396  17.638  0.00  0.00    +0.000 C 
ATOM      7  O   UNL     1       4.464   7.127  16.777  0.00  0.00    +0.000 OA
ATOM      8  N   UNL     1       4.359   5.076  17.838  0.00  0.00    +0.000 N 
ATOM      9  C   UNL     1       3.807   4.222  18.796  0.00  0.00    +0.000 C 
ATOM     10  O   UNL     1       4.308   3.117  19.012  0.00  0.00    +0.000 OA
ENDROOT
BRANCH   1  12
ATOM     11  C   UNL     1       1.294   2.619  19.425  0.00  0.00    +0.000 C 
ATOM     12  C   UNL     1       1.871   3.734  20.299  0.00  0.00    +0.000 C 
ATOM     13  C   UNL     1       2.561   3.142  21.527  0.00  0.00    +0.000 C 
ENDBRANCH   1  12
BRANCH   5  14
ATOM     14  N   UNL     1       1.534   8.765  19.191  0.00  0.00    +0.000 N 
ATOM     15  H   UNL     1       1.434   8.405  20.147  0.00  0.00    +0.000 HD
BRANCH  14  16
ATOM     16  C   UNL     1       0.682   9.820  18.850  0.00  0.00    +0.000 A 
ATOM     17  C   UNL     1       1.007  11.113  19.289  0.00  0.00    +0.000 A 
ATOM     18  C   UNL     1       0.214  12.210  18.967  0.00  0.00    +0.000 A 
ATOM     19  C   UNL     1      -0.939  12.029  18.194  0.00  0.00    +0.000 A 
ATOM     20  C   UNL     1      -1.275  10.741  17.760  0.00  0.00    +0.000 A 
ATOM     21  C   UNL     1      -0.468   9.644  18.079  0.00  0.00    +0.000 A 
BRANCH  20  22
ATOM     22  N   UNL     1      -2.482  10.526  16.954  0.00  0.00    +0.000 N 
ATOM     23  O   UNL     1      -2.602  11.193  15.919  0.00  0.00    +0.000 OA
ATOM     24  O   UNL     1      -3.308   9.693  17.354  0.00  0.00    +0.000 OA
ENDBRANCH  20  22
ENDBRANCH  14  16
ENDBRANCH   5  14
BRANCH   8  25
ATOM     25  C   UNL     1       5.505   4.581  17.050  0.00  0.00    +0.000 C 
BRANCH  25  26
ATOM     26  C   UNL     1       5.111   3.745  15.814  0.00  0.00    +0.000 C 
BRANCH  26  27
ATOM     27  C   UNL     1       5.909   4.074  14.567  0.00  0.00    +0.000 A 
ATOM     28  C   UNL     1       7.017   4.933  14.622  0.00  0.00    +0.000 A 
ATOM     29  C   UNL     1       7.753   5.222  13.466  0.00  0.00    +0.000 A 
ATOM     30  C   UNL     1       7.397   4.644  12.249  0.00  0.00    +0.000 A 
ATOM     31  C   UNL     1       6.317   3.767  12.188  0.00  0.00    +0.000 A 
ATOM     32  C   UNL     1       5.581   3.481  13.341  0.00  0.00    +0.000 A 
ENDBRANCH  26  27
ENDBRANCH  25  26
ENDBRANCH   8  25
TORSDOF 7
ENDMDL
MODEL 6
REMARK VINA RESULT:      -8.7      2.310      3.177
REMARK  Name = 
REMARK  9 active torsions:
REMARK  status: ('A' for Active; 'I' for Inactive)
REMARK    1  A    between atoms: C_1  and  C_2
REMARK    2  A    between atoms: C_2  and  C_3
REMARK    3  A    between atoms: C_2  and  N_4
REMARK    4  A    between atoms: C_8  and  N_9
REMARK    5  A    between atoms: N_9  and  C_10
REMARK    6  A    between atoms: C_14  and  N_15
REMARK    7  A    between atoms: N_21  and  C_22
REMARK    8  A    between atoms: C_22  and  C_23
REMARK    9  A    between atoms: C_23  and  C_24
REMARK                            x       y       z     vdW  Elec       q    Type
REMARK                         _______ _______ _______ _____ _____    ______ ____
ROOT
ATOM      1  N   UNL     1       2.605   4.916  19.703  0.00  0.00    +0.000 N 
ATOM      2  C   UNL     1       2.256   6.252  19.723  0.00  0.00    +0.000 C 
ATOM      3  O   UNL     1       1.501   6.746  20.564  0.00  0.00    +0.000 OA
ATOM      4  C   UNL     1       2.840   7.078  18.654  0.00  0.00    +0.000 C 
ATOM      5  C   UNL     1       2.429   8.350  18.505  0.00  0.00    +0.000 C 
ATOM      6  C   UNL     1       3.834   6.534  17.714  0.00  0.00    +0.000 C 
ATOM      7  O   UNL     1       4.288   7.217  16.801  0.00  0.00    +0.000 OA
ATOM      8  N   UNL     1       4.206   5.220  17.963  0.00  0.00    +0.000 N 
ATOM      9  C   UNL     1       3.685   4.420  18.982  0.00  0.00    +0.000 C 
ATOM     10  O   UNL     1       4.184   3.320  19.230  0.00  0.00    +0.000 OA
ENDROOT
BRANCH   1  12
ATOM     11  C   UNL     1       0.895   3.113  19.762  0.00  0.00    +0.000 C 
ATOM     12  C   UNL     1       1.807   4.026  20.583  0.00  0.00    +0.000 C 
ATOM     13  C   UNL     1       2.611   3.205  21.591  0.00  0.00    +0.000 C 
ENDBRANCH   1  12
BRANCH   5  14
ATOM     14  N   UNL     1       1.474   9.002  19.249  0.00  0.00    +0.000 N 
ATOM     15  H   UNL     1       1.462   8.745  20.242  0.00  0.00    +0.000 HD
BRANCH  14  16
ATOM     16  C   UNL     1       0.558   9.987  18.867  0.00  0.00    +0.000 A 
ATOM     17  C   UNL     1       0.770  11.304  19.303  0.00  0.00    +0.000 A 
ATOM     18  C   UNL     1      -0.091  12.336  18.942  0.00  0.00    +0.000 A 
ATOM     19  C   UNL     1      -1.200  12.063  18.132  0.00  0.00    +0.000 A 
ATOM     20  C   UNL     1      -1.423  10.750  17.701  0.00  0.00    +0.000 A 
ATOM     21  C   UNL     1      -0.548   9.719  18.060  0.00  0.00    +0.000 A 
BRANCH  20  22
ATOM     22  N   UNL     1      -2.582  10.438  16.857  0.00  0.00    +0.000 N 
ATOM     23  O   UNL     1      -3.611  10.050  17.425  0.00  0.00    +0.000 OA
ATOM     24  O   UNL     1      -2.465  10.579  15.632  0.00  0.00    +0.000 OA
ENDBRANCH  20  22
ENDBRANCH  14  16
ENDBRANCH   5  14
BRANCH   8  25
ATOM     25  C   UNL     1       5.315   4.676  17.154  0.00  0.00    +0.000 C 
BRANCH  25  26
ATOM     26  C   UNL     1       4.864   3.923  15.885  0.00  0.00    +0.000 C 
BRANCH  26  27
ATOM     27  C   UNL     1       5.761   4.147  14.684  0.00  0.00    +0.000 A 
ATOM     28  C   UNL     1       5.487   3.537  13.450  0.00  0.00    +0.000 A 
ATOM     29  C   UNL     1       6.317   3.759  12.345  0.00  0.00    +0.000 A 
ATOM     30  C   UNL     1       7.421   4.602  12.458  0.00  0.00    +0.000 A 
ATOM     31  C   UNL     1       7.686   5.236  13.669  0.00  0.00    +0.000 A 
ATOM     32  C   UNL     1       6.860   5.013  14.773  0.00  0.00    +0.000 A 
ENDBRANCH  26  27
ENDBRANCH  25  26
ENDBRANCH   8  25
TORSDOF 7
ENDMDL
MODEL 7
REMARK VINA RESULT:      -8.7      2.713      8.365
REMARK  Name = 
REMARK  9 active torsions:
REMARK  status: ('A' for Active; 'I' for Inactive)
REMARK    1  A    between atoms: C_1  and  C_2
REMARK    2  A    between atoms: C_2  and  C_3
REMARK    3  A    between atoms: C_2  and  N_4
REMARK    4  A    between atoms: C_8  and  N_9
REMARK    5  A    between atoms: N_9  and  C_10
REMARK    6  A    between atoms: C_14  and  N_15
REMARK    7  A    between atoms: N_21  and  C_22
REMARK    8  A    between atoms: C_22  and  C_23
REMARK    9  A    between atoms: C_23  and  C_24
REMARK                            x       y       z     vdW  Elec       q    Type
REMARK                         _______ _______ _______ _____ _____    ______ ____
ROOT
ATOM      1  N   UNL     1       3.003   4.051  18.744  0.00  0.00    +0.000 N 
ATOM      2  C   UNL     1       3.943   4.179  17.740  0.00  0.00    +0.000 C 
ATOM      3  O   UNL     1       4.492   3.219  17.194  0.00  0.00    +0.000 OA
ATOM      4  C   UNL     1       4.273   5.559  17.351  0.00  0.00    +0.000 C 
ATOM      5  C   UNL     1       5.290   5.778  16.497  0.00  0.00    +0.000 C 
ATOM      6  C   UNL     1       3.546   6.712  17.905  0.00  0.00    +0.000 C 
ATOM      7  O   UNL     1       3.852   7.863  17.606  0.00  0.00    +0.000 OA
ATOM      8  N   UNL     1       2.504   6.382  18.760  0.00  0.00    +0.000 N 
ATOM      9  C   UNL     1       2.154   5.081  19.131  0.00  0.00    +0.000 C 
ATOM     10  O   UNL     1       1.120   4.869  19.767  0.00  0.00    +0.000 OA
ENDROOT
BRANCH   1  12
ATOM     11  C   UNL     1       3.164   2.730  20.844  0.00  0.00    +0.000 C 
ATOM     12  C   UNL     1       2.876   2.698  19.342  0.00  0.00    +0.000 C 
ATOM     13  C   UNL     1       1.554   1.981  19.071  0.00  0.00    +0.000 C 
ENDBRANCH   1  12
BRANCH   5  14
ATOM     14  N   UNL     1       6.110   4.831  15.930  0.00  0.00    +0.000 N 
ATOM     15  H   UNL     1       6.531   4.178  16.600  0.00  0.00    +0.000 HD
BRANCH  14  16
ATOM     16  C   UNL     1       6.414   4.597  14.585  0.00  0.00    +0.000 A 
ATOM     17  C   UNL     1       7.509   5.266  14.019  0.00  0.00    +0.000 A 
ATOM     18  C   UNL     1       7.879   5.063  12.693  0.00  0.00    +0.000 A 
ATOM     19  C   UNL     1       7.143   4.177  11.896  0.00  0.00    +0.000 A 
ATOM     20  C   UNL     1       6.043   3.512  12.451  0.00  0.00    +0.000 A 
ATOM     21  C   UNL     1       5.683   3.715  13.788  0.00  0.00    +0.000 A 
BRANCH  20  22
ATOM     22  N   UNL     1       5.253   2.585  11.634  0.00  0.00    +0.000 N 
ATOM     23  O   UNL     1       4.123   2.953  11.288  0.00  0.00    +0.000 OA
ATOM     24  O   UNL     1       5.758   1.493  11.340  0.00  0.00    +0.000 OA
ENDBRANCH  20  22
ENDBRANCH  14  16
ENDBRANCH   5  14
BRANCH   8  25
ATOM     25  C   UNL     1       1.640   7.488  19.219  0.00  0.00    +0.000 C 
BRANCH  25  26
ATOM     26  C   UNL     1       1.858   7.894  20.691  0.00  0.00    +0.000 C 
BRANCH  26  27
ATOM     27  C   UNL     1       0.913   8.976  21.178  0.00  0.00    +0.000 A 
ATOM     28  C   UNL     1       0.363   9.912  20.289  0.00  0.00    +0.000 A 
ATOM     29  C   UNL     1      -0.516  10.901  20.748  0.00  0.00    +0.000 A 
ATOM     30  C   UNL     1      -0.863  10.955  22.097  0.00  0.00    +0.000 A 
ATOM     31  C   UNL     1      -0.347  10.013  22.983  0.00  0.00    +0.000 A 
ATOM     32  C   UNL     1       0.532   9.028  22.526  0.00  0.00    +0.000 A 
ENDBRANCH  26  27
ENDBRANCH  25  26
ENDBRANCH   8  25
TORSDOF 7
ENDMDL
MODEL 8
REMARK VINA RESULT:      -8.6      2.067      2.960
REMARK  Name = 
REMARK  9 active torsions:
REMARK  status: ('A' for Active; 'I' for Inactive)
REMARK    1  A    between atoms: C_1  and  C_2
REMARK    2  A    between atoms: C_2  and  C_3
REMARK    3  A    between atoms: C_2  and  N_4
REMARK    4  A    between atoms: C_8  and  N_9
REMARK    5  A    between atoms: N_9  and  C_10
REMARK    6  A    between atoms: C_14  and  N_15
REMARK    7  A    between atoms: N_21  and  C_22
REMARK    8  A    between atoms: C_22  and  C_23
REMARK    9  A    between atoms: C_23  and  C_24
REMARK                            x       y       z     vdW  Elec       q    Type
REMARK                         _______ _______ _______ _____ _____    ______ ____
ROOT
ATOM      1  N   UNL     1       2.782   3.716  19.438  0.00  0.00    +0.000 N 
ATOM      2  C   UNL     1       2.496   4.997  19.866  0.00  0.00    +0.000 C 
ATOM      3  O   UNL     1       1.768   5.246  20.830  0.00  0.00    +0.000 OA
ATOM      4  C   UNL     1       3.111   6.081  19.083  0.00  0.00    +0.000 C 
ATOM      5  C   UNL     1       2.758   7.356  19.332  0.00  0.00    +0.000 C 
ATOM      6  C   UNL     1       4.074   5.804  18.005  0.00  0.00    +0.000 C 
ATOM      7  O   UNL     1       4.554   6.712  17.331  0.00  0.00    +0.000 OA
ATOM      8  N   UNL     1       4.387   4.463  17.841  0.00  0.00    +0.000 N 
ATOM      9  C   UNL     1       3.835   3.415  18.581  0.00  0.00    +0.000 C 
ATOM     10  O   UNL     1       4.285   2.272  18.477  0.00  0.00    +0.000 OA
ENDROOT
BRANCH   1  12
ATOM     11  C   UNL     1       1.953   2.707  21.552  0.00  0.00    +0.000 C 
ATOM     12  C   UNL     1       1.949   2.636  20.024  0.00  0.00    +0.000 C 
ATOM     13  C   UNL     1       0.516   2.553  19.500  0.00  0.00    +0.000 C 
ENDBRANCH   1  12
BRANCH   5  14
ATOM     14  N   UNL     1       1.837   7.792  20.255  0.00  0.00    +0.000 N 
ATOM     15  H   UNL     1       1.697   7.156  21.048  0.00  0.00    +0.000 HD
BRANCH  14  16
ATOM     16  C   UNL     1       1.107   8.984  20.300  0.00  0.00    +0.000 A 
ATOM     17  C   UNL     1       0.901   9.689  19.105  0.00  0.00    +0.000 A 
ATOM     18  C   UNL     1       0.166  10.870  19.076  0.00  0.00    +0.000 A 
ATOM     19  C   UNL     1      -0.378  11.378  20.261  0.00  0.00    +0.000 A 
ATOM     20  C   UNL     1      -0.169  10.685  21.460  0.00  0.00    +0.000 A 
ATOM     21  C   UNL     1       0.563   9.493  21.480  0.00  0.00    +0.000 A 
BRANCH  20  22
ATOM     22  N   UNL     1      -0.723  11.201  22.717  0.00  0.00    +0.000 N 
ATOM     23  O   UNL     1      -1.352  10.408  23.429  0.00  0.00    +0.000 OA
ATOM     24  O   UNL     1      -0.530  12.394  22.992  0.00  0.00    +0.000 OA
ENDBRANCH  20  22
ENDBRANCH  14  16
ENDBRANCH   5  14
BRANCH   8  25
ATOM     25  C   UNL     1       5.465   4.141  16.884  0.00  0.00    +0.000 C 
BRANCH  25  26
ATOM     26  C   UNL     1       4.968   3.718  15.486  0.00  0.00    +0.000 C 
BRANCH  26  27
ATOM     27  C   UNL     1       5.915   4.079  14.359  0.00  0.00    +0.000 A 
ATOM     28  C   UNL     1       5.770   3.517  13.082  0.00  0.00    +0.000 A 
ATOM     29  C   UNL     1       6.645   3.866  12.046  0.00  0.00    +0.000 A 
ATOM     30  C   UNL     1       7.664   4.789  12.273  0.00  0.00    +0.000 A 
ATOM     31  C   UNL     1       7.800   5.376  13.528  0.00  0.00    +0.000 A 
ATOM     32  C   UNL     1       6.928   5.026  14.563  0.00  0.00    +0.000 A 
ENDBRANCH  26  27
ENDBRANCH  25  26
ENDBRANCH   8  25
TORSDOF 7
ENDMDL
MODEL 9
REMARK VINA RESULT:      -8.6      1.311      1.838
REMARK  Name = 
REMARK  9 active torsions:
REMARK  status: ('A' for Active; 'I' for Inactive)
REMARK    1  A    between atoms: C_1  and  C_2
REMARK    2  A    between atoms: C_2  and  C_3
REMARK    3  A    between atoms: C_2  and  N_4
REMARK    4  A    between atoms: C_8  and  N_9
REMARK    5  A    between atoms: N_9  and  C_10
REMARK    6  A    between atoms: C_14  and  N_15
REMARK    7  A    between atoms: N_21  and  C_22
REMARK    8  A    between atoms: C_22  and  C_23
REMARK    9  A    between atoms: C_23  and  C_24
REMARK                            x       y       z     vdW  Elec       q    Type
REMARK                         _______ _______ _______ _____ _____    ______ ____
ROOT
ATOM      1  N   UNL     1       2.249   4.277  19.289  0.00  0.00    +0.000 N 
ATOM      2  C   UNL     1       2.088   5.590  19.686  0.00  0.00    +0.000 C 
ATOM      3  O   UNL     1       1.509   5.922  20.722  0.00  0.00    +0.000 OA
ATOM      4  C   UNL     1       2.648   6.602  18.775  0.00  0.00    +0.000 C 
ATOM      5  C   UNL     1       2.396   7.904  19.003  0.00  0.00    +0.000 C 
ATOM      6  C   UNL     1       3.443   6.224  17.596  0.00  0.00    +0.000 C 
ATOM      7  O   UNL     1       3.874   7.072  16.820  0.00  0.00    +0.000 OA
ATOM      8  N   UNL     1       3.662   4.861  17.460  0.00  0.00    +0.000 N 
ATOM      9  C   UNL     1       3.162   3.879  18.318  0.00  0.00    +0.000 C 
ATOM     10  O   UNL     1       3.535   2.709  18.215  0.00  0.00    +0.000 OA
ENDROOT
BRANCH   1  12
ATOM     11  C   UNL     1       0.782   2.281  19.078  0.00  0.00    +0.000 C 
ATOM     12  C   UNL     1       1.448   3.273  20.033  0.00  0.00    +0.000 C 
ATOM     13  C   UNL     1       2.193   2.526  21.139  0.00  0.00    +0.000 C 
ENDBRANCH   1  12
BRANCH   5  14
ATOM     14  N   UNL     1       1.630   8.432  20.015  0.00  0.00    +0.000 N 
ATOM     15  H   UNL     1       1.812   8.027  20.940  0.00  0.00    +0.000 HD
BRANCH  14  16
ATOM     16  C   UNL     1       0.685   9.463  19.981  0.00  0.00    +0.000 A 
ATOM     17  C   UNL     1       0.245   9.928  18.733  0.00  0.00    +0.000 A 
ATOM     18  C   UNL     1      -0.708  10.936  18.628  0.00  0.00    +0.000 A 
ATOM     19  C   UNL     1      -1.242  11.509  19.788  0.00  0.00    +0.000 A 
ATOM     20  C   UNL     1      -0.801  11.056  21.038  0.00  0.00    +0.000 A 
ATOM     21  C   UNL     1       0.151  10.036  21.136  0.00  0.00    +0.000 A 
BRANCH  20  22
ATOM     22  N   UNL     1      -1.341  11.646  22.268  0.00  0.00    +0.000 N 
ATOM     23  O   UNL     1      -0.693  11.481  23.310  0.00  0.00    +0.000 OA
ATOM     24  O   UNL     1      -2.408  12.272  22.195  0.00  0.00    +0.000 OA
ENDBRANCH  20  22
ENDBRANCH  14  16
ENDBRANCH   5  14
BRANCH   8  25
ATOM     25  C   UNL     1       4.586   4.436  16.388  0.00  0.00    +0.000 C 
BRANCH  25  26
ATOM     26  C   UNL     1       6.000   4.065  16.880  0.00  0.00    +0.000 C 
BRANCH  26  27
ATOM     27  C   UNL     1       6.768   5.225  17.483  0.00  0.00    +0.000 A 
ATOM     28  C   UNL     1       7.333   5.133  18.764  0.00  0.00    +0.000 A 
ATOM     29  C   UNL     1       8.049   6.207  19.307  0.00  0.00    +0.000 A 
ATOM     30  C   UNL     1       8.217   7.377  18.570  0.00  0.00    +0.000 A 
ATOM     31  C   UNL     1       7.686   7.470  17.287  0.00  0.00    +0.000 A 
ATOM     32  C   UNL     1       6.970   6.399  16.745  0.00  0.00    +0.000 A 
ENDBRANCH  26  27
ENDBRANCH  25  26
ENDBRANCH   8  25
TORSDOF 7
ENDMDL
