MODEL 1
REMARK VINA RESULT:      -5.6      0.000      0.000
REMARK  Name = 
REMARK  3 active torsions:
REMARK  status: ('A' for Active; 'I' for Inactive)
REMARK    1  A    between atoms: N_1  and  N_2
REMARK    2  A    between atoms: C_5  and  C_6
REMARK    3  A    between atoms: C_13  and  C_14
REMARK                            x       y       z     vdW  Elec       q    Type
REMARK                         _______ _______ _______ _____ _____    ______ ____
ROOT
ATOM      1  N   UNL     1      11.115  12.800  16.581  0.00  0.00    +0.000 NA
ATOM      2  C   UNL     1      10.803  12.238  17.718  0.00  0.00    +0.000 C 
ATOM      3  C   UNL     1      11.751  11.948  18.912  0.00  0.00    +0.000 C 
ATOM      4  C   UNL     1      11.153  12.326  20.290  0.00  0.00    +0.000 C 
ATOM      5  S   UNL     1       9.607  11.381  20.471  0.00  0.00    +0.000 S 
ATOM      6  C   UNL     1       8.729  12.460  19.241  0.00  0.00    +0.000 C 
ATOM      7  C   UNL     1       9.311  11.950  17.898  0.00  0.00    +0.000 C 
ENDROOT
BRANCH   4   8
ATOM      8  C   UNL     1      10.620  13.761  20.373  0.00  0.00    +0.000 A 
ATOM      9  C   UNL     1      10.020  14.197  22.004  0.00  0.00    +0.000 A 
ATOM     10  C   UNL     1      10.292  15.709  22.797  0.00  0.00    +0.000 A 
ATOM     11  C   UNL     1      11.134  16.955  21.878  0.00  0.00    +0.000 A 
ATOM     12  C   UNL     1      11.750  16.579  19.990  0.00  0.00    +0.000 A 
ATOM     13  C   UNL     1      11.440  14.943  19.309  0.00  0.00    +0.000 A 
ENDBRANCH   4   8
BRANCH   6  14
ATOM     14  C   UNL     1       8.488  14.096  19.638  0.00  0.00    +0.000 A 
ATOM     15  C   UNL     1       7.644  15.197  21.133  0.00  0.00    +0.000 A 
ATOM     16  C   UNL     1       7.307  16.937  20.895  0.00  0.00    +0.000 A 
ATOM     17  C   UNL     1       7.711  17.647  19.357  0.00  0.00    +0.000 A 
ATOM     18  C   UNL     1       8.443  16.738  18.013  0.00  0.00    +0.000 A 
ATOM     19  C   UNL     1       8.843  15.010  18.101  0.00  0.00    +0.000 A 
ENDBRANCH   6  14
BRANCH   1  20
ATOM     20  N   UNL     1      12.333  13.346  16.371  0.00  0.00    +0.000 N 
ATOM     21  H   UNL     1      12.928  12.619  15.950  0.00  0.00    +0.000 HD
ATOM     22  H   UNL     1      12.366  14.115  15.703  0.00  0.00    +0.000 HD
ENDBRANCH   1  20
TORSDOF 3
ENDMDL
MODEL 2
REMARK VINA RESULT:      -5.5      2.099      3.699
REMARK  Name = 
REMARK  3 active torsions:
REMARK  status: ('A' for Active; 'I' for Inactive)
REMARK    1  A    between atoms: N_1  and  N_2
REMARK    2  A    between atoms: C_5  and  C_6
REMARK    3  A    between atoms: C_13  and  C_14
REMARK                            x       y       z     vdW  Elec       q    Type
REMARK                         _______ _______ _______ _____ _____    ______ ____
ROOT
ATOM      1  N   UNL     1       9.425  10.434  18.987  0.00  0.00    +0.000 NA
ATOM      2  C   UNL     1      10.352  11.320  18.736  0.00  0.00    +0.000 C 
ATOM      3  C   UNL     1      10.574  12.093  17.409  0.00  0.00    +0.000 C 
ATOM      4  C   UNL     1      10.845  13.606  17.607  0.00  0.00    +0.000 C 
ATOM      5  S   UNL     1      12.318  13.743  18.669  0.00  0.00    +0.000 S 
ATOM      6  C   UNL     1      11.362  13.215  20.171  0.00  0.00    +0.000 C 
ATOM      7  C   UNL     1      11.223  11.688  19.939  0.00  0.00    +0.000 C 
ENDROOT
BRANCH   4   8
ATOM      8  C   UNL     1       9.804  14.325  18.471  0.00  0.00    +0.000 A 
ATOM      9  C   UNL     1      10.064  16.096  18.561  0.00  0.00    +0.000 A 
ATOM     10  C   UNL     1       8.819  17.293  18.483  0.00  0.00    +0.000 A 
ATOM     11  C   UNL     1       7.155  16.716  18.419  0.00  0.00    +0.000 A 
ATOM     12  C   UNL     1       6.771  14.731  18.422  0.00  0.00    +0.000 A 
ATOM     13  C   UNL     1       8.168  13.599  18.459  0.00  0.00    +0.000 A 
ENDBRANCH   4   8
BRANCH   6  14
ATOM     14  C   UNL     1      10.117  14.232  20.727  0.00  0.00    +0.000 A 
ATOM     15  C   UNL     1       9.856  16.189  21.237  0.00  0.00    +0.000 A 
ATOM     16  C   UNL     1       8.405  16.700  22.148  0.00  0.00    +0.000 A 
ATOM     17  C   UNL     1       7.241  15.482  22.587  0.00  0.00    +0.000 A 
ATOM     18  C   UNL     1       7.415  13.760  22.176  0.00  0.00    +0.000 A 
ATOM     19  C   UNL     1       8.794  13.101  21.270  0.00  0.00    +0.000 A 
ENDBRANCH   6  14
BRANCH   1  20
ATOM     20  N   UNL     1       8.421  10.192  18.115  0.00  0.00    +0.000 N 
ATOM     21  H   UNL     1       7.721  10.936  18.237  0.00  0.00    +0.000 HD
ATOM     22  H   UNL     1       8.669  10.240  17.128  0.00  0.00    +0.000 HD
ENDBRANCH   1  20
TORSDOF 3
ENDMDL
MODEL 3
REMARK VINA RESULT:      -5.3      9.329     11.895
REMARK  Name = 
REMARK  3 active torsions:
REMARK  status: ('A' for Active; 'I' for Inactive)
REMARK    1  A    between atoms: N_1  and  N_2
REMARK    2  A    between atoms: C_5  and  C_6
REMARK    3  A    between atoms: C_13  and  C_14
REMARK                            x       y       z     vdW  Elec       q    Type
REMARK                         _______ _______ _______ _____ _____    ______ ____
ROOT
ATOM      1  N   UNL     1       7.540   6.389  18.976  0.00  0.00    +0.000 NA
ATOM      2  C   UNL     1       7.066   6.068  17.801  0.00  0.00    +0.000 C 
ATOM      3  C   UNL     1       7.373   4.784  16.986  0.00  0.00    +0.000 C 
ATOM      4  C   UNL     1       6.117   4.128  16.359  0.00  0.00    +0.000 C 
ATOM      5  S   UNL     1       5.346   5.384  15.288  0.00  0.00    +0.000 S 
ATOM      6  C   UNL     1       4.722   6.341  16.752  0.00  0.00    +0.000 C 
ATOM      7  C   UNL     1       6.015   7.035  17.253  0.00  0.00    +0.000 C 
ENDROOT
BRANCH   4   8
ATOM      8  C   UNL     1       4.980   3.866  17.353  0.00  0.00    +0.000 A 
ATOM      9  C   UNL     1       3.652   2.882  16.662  0.00  0.00    +0.000 A 
ATOM     10  C   UNL     1       2.825   1.605  17.483  0.00  0.00    +0.000 A 
ATOM     11  C   UNL     1       3.253   1.326  19.169  0.00  0.00    +0.000 A 
ATOM     12  C   UNL     1       4.668   2.466  20.056  0.00  0.00    +0.000 A 
ATOM     13  C   UNL     1       5.480   3.729  19.067  0.00  0.00    +0.000 A 
ENDBRANCH   4   8
BRANCH   6  14
ATOM     14  C   UNL     1       3.562   5.606  17.755  0.00  0.00    +0.000 A 
ATOM     15  C   UNL     1       1.851   4.512  17.565  0.00  0.00    +0.000 A 
ATOM     16  C   UNL     1       0.761   4.289  18.964  0.00  0.00    +0.000 A 
ATOM     17  C   UNL     1       1.201   5.036  20.474  0.00  0.00    +0.000 A 
ATOM     18  C   UNL     1       2.675   6.006  20.701  0.00  0.00    +0.000 A 
ATOM     19  C   UNL     1       3.858   6.310  19.410  0.00  0.00    +0.000 A 
ENDBRANCH   6  14
BRANCH   1  20
ATOM     20  N   UNL     1       8.275   5.520  19.705  0.00  0.00    +0.000 N 
ATOM     21  H   UNL     1       9.051   6.050  20.125  0.00  0.00    +0.000 HD
ATOM     22  H   UNL     1       7.801   5.096  20.501  0.00  0.00    +0.000 HD
ENDBRANCH   1  20
TORSDOF 3
ENDMDL
MODEL 4
REMARK VINA RESULT:      -5.1      1.200      1.291
REMARK  Name = 
REMARK  3 active torsions:
REMARK  status: ('A' for Active; 'I' for Inactive)
REMARK    1  A    between atoms: N_1  and  N_2
REMARK    2  A    between atoms: C_5  and  C_6
REMARK    3  A    between atoms: C_13  and  C_14
REMARK                            x       y       z     vdW  Elec       q    Type
REMARK                         _______ _______ _______ _____ _____    ______ ____
ROOT
ATOM      1  N   UNL     1      11.312  14.643  16.770  0.00  0.00    +0.000 NA
ATOM      2  C   UNL     1      11.088  13.723  17.669  0.00  0.00    +0.000 C 
ATOM      3  C   UNL     1      11.982  13.363  18.885  0.00  0.00    +0.000 C 
ATOM      4  C   UNL     1      11.193  13.169  20.204  0.00  0.00    +0.000 C 
ATOM      5  S   UNL     1       9.979  11.845  19.903  0.00  0.00    +0.000 S 
ATOM      6  C   UNL     1       8.925  12.963  18.859  0.00  0.00    +0.000 C 
ATOM      7  C   UNL     1       9.735  13.020  17.538  0.00  0.00    +0.000 C 
ENDROOT
BRANCH   4   8
ATOM      8  C   UNL     1      10.261  14.334  20.558  0.00  0.00    +0.000 A 
ATOM      9  C   UNL     1       9.515  14.173  22.180  0.00  0.00    +0.000 A 
ATOM     10  C   UNL     1       9.311  15.460  23.316  0.00  0.00    +0.000 A 
ATOM     11  C   UNL     1       9.776  17.076  22.788  0.00  0.00    +0.000 A 
ATOM     12  C   UNL     1      10.525  17.359  20.933  0.00  0.00    +0.000 A 
ATOM     13  C   UNL     1      10.727  15.920  19.873  0.00  0.00    +0.000 A 
ENDBRANCH   4   8
BRANCH   6  14
ATOM     14  C   UNL     1       8.189  14.300  19.608  0.00  0.00    +0.000 A 
ATOM     15  C   UNL     1       7.014  14.688  21.229  0.00  0.00    +0.000 A 
ATOM     16  C   UNL     1       6.169  16.256  21.379  0.00  0.00    +0.000 A 
ATOM     17  C   UNL     1       6.375  17.424  20.104  0.00  0.00    +0.000 A 
ATOM     18  C   UNL     1       7.380  17.142  18.663  0.00  0.00    +0.000 A 
ATOM     19  C   UNL     1       8.285  15.640  18.376  0.00  0.00    +0.000 A 
ENDBRANCH   6  14
BRANCH   1  20
ATOM     20  N   UNL     1      12.332  15.522  16.894  0.00  0.00    +0.000 N 
ATOM     21  H   UNL     1      11.970  16.451  16.639  0.00  0.00    +0.000 HD
ATOM     22  H   UNL     1      12.699  15.645  17.836  0.00  0.00    +0.000 HD
ENDBRANCH   1  20
TORSDOF 3
ENDMDL
MODEL 5
REMARK VINA RESULT:      -5.1      1.754      3.037
REMARK  Name = 
REMARK  3 active torsions:
REMARK  status: ('A' for Active; 'I' for Inactive)
REMARK    1  A    between atoms: N_1  and  N_2
REMARK    2  A    between atoms: C_5  and  C_6
REMARK    3  A    between atoms: C_13  and  C_14
REMARK                            x       y       z     vdW  Elec       q    Type
REMARK                         _______ _______ _______ _____ _____    ______ ____
ROOT
ATOM      1  N   UNL     1       8.345  12.050  17.836  0.00  0.00    +0.000 NA
ATOM      2  C   UNL     1       9.597  12.226  18.166  0.00  0.00    +0.000 C 
ATOM      3  C   UNL     1      10.675  13.007  17.370  0.00  0.00    +0.000 C 
ATOM      4  C   UNL     1      11.544  13.942  18.249  0.00  0.00    +0.000 C 
ATOM      5  S   UNL     1      12.332  12.893  19.513  0.00  0.00    +0.000 S 
ATOM      6  C   UNL     1      10.733  12.696  20.437  0.00  0.00    +0.000 C 
ATOM      7  C   UNL     1       9.974  11.681  19.545  0.00  0.00    +0.000 C 
ENDROOT
BRANCH   4   8
ATOM      8  C   UNL     1      10.741  14.900  19.135  0.00  0.00    +0.000 A 
ATOM      9  C   UNL     1      11.763  16.117  19.964  0.00  0.00    +0.000 A 
ATOM     10  C   UNL     1      11.366  17.789  20.156  0.00  0.00    +0.000 A 
ATOM     11  C   UNL     1       9.782  18.307  19.584  0.00  0.00    +0.000 A 
ATOM     12  C   UNL     1       8.526  16.973  18.733  0.00  0.00    +0.000 A 
ATOM     13  C   UNL     1       9.089  15.273  18.556  0.00  0.00    +0.000 A 
ENDBRANCH   4   8
BRANCH   6  14
ATOM     14  C   UNL     1      10.041  14.079  21.144  0.00  0.00    +0.000 A 
ATOM     15  C   UNL     1      10.600  15.616  22.361  0.00  0.00    +0.000 A 
ATOM     16  C   UNL     1       9.365  16.646  23.143  0.00  0.00    +0.000 A 
ATOM     17  C   UNL     1       7.688  16.290  22.839  0.00  0.00    +0.000 A 
ATOM     18  C   UNL     1       7.138  14.960  21.793  0.00  0.00    +0.000 A 
ATOM     19  C   UNL     1       8.242  13.859  20.942  0.00  0.00    +0.000 A 
ENDBRANCH   6  14
BRANCH   1  20
ATOM     20  N   UNL     1       7.794  12.688  16.780  0.00  0.00    +0.000 N 
ATOM     21  H   UNL     1       6.841  12.319  16.659  0.00  0.00    +0.000 HD
ATOM     22  H   UNL     1       7.662  13.693  16.887  0.00  0.00    +0.000 HD
ENDBRANCH   1  20
TORSDOF 3
ENDMDL
MODEL 6
REMARK VINA RESULT:      -5.0      3.048      5.313
REMARK  Name = 
REMARK  3 active torsions:
REMARK  status: ('A' for Active; 'I' for Inactive)
REMARK    1  A    between atoms: N_1  and  N_2
REMARK    2  A    between atoms: C_5  and  C_6
REMARK    3  A    between atoms: C_13  and  C_14
REMARK                            x       y       z     vdW  Elec       q    Type
REMARK                         _______ _______ _______ _____ _____    ______ ____
ROOT
ATOM      1  N   UNL     1       8.902  15.375  23.513  0.00  0.00    +0.000 NA
ATOM      2  C   UNL     1       8.171  15.712  22.484  0.00  0.00    +0.000 C 
ATOM      3  C   UNL     1       8.195  17.061  21.718  0.00  0.00    +0.000 C 
ATOM      4  C   UNL     1       8.182  16.903  20.177  0.00  0.00    +0.000 C 
ATOM      5  S   UNL     1       6.678  15.968  19.754  0.00  0.00    +0.000 S 
ATOM      6  C   UNL     1       7.403  14.386  20.404  0.00  0.00    +0.000 C 
ATOM      7  C   UNL     1       7.286  14.589  21.937  0.00  0.00    +0.000 C 
ENDROOT
BRANCH   4   8
ATOM      8  C   UNL     1       9.263  15.965  19.630  0.00  0.00    +0.000 A 
ATOM      9  C   UNL     1       9.356  15.961  17.840  0.00  0.00    +0.000 A 
ATOM     10  C   UNL     1      10.817  15.955  16.917  0.00  0.00    +0.000 A 
ATOM     11  C   UNL     1      12.330  15.833  17.811  0.00  0.00    +0.000 A 
ATOM     12  C   UNL     1      12.307  15.723  19.829  0.00  0.00    +0.000 A 
ATOM     13  C   UNL     1      10.715  15.788  20.663  0.00  0.00    +0.000 A 
ENDBRANCH   4   8
BRANCH   6  14
ATOM     14  C   UNL     1       8.760  13.741  19.609  0.00  0.00    +0.000 A 
ATOM     15  C   UNL     1       9.324  13.234  17.716  0.00  0.00    +0.000 A 
ATOM     16  C   UNL     1      10.766  12.212  17.445  0.00  0.00    +0.000 A 
ATOM     17  C   UNL     1      11.656  11.664  18.837  0.00  0.00    +0.000 A 
ATOM     18  C   UNL     1      11.211  12.068  20.512  0.00  0.00    +0.000 A 
ATOM     19  C   UNL     1       9.814  13.077  20.940  0.00  0.00    +0.000 A 
ENDBRANCH   6  14
BRANCH   1  20
ATOM     20  N   UNL     1       9.913  16.159  23.950  0.00  0.00    +0.000 N 
ATOM     21  H   UNL     1       9.491  16.979  24.406  0.00  0.00    +0.000 HD
ATOM     22  H   UNL     1      10.511  15.753  24.668  0.00  0.00    +0.000 HD
ENDBRANCH   1  20
TORSDOF 3
ENDMDL
MODEL 7
REMARK VINA RESULT:      -5.0      2.162      4.062
REMARK  Name = 
REMARK  3 active torsions:
REMARK  status: ('A' for Active; 'I' for Inactive)
REMARK    1  A    between atoms: N_1  and  N_2
REMARK    2  A    between atoms: C_5  and  C_6
REMARK    3  A    between atoms: C_13  and  C_14
REMARK                            x       y       z     vdW  Elec       q    Type
REMARK                         _______ _______ _______ _____ _____    ______ ____
ROOT
ATOM      1  N   UNL     1      10.486  11.574  20.814  0.00  0.00    +0.000 NA
ATOM      2  C   UNL     1      10.649  12.187  19.672  0.00  0.00    +0.000 C 
ATOM      3  C   UNL     1       9.679  12.186  18.461  0.00  0.00    +0.000 C 
ATOM      4  C   UNL     1       9.466  13.586  17.832  0.00  0.00    +0.000 C 
ATOM      5  S   UNL     1      11.106  14.192  17.323  0.00  0.00    +0.000 S 
ATOM      6  C   UNL     1      11.603  14.514  19.083  0.00  0.00    +0.000 C 
ATOM      7  C   UNL     1      11.889  13.081  19.600  0.00  0.00    +0.000 C 
ENDROOT
BRANCH   4   8
ATOM      8  C   UNL     1       9.060  14.672  18.834  0.00  0.00    +0.000 A 
ATOM      9  C   UNL     1       8.614  16.222  18.053  0.00  0.00    +0.000 A 
ATOM     10  C   UNL     1       7.283  17.225  18.514  0.00  0.00    +0.000 A 
ATOM     11  C   UNL     1       6.363  16.733  19.934  0.00  0.00    +0.000 A 
ATOM     12  C   UNL     1       6.869  15.052  20.937  0.00  0.00    +0.000 A 
ATOM     13  C   UNL     1       8.249  14.080  20.316  0.00  0.00    +0.000 A 
ENDBRANCH   4   8
BRANCH   6  14
ATOM     14  C   UNL     1      10.757  15.710  19.948  0.00  0.00    +0.000 A 
ATOM     15  C   UNL     1      10.239  17.671  19.735  0.00  0.00    +0.000 A 
ATOM     16  C   UNL     1       9.652  18.608  21.140  0.00  0.00    +0.000 A 
ATOM     17  C   UNL     1       9.547  17.801  22.679  0.00  0.00    +0.000 A 
ATOM     18  C   UNL     1       9.989  16.096  22.929  0.00  0.00    +0.000 A 
ATOM     19  C   UNL     1      10.581  15.035  21.632  0.00  0.00    +0.000 A 
ENDBRANCH   6  14
BRANCH   1  20
ATOM     20  N   UNL     1       9.325  10.958  21.128  0.00  0.00    +0.000 N 
ATOM     21  H   UNL     1       9.448   9.954  20.940  0.00  0.00    +0.000 HD
ATOM     22  H   UNL     1       9.052  10.999  22.108  0.00  0.00    +0.000 HD
ENDBRANCH   1  20
TORSDOF 3
ENDMDL
MODEL 8
REMARK VINA RESULT:      -4.8      2.115      4.083
REMARK  Name = 
REMARK  3 active torsions:
REMARK  status: ('A' for Active; 'I' for Inactive)
REMARK    1  A    between atoms: N_1  and  N_2
REMARK    2  A    between atoms: C_5  and  C_6
REMARK    3  A    between atoms: C_13  and  C_14
REMARK                            x       y       z     vdW  Elec       q    Type
REMARK                         _______ _______ _______ _____ _____    ______ ____
ROOT
ATOM      1  N   UNL     1      11.782  12.487  18.182  0.00  0.00    +0.000 NA
ATOM      2  C   UNL     1      11.880  13.790  18.174  0.00  0.00    +0.000 C 
ATOM      3  C   UNL     1      11.487  14.752  17.022  0.00  0.00    +0.000 C 
ATOM      4  C   UNL     1      10.696  15.998  17.493  0.00  0.00    +0.000 C 
ATOM      5  S   UNL     1      11.747  16.863  18.703  0.00  0.00    +0.000 S 
ATOM      6  C   UNL     1      11.435  15.566  19.995  0.00  0.00    +0.000 C 
ATOM      7  C   UNL     1      12.333  14.402  19.501  0.00  0.00    +0.000 C 
ENDROOT
BRANCH   4   8
ATOM      8  C   UNL     1       9.472  15.678  18.358  0.00  0.00    +0.000 A 
ATOM      9  C   UNL     1       8.478  17.121  18.736  0.00  0.00    +0.000 A 
ATOM     10  C   UNL     1       6.751  17.174  18.726  0.00  0.00    +0.000 A 
ATOM     11  C   UNL     1       5.904  15.657  18.426  0.00  0.00    +0.000 A 
ATOM     12  C   UNL     1       6.952  13.961  18.097  0.00  0.00    +0.000 A 
ATOM     13  C   UNL     1       8.748  14.063  18.089  0.00  0.00    +0.000 A 
ENDBRANCH   4   8
BRANCH   6  14
ATOM     14  C   UNL     1       9.851  15.389  20.587  0.00  0.00    +0.000 A 
ATOM     15  C   UNL     1       8.364  16.559  21.346  0.00  0.00    +0.000 A 
ATOM     16  C   UNL     1       6.978  15.819  22.200  0.00  0.00    +0.000 A 
ATOM     17  C   UNL     1       6.947  14.086  22.365  0.00  0.00    +0.000 A 
ATOM     18  C   UNL     1       8.216  13.013  21.731  0.00  0.00    +0.000 A 
ATOM     19  C   UNL     1       9.648  13.597  20.855  0.00  0.00    +0.000 A 
ENDBRANCH   6  14
BRANCH   1  20
ATOM     20  N   UNL     1      11.159  11.817  17.187  0.00  0.00    +0.000 N 
ATOM     21  H   UNL     1      11.253  12.379  16.331  0.00  0.00    +0.000 HD
ATOM     22  H   UNL     1      11.560  10.914  16.940  0.00  0.00    +0.000 HD
ENDBRANCH   1  20
TORSDOF 3
ENDMDL
MODEL 9
REMARK VINA RESULT:      -4.8      2.233      4.271
REMARK  Name = 
REMARK  3 active torsions:
REMARK  status: ('A' for Active; 'I' for Inactive)
REMARK    1  A    between atoms: N_1  and  N_2
REMARK    2  A    between atoms: C_5  and  C_6
REMARK    3  A    between atoms: C_13  and  C_14
REMARK                            x       y       z     vdW  Elec       q    Type
REMARK                         _______ _______ _______ _____ _____    ______ ____
ROOT
ATOM      1  N   UNL     1       9.149  12.912  17.669  0.00  0.00    +0.000 NA
ATOM      2  C   UNL     1       9.804  13.972  18.061  0.00  0.00    +0.000 C 
ATOM      3  C   UNL     1       9.431  15.455  17.796  0.00  0.00    +0.000 C 
ATOM      4  C   UNL     1       9.566  16.364  19.044  0.00  0.00    +0.000 C 
ATOM      5  S   UNL     1      11.295  16.241  19.602  0.00  0.00    +0.000 S 
ATOM      6  C   UNL     1      11.023  14.529  20.269  0.00  0.00    +0.000 C 
ATOM      7  C   UNL     1      11.000  13.682  18.970  0.00  0.00    +0.000 C 
ENDROOT
BRANCH   4   8
ATOM      8  C   UNL     1       8.829  15.847  20.284  0.00  0.00    +0.000 A 
ATOM      9  C   UNL     1       8.766  17.042  21.617  0.00  0.00    +0.000 A 
ATOM     10  C   UNL     1       7.388  17.353  22.614  0.00  0.00    +0.000 A 
ATOM     11  C   UNL     1       5.972  16.334  22.365  0.00  0.00    +0.000 A 
ATOM     12  C   UNL     1       6.001  14.889  20.952  0.00  0.00    +0.000 A 
ATOM     13  C   UNL     1       7.487  14.709  19.955  0.00  0.00    +0.000 A 
ENDBRANCH   4   8
BRANCH   6  14
ATOM     14  C   UNL     1       9.951  14.338  21.575  0.00  0.00    +0.000 A 
ATOM     15  C   UNL     1       9.564  15.215  23.375  0.00  0.00    +0.000 A 
ATOM     16  C   UNL     1       8.546  14.382  24.586  0.00  0.00    +0.000 A 
ATOM     17  C   UNL     1       7.909  12.813  24.182  0.00  0.00    +0.000 A 
ATOM     18  C   UNL     1       8.215  11.994  22.632  0.00  0.00    +0.000 A 
ATOM     19  C   UNL     1       9.199  12.696  21.329  0.00  0.00    +0.000 A 
ENDBRANCH   6  14
BRANCH   1  20
ATOM     20  N   UNL     1       7.935  13.005  17.082  0.00  0.00    +0.000 N 
ATOM     21  H   UNL     1       7.782  12.137  16.550  0.00  0.00    +0.000 HD
ATOM     22  H   UNL     1       7.138  13.056  17.714  0.00  0.00    +0.000 HD
ENDBRANCH   1  20
TORSDOF 3
ENDMDL
