MODEL 1
REMARK VINA RESULT:      -8.1      0.000      0.000
REMARK  Name = 
REMARK  9 active torsions:
REMARK  status: ('A' for Active; 'I' for Inactive)
REMARK    1  A    between atoms: C_1  and  C_2
REMARK    2  A    between atoms: C_2  and  C_3
REMARK    3  A    between atoms: C_3  and  C_4
REMARK    4  A    between atoms: C_4  and  C_5
REMARK    5  A    between atoms: C_5  and  C_6
REMARK    6  A    between atoms: C_8  and  O_9
REMARK    7  A    between atoms: C_14  and  C_15
REMARK    8  A    between atoms: C_14  and  C_16
REMARK    9  A    between atoms: C_20  and  O_21
REMARK                            x       y       z     vdW  Elec       q    Type
REMARK                         _______ _______ _______ _____ _____    ______ ____
ROOT
ATOM      1  C   UNL     1       5.875   4.734  15.067  0.00  0.00    +0.000 A 
ATOM      2  C   UNL     1       5.602   6.015  15.534  0.00  0.00    +0.000 A 
ATOM      3  C   UNL     1       4.816   6.199  16.675  0.00  0.00    +0.000 A 
ATOM      4  C   UNL     1       4.250   5.109  17.368  0.00  0.00    +0.000 A 
ATOM      5  C   UNL     1       4.533   3.832  16.882  0.00  0.00    +0.000 A 
ATOM      6  C   UNL     1       5.342   3.641  15.750  0.00  0.00    +0.000 A 
ATOM      7  O   UNL     1       4.048   2.674  17.412  0.00  0.00    +0.000 OA
ATOM      8  C   UNL     1       3.304   2.712  18.643  0.00  0.00    +0.000 C 
ATOM      9  C   UNL     1       4.197   1.998  19.672  0.00  0.00    +0.000 C 
ATOM     10  C   UNL     1       2.043   1.883  18.352  0.00  0.00    +0.000 C 
ATOM     11  C   UNL     1       2.927   4.102  19.147  0.00  0.00    +0.000 C 
ATOM     12  C   UNL     1       3.361   5.230  18.547  0.00  0.00    +0.000 C 
ATOM     13  C   UNL     1       2.971   6.603  19.040  0.00  0.00    +0.000 C 
ATOM     14  C   UNL     1       1.857   6.619  20.087  0.00  0.00    +0.000 C 
ATOM     15  C   UNL     1       2.059   5.500  21.092  0.00  0.00    +0.000 C 
ATOM     16  C   UNL     1       2.034   4.156  20.376  0.00  0.00    +0.000 C 
ENDROOT
BRANCH   3  17
ATOM     17  O   UNL     1       4.624   7.491  17.084  0.00  0.00    +0.000 OA
ATOM     18  H   UNL     1       5.480   7.891  17.313  0.00  0.00    +0.000 HD
ENDBRANCH   3  17
BRANCH  14  19
ATOM     19  O   UNL     1       1.830   7.873  20.766  0.00  0.00    +0.000 OA
ATOM     20  H   UNL     1       1.378   7.737  21.617  0.00  0.00    +0.000 HD
ENDBRANCH  14  19
BRANCH   1  21
ATOM     21  C   UNL     1       6.717   4.537  13.835  0.00  0.00    +0.000 C 
BRANCH  21  22
ATOM     22  C   UNL     1       6.135   3.452  12.927  0.00  0.00    +0.000 C 
BRANCH  22  23
ATOM     23  C   UNL     1       4.838   3.927  12.288  0.00  0.00    +0.000 C 
BRANCH  23  25
ATOM     24  C   UNL     1       3.318   3.590  10.324  0.00  0.00    +0.000 C 
ATOM     25  C   UNL     1       4.353   2.943  11.227  0.00  0.00    +0.000 C 
ENDBRANCH  23  25
ENDBRANCH  22  23
ENDBRANCH  21  22
ENDBRANCH   1  21
TORSDOF 6
ENDMDL
MODEL 2
REMARK VINA RESULT:      -7.8      0.783      1.060
REMARK  Name = 
REMARK  9 active torsions:
REMARK  status: ('A' for Active; 'I' for Inactive)
REMARK    1  A    between atoms: C_1  and  C_2
REMARK    2  A    between atoms: C_2  and  C_3
REMARK    3  A    between atoms: C_3  and  C_4
REMARK    4  A    between atoms: C_4  and  C_5
REMARK    5  A    between atoms: C_5  and  C_6
REMARK    6  A    between atoms: C_8  and  O_9
REMARK    7  A    between atoms: C_14  and  C_15
REMARK    8  A    between atoms: C_14  and  C_16
REMARK    9  A    between atoms: C_20  and  O_21
REMARK                            x       y       z     vdW  Elec       q    Type
REMARK                         _______ _______ _______ _____ _____    ______ ____
ROOT
ATOM      1  C   UNL     1       5.771   4.767  15.219  0.00  0.00    +0.000 A 
ATOM      2  C   UNL     1       5.483   6.045  15.686  0.00  0.00    +0.000 A 
ATOM      3  C   UNL     1       4.701   6.218  16.832  0.00  0.00    +0.000 A 
ATOM      4  C   UNL     1       4.155   5.121  17.529  0.00  0.00    +0.000 A 
ATOM      5  C   UNL     1       4.453   3.848  17.042  0.00  0.00    +0.000 A 
ATOM      6  C   UNL     1       5.258   3.668  15.906  0.00  0.00    +0.000 A 
ATOM      7  O   UNL     1       3.988   2.683  17.575  0.00  0.00    +0.000 OA
ATOM      8  C   UNL     1       3.251   2.711  18.811  0.00  0.00    +0.000 C 
ATOM      9  C   UNL     1       4.159   2.010  19.835  0.00  0.00    +0.000 C 
ATOM     10  C   UNL     1       2.000   1.864  18.527  0.00  0.00    +0.000 C 
ATOM     11  C   UNL     1       2.856   4.096  19.317  0.00  0.00    +0.000 C 
ATOM     12  C   UNL     1       3.271   5.230  18.714  0.00  0.00    +0.000 C 
ATOM     13  C   UNL     1       2.864   6.597  19.208  0.00  0.00    +0.000 C 
ATOM     14  C   UNL     1       1.757   6.598  20.261  0.00  0.00    +0.000 C 
ATOM     15  C   UNL     1       1.981   5.483  21.266  0.00  0.00    +0.000 C 
ATOM     16  C   UNL     1       1.970   4.138  20.551  0.00  0.00    +0.000 C 
ENDROOT
BRANCH   3  17
ATOM     17  O   UNL     1       4.493   7.507  17.242  0.00  0.00    +0.000 OA
ATOM     18  H   UNL     1       5.285   8.040  17.055  0.00  0.00    +0.000 HD
ENDBRANCH   3  17
BRANCH  14  19
ATOM     19  O   UNL     1       1.716   7.852  20.940  0.00  0.00    +0.000 OA
ATOM     20  H   UNL     1       2.583   7.989  21.358  0.00  0.00    +0.000 HD
ENDBRANCH  14  19
BRANCH   1  21
ATOM     21  C   UNL     1       6.608   4.582  13.982  0.00  0.00    +0.000 C 
BRANCH  21  22
ATOM     22  C   UNL     1       5.771   4.064  12.811  0.00  0.00    +0.000 C 
BRANCH  22  23
ATOM     23  C   UNL     1       6.550   3.030  12.012  0.00  0.00    +0.000 C 
BRANCH  23  25
ATOM     24  C   UNL     1       6.389   0.714  11.067  0.00  0.00    +0.000 C 
ATOM     25  C   UNL     1       5.620   1.974  11.422  0.00  0.00    +0.000 C 
ENDBRANCH  23  25
ENDBRANCH  22  23
ENDBRANCH  21  22
ENDBRANCH   1  21
TORSDOF 6
ENDMDL
MODEL 3
REMARK VINA RESULT:      -7.6      0.988      1.161
REMARK  Name = 
REMARK  9 active torsions:
REMARK  status: ('A' for Active; 'I' for Inactive)
REMARK    1  A    between atoms: C_1  and  C_2
REMARK    2  A    between atoms: C_2  and  C_3
REMARK    3  A    between atoms: C_3  and  C_4
REMARK    4  A    between atoms: C_4  and  C_5
REMARK    5  A    between atoms: C_5  and  C_6
REMARK    6  A    between atoms: C_8  and  O_9
REMARK    7  A    between atoms: C_14  and  C_15
REMARK    8  A    between atoms: C_14  and  C_16
REMARK    9  A    between atoms: C_20  and  O_21
REMARK                            x       y       z     vdW  Elec       q    Type
REMARK                         _______ _______ _______ _____ _____    ______ ____
ROOT
ATOM      1  C   UNL     1       5.485   4.214  15.682  0.00  0.00    +0.000 A 
ATOM      2  C   UNL     1       5.383   5.589  15.862  0.00  0.00    +0.000 A 
ATOM      3  C   UNL     1       4.557   6.112  16.861  0.00  0.00    +0.000 A 
ATOM      4  C   UNL     1       3.780   5.278  17.691  0.00  0.00    +0.000 A 
ATOM      5  C   UNL     1       3.894   3.902  17.493  0.00  0.00    +0.000 A 
ATOM      6  C   UNL     1       4.741   3.371  16.507  0.00  0.00    +0.000 A 
ATOM      7  O   UNL     1       3.197   2.957  18.185  0.00  0.00    +0.000 OA
ATOM      8  C   UNL     1       2.383   3.351  19.304  0.00  0.00    +0.000 C 
ATOM      9  C   UNL     1       3.078   2.748  20.536  0.00  0.00    +0.000 C 
ATOM     10  C   UNL     1       1.032   2.663  19.053  0.00  0.00    +0.000 C 
ATOM     11  C   UNL     1       2.193   4.854  19.489  0.00  0.00    +0.000 C 
ATOM     12  C   UNL     1       2.839   5.762  18.729  0.00  0.00    +0.000 C 
ATOM     13  C   UNL     1       2.635   7.248  18.905  0.00  0.00    +0.000 C 
ATOM     14  C   UNL     1       1.467   7.634  19.811  0.00  0.00    +0.000 C 
ATOM     15  C   UNL     1       1.419   6.730  21.029  0.00  0.00    +0.000 C 
ATOM     16  C   UNL     1       1.234   5.284  20.587  0.00  0.00    +0.000 C 
ENDROOT
BRANCH   3  17
ATOM     17  O   UNL     1       4.541   7.475  16.991  0.00  0.00    +0.000 OA
ATOM     18  H   UNL     1       4.653   7.887  16.118  0.00  0.00    +0.000 HD
ENDBRANCH   3  17
BRANCH  14  19
ATOM     19  O   UNL     1       1.588   8.993  20.228  0.00  0.00    +0.000 OA
ATOM     20  H   UNL     1       0.701   9.303  20.482  0.00  0.00    +0.000 HD
ENDBRANCH  14  19
BRANCH   1  21
ATOM     21  C   UNL     1       6.370   3.652  14.603  0.00  0.00    +0.000 C 
BRANCH  21  22
ATOM     22  C   UNL     1       6.343   4.523  13.346  0.00  0.00    +0.000 C 
BRANCH  22  23
ATOM     23  C   UNL     1       6.678   3.696  12.113  0.00  0.00    +0.000 C 
BRANCH  23  25
ATOM     24  C   UNL     1       4.296   3.285  11.452  0.00  0.00    +0.000 C 
ATOM     25  C   UNL     1       5.610   2.638  11.851  0.00  0.00    +0.000 C 
ENDBRANCH  23  25
ENDBRANCH  22  23
ENDBRANCH  21  22
ENDBRANCH   1  21
TORSDOF 6
ENDMDL
MODEL 4
REMARK VINA RESULT:      -7.3      2.852      6.226
REMARK  Name = 
REMARK  9 active torsions:
REMARK  status: ('A' for Active; 'I' for Inactive)
REMARK    1  A    between atoms: C_1  and  C_2
REMARK    2  A    between atoms: C_2  and  C_3
REMARK    3  A    between atoms: C_3  and  C_4
REMARK    4  A    between atoms: C_4  and  C_5
REMARK    5  A    between atoms: C_5  and  C_6
REMARK    6  A    between atoms: C_8  and  O_9
REMARK    7  A    between atoms: C_14  and  C_15
REMARK    8  A    between atoms: C_14  and  C_16
REMARK    9  A    between atoms: C_20  and  O_21
REMARK                            x       y       z     vdW  Elec       q    Type
REMARK                         _______ _______ _______ _____ _____    ______ ____
ROOT
ATOM      1  C   UNL     1       2.167   8.972  18.394  0.00  0.00    +0.000 A 
ATOM      2  C   UNL     1       1.635   8.442  19.565  0.00  0.00    +0.000 A 
ATOM      3  C   UNL     1       1.977   7.150  19.975  0.00  0.00    +0.000 A 
ATOM      4  C   UNL     1       2.835   6.333  19.210  0.00  0.00    +0.000 A 
ATOM      5  C   UNL     1       3.355   6.882  18.038  0.00  0.00    +0.000 A 
ATOM      6  C   UNL     1       3.034   8.188  17.635  0.00  0.00    +0.000 A 
ATOM      7  O   UNL     1       4.175   6.226  17.169  0.00  0.00    +0.000 OA
ATOM      8  C   UNL     1       4.681   4.924  17.516  0.00  0.00    +0.000 C 
ATOM      9  C   UNL     1       6.193   5.121  17.713  0.00  0.00    +0.000 C 
ATOM     10  C   UNL     1       4.404   4.064  16.272  0.00  0.00    +0.000 C 
ATOM     11  C   UNL     1       4.067   4.282  18.757  0.00  0.00    +0.000 C 
ATOM     12  C   UNL     1       3.193   4.936  19.551  0.00  0.00    +0.000 C 
ATOM     13  C   UNL     1       2.576   4.292  20.769  0.00  0.00    +0.000 C 
ATOM     14  C   UNL     1       2.805   2.785  20.885  0.00  0.00    +0.000 C 
ATOM     15  C   UNL     1       4.231   2.435  20.504  0.00  0.00    +0.000 C 
ATOM     16  C   UNL     1       4.496   2.857  19.064  0.00  0.00    +0.000 C 
ENDROOT
BRANCH   3  17
ATOM     17  O   UNL     1       1.434   6.719  21.155  0.00  0.00    +0.000 OA
ATOM     18  H   UNL     1       1.735   5.812  21.340  0.00  0.00    +0.000 HD
ENDBRANCH   3  17
BRANCH  14  19
ATOM     19  O   UNL     1       2.543   2.343  22.216  0.00  0.00    +0.000 OA
ATOM     20  H   UNL     1       2.863   1.427  22.290  0.00  0.00    +0.000 HD
ENDBRANCH  14  19
BRANCH   1  21
ATOM     21  C   UNL     1       1.795  10.362  17.951  0.00  0.00    +0.000 C 
BRANCH  21  22
ATOM     22  C   UNL     1       1.018  11.106  19.038  0.00  0.00    +0.000 C 
BRANCH  22  23
ATOM     23  C   UNL     1      -0.342  11.548  18.517  0.00  0.00    +0.000 C 
BRANCH  23  25
ATOM     24  C   UNL     1      -1.768   9.937  17.232  0.00  0.00    +0.000 C 
ATOM     25  C   UNL     1      -1.363  10.418  18.613  0.00  0.00    +0.000 C 
ENDBRANCH  23  25
ENDBRANCH  22  23
ENDBRANCH  21  22
ENDBRANCH   1  21
TORSDOF 6
ENDMDL
MODEL 5
REMARK VINA RESULT:      -7.2      2.721      7.461
REMARK  Name = 
REMARK  9 active torsions:
REMARK  status: ('A' for Active; 'I' for Inactive)
REMARK    1  A    between atoms: C_1  and  C_2
REMARK    2  A    between atoms: C_2  and  C_3
REMARK    3  A    between atoms: C_3  and  C_4
REMARK    4  A    between atoms: C_4  and  C_5
REMARK    5  A    between atoms: C_5  and  C_6
REMARK    6  A    between atoms: C_8  and  O_9
REMARK    7  A    between atoms: C_14  and  C_15
REMARK    8  A    between atoms: C_14  and  C_16
REMARK    9  A    between atoms: C_20  and  O_21
REMARK                            x       y       z     vdW  Elec       q    Type
REMARK                         _______ _______ _______ _____ _____    ______ ____
ROOT
ATOM      1  C   UNL     1       1.244   7.628  20.632  0.00  0.00    +0.000 A 
ATOM      2  C   UNL     1       1.852   8.338  19.602  0.00  0.00    +0.000 A 
ATOM      3  C   UNL     1       2.658   7.679  18.669  0.00  0.00    +0.000 A 
ATOM      4  C   UNL     1       2.909   6.294  18.755  0.00  0.00    +0.000 A 
ATOM      5  C   UNL     1       2.292   5.601  19.796  0.00  0.00    +0.000 A 
ATOM      6  C   UNL     1       1.463   6.254  20.722  0.00  0.00    +0.000 A 
ATOM      7  O   UNL     1       2.447   4.269  20.043  0.00  0.00    +0.000 OA
ATOM      8  C   UNL     1       3.173   3.453  19.106  0.00  0.00    +0.000 C 
ATOM      9  C   UNL     1       2.120   2.513  18.495  0.00  0.00    +0.000 C 
ATOM     10  C   UNL     1       4.164   2.664  19.977  0.00  0.00    +0.000 C 
ATOM     11  C   UNL     1       3.911   4.206  18.003  0.00  0.00    +0.000 C 
ATOM     12  C   UNL     1       3.797   5.540  17.839  0.00  0.00    +0.000 C 
ATOM     13  C   UNL     1       4.542   6.283  16.756  0.00  0.00    +0.000 C 
ATOM     14  C   UNL     1       5.618   5.468  16.040  0.00  0.00    +0.000 C 
ATOM     15  C   UNL     1       5.122   4.060  15.766  0.00  0.00    +0.000 C 
ATOM     16  C   UNL     1       4.785   3.370  17.082  0.00  0.00    +0.000 C 
ENDROOT
BRANCH   3  17
ATOM     17  O   UNL     1       3.191   8.447  17.670  0.00  0.00    +0.000 OA
ATOM     18  H   UNL     1       3.829   9.076  18.047  0.00  0.00    +0.000 HD
ENDBRANCH   3  17
BRANCH  14  19
ATOM     19  O   UNL     1       5.982   6.094  14.811  0.00  0.00    +0.000 OA
ATOM     20  H   UNL     1       5.162   6.364  14.363  0.00  0.00    +0.000 HD
ENDBRANCH  14  19
BRANCH   1  21
ATOM     21  C   UNL     1       0.381   8.340  21.639  0.00  0.00    +0.000 C 
BRANCH  21  22
ATOM     22  C   UNL     1      -0.271   9.585  21.037  0.00  0.00    +0.000 C 
BRANCH  22  23
ATOM     23  C   UNL     1      -0.121  10.775  21.974  0.00  0.00    +0.000 C 
BRANCH  23  25
ATOM     24  C   UNL     1      -2.104  11.820  23.095  0.00  0.00    +0.000 C 
ATOM     25  C   UNL     1      -1.098  10.684  23.142  0.00  0.00    +0.000 C 
ENDBRANCH  23  25
ENDBRANCH  22  23
ENDBRANCH  21  22
ENDBRANCH   1  21
TORSDOF 6
ENDMDL
MODEL 6
REMARK VINA RESULT:      -7.1      3.334      6.110
REMARK  Name = 
REMARK  9 active torsions:
REMARK  status: ('A' for Active; 'I' for Inactive)
REMARK    1  A    between atoms: C_1  and  C_2
REMARK    2  A    between atoms: C_2  and  C_3
REMARK    3  A    between atoms: C_3  and  C_4
REMARK    4  A    between atoms: C_4  and  C_5
REMARK    5  A    between atoms: C_5  and  C_6
REMARK    6  A    between atoms: C_8  and  O_9
REMARK    7  A    between atoms: C_14  and  C_15
REMARK    8  A    between atoms: C_14  and  C_16
REMARK    9  A    between atoms: C_20  and  O_21
REMARK                            x       y       z     vdW  Elec       q    Type
REMARK                         _______ _______ _______ _____ _____    ______ ____
ROOT
ATOM      1  C   UNL     1       3.402   6.029  17.950  0.00  0.00    +0.000 A 
ATOM      2  C   UNL     1       3.099   5.673  19.260  0.00  0.00    +0.000 A 
ATOM      3  C   UNL     1       2.374   6.544  20.079  0.00  0.00    +0.000 A 
ATOM      4  C   UNL     1       1.958   7.812  19.626  0.00  0.00    +0.000 A 
ATOM      5  C   UNL     1       2.274   8.152  18.311  0.00  0.00    +0.000 A 
ATOM      6  C   UNL     1       2.981   7.271  17.476  0.00  0.00    +0.000 A 
ATOM      7  O   UNL     1       1.974   9.343  17.721  0.00  0.00    +0.000 OA
ATOM      8  C   UNL     1       1.148  10.293  18.420  0.00  0.00    +0.000 C 
ATOM      9  C   UNL     1      -0.161  10.353  17.615  0.00  0.00    +0.000 C 
ATOM     10  C   UNL     1       1.916  11.620  18.306  0.00  0.00    +0.000 C 
ATOM     11  C   UNL     1       0.855   9.968  19.882  0.00  0.00    +0.000 C 
ATOM     12  C   UNL     1       1.240   8.809  20.455  0.00  0.00    +0.000 C 
ATOM     13  C   UNL     1       0.961   8.499  21.907  0.00  0.00    +0.000 C 
ATOM     14  C   UNL     1       0.454   9.682  22.731  0.00  0.00    +0.000 C 
ATOM     15  C   UNL     1      -0.559  10.486  21.937  0.00  0.00    +0.000 C 
ATOM     16  C   UNL     1       0.092  11.022  20.669  0.00  0.00    +0.000 C 
ENDROOT
BRANCH   3  17
ATOM     17  O   UNL     1       2.091   6.102  21.343  0.00  0.00    +0.000 OA
ATOM     18  H   UNL     1       2.550   6.660  21.994  0.00  0.00    +0.000 HD
ENDBRANCH   3  17
BRANCH  14  19
ATOM     19  O   UNL     1      -0.143   9.225  23.943  0.00  0.00    +0.000 OA
ATOM     20  H   UNL     1       0.311   9.669  24.680  0.00  0.00    +0.000 HD
ENDBRANCH  14  19
BRANCH   1  21
ATOM     21  C   UNL     1       4.186   5.093  17.070  0.00  0.00    +0.000 C 
BRANCH  21  22
ATOM     22  C   UNL     1       5.322   4.419  17.843  0.00  0.00    +0.000 C 
BRANCH  22  23
ATOM     23  C   UNL     1       6.673   4.834  17.280  0.00  0.00    +0.000 C 
BRANCH  23  25
ATOM     24  C   UNL     1       7.434   7.206  17.555  0.00  0.00    +0.000 C 
ATOM     25  C   UNL     1       7.370   5.833  18.199  0.00  0.00    +0.000 C 
ENDBRANCH  23  25
ENDBRANCH  22  23
ENDBRANCH  21  22
ENDBRANCH   1  21
TORSDOF 6
ENDMDL
MODEL 7
REMARK VINA RESULT:      -7.1      3.244      6.097
REMARK  Name = 
REMARK  9 active torsions:
REMARK  status: ('A' for Active; 'I' for Inactive)
REMARK    1  A    between atoms: C_1  and  C_2
REMARK    2  A    between atoms: C_2  and  C_3
REMARK    3  A    between atoms: C_3  and  C_4
REMARK    4  A    between atoms: C_4  and  C_5
REMARK    5  A    between atoms: C_5  and  C_6
REMARK    6  A    between atoms: C_8  and  O_9
REMARK    7  A    between atoms: C_14  and  C_15
REMARK    8  A    between atoms: C_14  and  C_16
REMARK    9  A    between atoms: C_20  and  O_21
REMARK                            x       y       z     vdW  Elec       q    Type
REMARK                         _______ _______ _______ _____ _____    ______ ____
ROOT
ATOM      1  C   UNL     1       3.271   5.980  17.991  0.00  0.00    +0.000 A 
ATOM      2  C   UNL     1       3.035   5.639  19.318  0.00  0.00    +0.000 A 
ATOM      3  C   UNL     1       2.338   6.511  20.159  0.00  0.00    +0.000 A 
ATOM      4  C   UNL     1       1.882   7.767  19.710  0.00  0.00    +0.000 A 
ATOM      5  C   UNL     1       2.132   8.092  18.377  0.00  0.00    +0.000 A 
ATOM      6  C   UNL     1       2.811   7.210  17.522  0.00  0.00    +0.000 A 
ATOM      7  O   UNL     1       1.787   9.272  17.787  0.00  0.00    +0.000 OA
ATOM      8  C   UNL     1       0.982  10.220  18.511  0.00  0.00    +0.000 C 
ATOM      9  C   UNL     1      -0.364  10.251  17.768  0.00  0.00    +0.000 C 
ATOM     10  C   UNL     1       1.724  11.556  18.343  0.00  0.00    +0.000 C 
ATOM     11  C   UNL     1       0.762   9.911  19.989  0.00  0.00    +0.000 C 
ATOM     12  C   UNL     1       1.190   8.766  20.559  0.00  0.00    +0.000 C 
ATOM     13  C   UNL     1       0.985   8.472  22.026  0.00  0.00    +0.000 C 
ATOM     14  C   UNL     1       0.500   9.659  22.857  0.00  0.00    +0.000 C 
ATOM     15  C   UNL     1      -0.560  10.438  22.102  0.00  0.00    +0.000 C 
ATOM     16  C   UNL     1       0.023  10.965  20.797  0.00  0.00    +0.000 C 
ENDROOT
BRANCH   3  17
ATOM     17  O   UNL     1       2.121   6.082  21.441  0.00  0.00    +0.000 OA
ATOM     18  H   UNL     1       2.782   6.479  22.034  0.00  0.00    +0.000 HD
ENDBRANCH   3  17
BRANCH  14  19
ATOM     19  O   UNL     1      -0.033   9.210  24.102  0.00  0.00    +0.000 OA
ATOM     20  H   UNL     1       0.592   9.471  24.801  0.00  0.00    +0.000 HD
ENDBRANCH  14  19
BRANCH   1  21
ATOM     21  C   UNL     1       4.027   5.043  17.088  0.00  0.00    +0.000 C 
BRANCH  21  22
ATOM     22  C   UNL     1       3.968   3.603  17.600  0.00  0.00    +0.000 C 
BRANCH  22  23
ATOM     23  C   UNL     1       2.624   2.971  17.266  0.00  0.00    +0.000 C 
BRANCH  23  25
ATOM     24  C   UNL     1       0.732   2.588  18.865  0.00  0.00    +0.000 C 
ATOM     25  C   UNL     1       2.110   2.124  18.427  0.00  0.00    +0.000 C 
ENDBRANCH  23  25
ENDBRANCH  22  23
ENDBRANCH  21  22
ENDBRANCH   1  21
TORSDOF 6
ENDMDL
MODEL 8
REMARK VINA RESULT:      -7.1      2.902      7.644
REMARK  Name = 
REMARK  9 active torsions:
REMARK  status: ('A' for Active; 'I' for Inactive)
REMARK    1  A    between atoms: C_1  and  C_2
REMARK    2  A    between atoms: C_2  and  C_3
REMARK    3  A    between atoms: C_3  and  C_4
REMARK    4  A    between atoms: C_4  and  C_5
REMARK    5  A    between atoms: C_5  and  C_6
REMARK    6  A    between atoms: C_8  and  O_9
REMARK    7  A    between atoms: C_14  and  C_15
REMARK    8  A    between atoms: C_14  and  C_16
REMARK    9  A    between atoms: C_20  and  O_21
REMARK                            x       y       z     vdW  Elec       q    Type
REMARK                         _______ _______ _______ _____ _____    ______ ____
ROOT
ATOM      1  C   UNL     1       1.180   8.495  20.544  0.00  0.00    +0.000 A 
ATOM      2  C   UNL     1       1.912   8.716  19.383  0.00  0.00    +0.000 A 
ATOM      3  C   UNL     1       2.505   7.645  18.707  0.00  0.00    +0.000 A 
ATOM      4  C   UNL     1       2.414   6.323  19.188  0.00  0.00    +0.000 A 
ATOM      5  C   UNL     1       1.677   6.123  20.356  0.00  0.00    +0.000 A 
ATOM      6  C   UNL     1       1.059   7.192  21.025  0.00  0.00    +0.000 A 
ATOM      7  O   UNL     1       1.510   4.919  20.973  0.00  0.00    +0.000 OA
ATOM      8  C   UNL     1       1.987   3.721  20.334  0.00  0.00    +0.000 C 
ATOM      9  C   UNL     1       0.720   2.931  19.969  0.00  0.00    +0.000 C 
ATOM     10  C   UNL     1       2.781   2.995  21.432  0.00  0.00    +0.000 C 
ATOM     11  C   UNL     1       2.854   3.930  19.095  0.00  0.00    +0.000 C 
ATOM     12  C   UNL     1       3.065   5.150  18.559  0.00  0.00    +0.000 C 
ATOM     13  C   UNL     1       3.936   5.354  17.343  0.00  0.00    +0.000 C 
ATOM     14  C   UNL     1       4.760   4.134  16.930  0.00  0.00    +0.000 C 
ATOM     15  C   UNL     1       3.928   2.871  17.042  0.00  0.00    +0.000 C 
ATOM     16  C   UNL     1       3.471   2.683  18.483  0.00  0.00    +0.000 C 
ENDROOT
BRANCH   3  17
ATOM     17  O   UNL     1       3.180   7.947  17.555  0.00  0.00    +0.000 OA
ATOM     18  H   UNL     1       2.838   7.404  16.825  0.00  0.00    +0.000 HD
ENDBRANCH   3  17
BRANCH  14  19
ATOM     19  O   UNL     1       5.230   4.280  15.591  0.00  0.00    +0.000 OA
ATOM     20  H   UNL     1       5.582   3.419  15.307  0.00  0.00    +0.000 HD
ENDBRANCH  14  19
BRANCH   1  21
ATOM     21  C   UNL     1       0.546   9.648  21.274  0.00  0.00    +0.000 C 
BRANCH  21  22
ATOM     22  C   UNL     1       0.054   9.231  22.661  0.00  0.00    +0.000 C 
BRANCH  22  23
ATOM     23  C   UNL     1      -0.889  10.280  23.232  0.00  0.00    +0.000 C 
BRANCH  23  25
ATOM     24  C   UNL     1      -2.025  12.478  22.833  0.00  0.00    +0.000 C 
ATOM     25  C   UNL     1      -1.034  11.467  22.285  0.00  0.00    +0.000 C 
ENDBRANCH  23  25
ENDBRANCH  22  23
ENDBRANCH  21  22
ENDBRANCH   1  21
TORSDOF 6
ENDMDL
MODEL 9
REMARK VINA RESULT:      -7.0      2.925      5.639
REMARK  Name = 
REMARK  9 active torsions:
REMARK  status: ('A' for Active; 'I' for Inactive)
REMARK    1  A    between atoms: C_1  and  C_2
REMARK    2  A    between atoms: C_2  and  C_3
REMARK    3  A    between atoms: C_3  and  C_4
REMARK    4  A    between atoms: C_4  and  C_5
REMARK    5  A    between atoms: C_5  and  C_6
REMARK    6  A    between atoms: C_8  and  O_9
REMARK    7  A    between atoms: C_14  and  C_15
REMARK    8  A    between atoms: C_14  and  C_16
REMARK    9  A    between atoms: C_20  and  O_21
REMARK                            x       y       z     vdW  Elec       q    Type
REMARK                         _______ _______ _______ _____ _____    ______ ____
ROOT
ATOM      1  C   UNL     1       3.331   5.872  17.987  0.00  0.00    +0.000 A 
ATOM      2  C   UNL     1       3.037   5.538  19.305  0.00  0.00    +0.000 A 
ATOM      3  C   UNL     1       2.339   6.433  20.121  0.00  0.00    +0.000 A 
ATOM      4  C   UNL     1       1.941   7.704  19.656  0.00  0.00    +0.000 A 
ATOM      5  C   UNL     1       2.248   8.020  18.333  0.00  0.00    +0.000 A 
ATOM      6  C   UNL     1       2.928   7.115  17.502  0.00  0.00    +0.000 A 
ATOM      7  O   UNL     1       1.964   9.210  17.731  0.00  0.00    +0.000 OA
ATOM      8  C   UNL     1       1.165  10.184  18.427  0.00  0.00    +0.000 C 
ATOM      9  C   UNL     1      -0.152  10.259  17.636  0.00  0.00    +0.000 C 
ATOM     10  C   UNL     1       1.956  11.495  18.287  0.00  0.00    +0.000 C 
ATOM     11  C   UNL     1       0.882   9.884  19.896  0.00  0.00    +0.000 C 
ATOM     12  C   UNL     1       1.252   8.725  20.480  0.00  0.00    +0.000 C 
ATOM     13  C   UNL     1       0.984   8.439  21.938  0.00  0.00    +0.000 C 
ATOM     14  C   UNL     1       0.509   9.641  22.753  0.00  0.00    +0.000 C 
ATOM     15  C   UNL     1      -0.497  10.454  21.960  0.00  0.00    +0.000 C 
ATOM     16  C   UNL     1       0.149  10.961  20.678  0.00  0.00    +0.000 C 
ENDROOT
BRANCH   3  17
ATOM     17  O   UNL     1       2.062   6.013  21.394  0.00  0.00    +0.000 OA
ATOM     18  H   UNL     1       1.500   6.670  21.839  0.00  0.00    +0.000 HD
ENDBRANCH   3  17
BRANCH  14  19
ATOM     19  O   UNL     1      -0.082   9.211  23.978  0.00  0.00    +0.000 OA
ATOM     20  H   UNL     1      -1.040   9.371  23.915  0.00  0.00    +0.000 HD
ENDBRANCH  14  19
BRANCH   1  21
ATOM     21  C   UNL     1       4.088   4.910  17.111  0.00  0.00    +0.000 C 
BRANCH  21  22
ATOM     22  C   UNL     1       5.549   4.788  17.544  0.00  0.00    +0.000 C 
BRANCH  22  23
ATOM     23  C   UNL     1       6.478   4.953  16.350  0.00  0.00    +0.000 C 
BRANCH  23  25
ATOM     24  C   UNL     1       6.028   4.053  14.055  0.00  0.00    +0.000 C 
ATOM     25  C   UNL     1       5.688   5.140  15.058  0.00  0.00    +0.000 C 
ENDBRANCH  23  25
ENDBRANCH  22  23
ENDBRANCH  21  22
ENDBRANCH   1  21
TORSDOF 6
ENDMDL
