MODEL 1
REMARK VINA RESULT:      -6.4      0.000      0.000
REMARK  Name = 
REMARK  14 active torsions:
REMARK  status: ('A' for Active; 'I' for Inactive)
REMARK    1  A    between atoms: C_1  and  C_2
REMARK    2  A    between atoms: C_2  and  C_3
REMARK    3  A    between atoms: C_3  and  C_4
REMARK    4  A    between atoms: C_3  and  O_6
REMARK    5  A    between atoms: C_4  and  C_5
REMARK    6  A    between atoms: O_6  and  C_7
REMARK    7  A    between atoms: C_9  and  C_10
REMARK    8  A    between atoms: C_10  and  O_12
REMARK    9  A    between atoms: C_14  and  N_15
REMARK   10  A    between atoms: N_15  and  C_16
REMARK   11  A    between atoms: C_16  and  N_18
REMARK   12  A    between atoms: N_18  and  C_19
REMARK   13  A    between atoms: C_22  and  N_23
REMARK   14  A    between atoms: C_24  and  C_25
REMARK                            x       y       z     vdW  Elec       q    Type
REMARK                         _______ _______ _______ _____ _____    ______ ____
ROOT
ATOM      1  C   UNL     1       5.537   5.638  16.232  0.00  0.00    +0.000 C 
ATOM      2  C   UNL     1       6.803   5.774  17.052  0.00  0.00    +0.000 C 
ATOM      3  C   UNL     1       6.833   5.712  18.399  0.00  0.00    +0.000 C 
ATOM      4  C   UNL     1       5.591   5.412  19.212  0.00  0.00    +0.000 C 
ATOM      5  C   UNL     1       4.402   4.872  18.387  0.00  0.00    +0.000 C 
ATOM      6  C   UNL     1       4.237   5.718  17.094  0.00  0.00    +0.000 C 
ENDROOT
BRANCH   6   7
ATOM      7  N   UNL     1       3.915   7.136  17.378  0.00  0.00    +0.000 N 
ATOM      8  C   UNL     1       2.702   7.540  17.890  0.00  0.00    +0.000 C 
ATOM      9  C   UNL     1       2.541   9.028  17.996  0.00  0.00    +0.000 C 
ATOM     10  O   UNL     1       1.811   6.762  18.209  0.00  0.00    +0.000 OA
ATOM     11  H   UNL     1       4.507   7.853  16.981  0.00  0.00    +0.000 HD
ENDBRANCH   6   7
BRANCH   3  12
ATOM     12  C   UNL     1       8.031   6.014  19.240  0.00  0.00    +0.000 C 
ATOM     13  O   UNL     1       8.485   5.203  20.036  0.00  0.00    +0.000 OA
BRANCH  12  14
ATOM     14  O   UNL     1       8.573   7.230  19.073  0.00  0.00    +0.000 OA
ATOM     15  H   UNL     1       8.507   7.831  19.832  0.00  0.00    +0.000 HD
ENDBRANCH  12  14
ENDBRANCH   3  12
BRANCH   5  16
ATOM     16  N   UNL     1       4.568   3.421  18.166  0.00  0.00    +0.000 N 
ATOM     17  H   UNL     1       4.888   3.129  17.248  0.00  0.00    +0.000 HD
BRANCH  16  18
ATOM     18  C   UNL     1       4.067   2.382  18.903  0.00  0.00    +0.000 C 
ATOM     19  S   UNL     1       4.688   1.750  20.311  0.00  0.00    +0.000 S 
BRANCH  18  20
ATOM     20  N   UNL     1       2.930   1.819  18.364  0.00  0.00    +0.000 N 
ATOM     21  H   UNL     1       3.123   1.092  17.681  0.00  0.00    +0.000 HD
BRANCH  20  22
ATOM     22  C   UNL     1       1.711   2.558  18.173  0.00  0.00    +0.000 C 
ATOM     23  C   UNL     1       0.449   2.136  18.877  0.00  0.00    +0.000 C 
ATOM     24  C   UNL     1       1.149   3.403  19.275  0.00  0.00    +0.000 C 
ENDBRANCH  20  22
ENDBRANCH  18  20
ENDBRANCH  16  18
ENDBRANCH   5  16
BRANCH   1  25
ATOM     25  O   UNL     1       5.686   4.453  15.447  0.00  0.00    +0.000 OA
BRANCH  25  26
ATOM     26  C   UNL     1       5.960   4.631  14.042  0.00  0.00    +0.000 C 
BRANCH  26  28
ATOM     27  C   UNL     1       8.077   5.617  12.966  0.00  0.00    +0.000 C 
ATOM     28  C   UNL     1       7.457   4.452  13.720  0.00  0.00    +0.000 C 
ENDBRANCH  26  28
BRANCH  26  29
ATOM     29  C   UNL     1       5.076   3.638  13.269  0.00  0.00    +0.000 C 
ATOM     30  C   UNL     1       5.772   3.059  12.042  0.00  0.00    +0.000 C 
ENDBRANCH  26  29
ENDBRANCH  25  26
ENDBRANCH   1  25
TORSDOF 11
ENDMDL
MODEL 2
REMARK VINA RESULT:      -6.4      2.413      5.776
REMARK  Name = 
REMARK  14 active torsions:
REMARK  status: ('A' for Active; 'I' for Inactive)
REMARK    1  A    between atoms: C_1  and  C_2
REMARK    2  A    between atoms: C_2  and  C_3
REMARK    3  A    between atoms: C_3  and  C_4
REMARK    4  A    between atoms: C_3  and  O_6
REMARK    5  A    between atoms: C_4  and  C_5
REMARK    6  A    between atoms: O_6  and  C_7
REMARK    7  A    between atoms: C_9  and  C_10
REMARK    8  A    between atoms: C_10  and  O_12
REMARK    9  A    between atoms: C_14  and  N_15
REMARK   10  A    between atoms: N_15  and  C_16
REMARK   11  A    between atoms: C_16  and  N_18
REMARK   12  A    between atoms: N_18  and  C_19
REMARK   13  A    between atoms: C_22  and  N_23
REMARK   14  A    between atoms: C_24  and  C_25
REMARK                            x       y       z     vdW  Elec       q    Type
REMARK                         _______ _______ _______ _____ _____    ______ ____
ROOT
ATOM      1  C   UNL     1       4.276   5.113  18.428  0.00  0.00    +0.000 C 
ATOM      2  C   UNL     1       5.491   5.935  18.807  0.00  0.00    +0.000 C 
ATOM      3  C   UNL     1       6.753   5.615  18.454  0.00  0.00    +0.000 C 
ATOM      4  C   UNL     1       7.054   4.429  17.560  0.00  0.00    +0.000 C 
ATOM      5  C   UNL     1       5.820   3.840  16.842  0.00  0.00    +0.000 C 
ATOM      6  C   UNL     1       4.644   3.710  17.849  0.00  0.00    +0.000 C 
ENDROOT
BRANCH   6   7
ATOM      7  N   UNL     1       4.944   2.777  18.959  0.00  0.00    +0.000 N 
ATOM      8  C   UNL     1       3.973   2.260  19.788  0.00  0.00    +0.000 C 
ATOM      9  C   UNL     1       4.503   1.426  20.916  0.00  0.00    +0.000 C 
ATOM     10  O   UNL     1       2.776   2.481  19.644  0.00  0.00    +0.000 OA
ATOM     11  H   UNL     1       5.904   2.687  19.266  0.00  0.00    +0.000 HD
ENDBRANCH   6   7
BRANCH   3  12
ATOM     12  C   UNL     1       7.980   6.305  18.954  0.00  0.00    +0.000 C 
ATOM     13  O   UNL     1       8.325   7.400  18.532  0.00  0.00    +0.000 OA
BRANCH  12  14
ATOM     14  O   UNL     1       8.683   5.646  19.888  0.00  0.00    +0.000 OA
ATOM     15  H   UNL     1       9.419   5.105  19.561  0.00  0.00    +0.000 HD
ENDBRANCH  12  14
ENDBRANCH   3  12
BRANCH   5  16
ATOM     16  N   UNL     1       5.521   4.633  15.633  0.00  0.00    +0.000 N 
ATOM     17  H   UNL     1       4.698   5.227  15.663  0.00  0.00    +0.000 HD
BRANCH  16  18
ATOM     18  C   UNL     1       6.003   4.468  14.362  0.00  0.00    +0.000 C 
ATOM     19  S   UNL     1       7.399   5.107  13.720  0.00  0.00    +0.000 S 
BRANCH  18  20
ATOM     20  N   UNL     1       5.193   3.693  13.560  0.00  0.00    +0.000 N 
ATOM     21  H   UNL     1       4.801   2.887  14.039  0.00  0.00    +0.000 HD
BRANCH  20  22
ATOM     22  C   UNL     1       5.412   3.543  12.146  0.00  0.00    +0.000 C 
ATOM     23  C   UNL     1       5.389   2.176  11.516  0.00  0.00    +0.000 C 
ATOM     24  C   UNL     1       4.286   3.155  11.236  0.00  0.00    +0.000 C 
ENDBRANCH  20  22
ENDBRANCH  18  20
ENDBRANCH  16  18
ENDBRANCH   5  16
BRANCH   1  25
ATOM     25  O   UNL     1       3.473   5.940  17.584  0.00  0.00    +0.000 OA
BRANCH  25  26
ATOM     26  C   UNL     1       2.460   6.740  18.227  0.00  0.00    +0.000 C 
BRANCH  26  28
ATOM     27  C   UNL     1       1.496   5.640  20.342  0.00  0.00    +0.000 C 
ATOM     28  C   UNL     1       2.512   6.611  19.762  0.00  0.00    +0.000 C 
ENDBRANCH  26  28
BRANCH  26  29
ATOM     29  C   UNL     1       2.652   8.193  17.759  0.00  0.00    +0.000 C 
ATOM     30  C   UNL     1       1.433   9.067  18.032  0.00  0.00    +0.000 C 
ENDBRANCH  26  29
ENDBRANCH  25  26
ENDBRANCH   1  25
TORSDOF 11
ENDMDL
MODEL 3
REMARK VINA RESULT:      -6.2      0.755      1.608
REMARK  Name = 
REMARK  14 active torsions:
REMARK  status: ('A' for Active; 'I' for Inactive)
REMARK    1  A    between atoms: C_1  and  C_2
REMARK    2  A    between atoms: C_2  and  C_3
REMARK    3  A    between atoms: C_3  and  C_4
REMARK    4  A    between atoms: C_3  and  O_6
REMARK    5  A    between atoms: C_4  and  C_5
REMARK    6  A    between atoms: O_6  and  C_7
REMARK    7  A    between atoms: C_9  and  C_10
REMARK    8  A    between atoms: C_10  and  O_12
REMARK    9  A    between atoms: C_14  and  N_15
REMARK   10  A    between atoms: N_15  and  C_16
REMARK   11  A    between atoms: C_16  and  N_18
REMARK   12  A    between atoms: N_18  and  C_19
REMARK   13  A    between atoms: C_22  and  N_23
REMARK   14  A    between atoms: C_24  and  C_25
REMARK                            x       y       z     vdW  Elec       q    Type
REMARK                         _______ _______ _______ _____ _____    ______ ____
ROOT
ATOM      1  C   UNL     1       5.590   5.182  16.284  0.00  0.00    +0.000 C 
ATOM      2  C   UNL     1       6.814   5.493  17.120  0.00  0.00    +0.000 C 
ATOM      3  C   UNL     1       6.790   5.625  18.463  0.00  0.00    +0.000 C 
ATOM      4  C   UNL     1       5.528   5.385  19.266  0.00  0.00    +0.000 C 
ATOM      5  C   UNL     1       4.399   4.677  18.485  0.00  0.00    +0.000 C 
ATOM      6  C   UNL     1       4.254   5.322  17.079  0.00  0.00    +0.000 C 
ENDROOT
BRANCH   6   7
ATOM      7  N   UNL     1       3.861   6.749  17.145  0.00  0.00    +0.000 N 
ATOM      8  C   UNL     1       2.785   7.196  17.879  0.00  0.00    +0.000 C 
ATOM      9  C   UNL     1       2.493   8.659  17.718  0.00  0.00    +0.000 C 
ATOM     10  O   UNL     1       2.098   6.466  18.584  0.00  0.00    +0.000 OA
ATOM     11  H   UNL     1       4.246   7.386  16.460  0.00  0.00    +0.000 HD
ENDBRANCH   6   7
BRANCH   3  12
ATOM     12  C   UNL     1       7.938   6.099  19.293  0.00  0.00    +0.000 C 
ATOM     13  O   UNL     1       8.596   7.085  18.988  0.00  0.00    +0.000 OA
BRANCH  12  14
ATOM     14  O   UNL     1       8.208   5.372  20.389  0.00  0.00    +0.000 OA
ATOM     15  H   UNL     1       7.998   4.426  20.332  0.00  0.00    +0.000 HD
ENDBRANCH  12  14
ENDBRANCH   3  12
BRANCH   5  16
ATOM     16  N   UNL     1       4.635   3.219  18.481  0.00  0.00    +0.000 N 
ATOM     17  H   UNL     1       5.064   2.824  17.650  0.00  0.00    +0.000 HD
BRANCH  16  18
ATOM     18  C   UNL     1       4.088   2.263  19.294  0.00  0.00    +0.000 C 
ATOM     19  S   UNL     1       4.893   1.221  20.312  0.00  0.00    +0.000 S 
BRANCH  18  20
ATOM     20  N   UNL     1       2.715   2.182  19.207  0.00  0.00    +0.000 N 
ATOM     21  H   UNL     1       2.353   2.412  18.286  0.00  0.00    +0.000 HD
BRANCH  20  22
ATOM     22  C   UNL     1       1.847   2.471  20.317  0.00  0.00    +0.000 C 
ATOM     23  C   UNL     1       1.976   3.772  21.064  0.00  0.00    +0.000 C 
ATOM     24  C   UNL     1       0.777   3.513  20.199  0.00  0.00    +0.000 C 
ENDBRANCH  20  22
ENDBRANCH  18  20
ENDBRANCH  16  18
ENDBRANCH   5  16
BRANCH   1  25
ATOM     25  O   UNL     1       5.821   3.906  15.683  0.00  0.00    +0.000 OA
BRANCH  25  26
ATOM     26  C   UNL     1       6.328   3.903  14.332  0.00  0.00    +0.000 C 
BRANCH  26  28
ATOM     27  C   UNL     1       5.440   2.968  12.108  0.00  0.00    +0.000 C 
ATOM     28  C   UNL     1       5.191   3.889  13.291  0.00  0.00    +0.000 C 
ENDBRANCH  26  28
BRANCH  26  29
ATOM     29  C   UNL     1       7.242   5.131  14.179  0.00  0.00    +0.000 C 
ATOM     30  C   UNL     1       7.859   5.237  12.788  0.00  0.00    +0.000 C 
ENDBRANCH  26  29
ENDBRANCH  25  26
ENDBRANCH   1  25
TORSDOF 11
ENDMDL
MODEL 4
REMARK VINA RESULT:      -6.1      1.568      4.905
REMARK  Name = 
REMARK  14 active torsions:
REMARK  status: ('A' for Active; 'I' for Inactive)
REMARK    1  A    between atoms: C_1  and  C_2
REMARK    2  A    between atoms: C_2  and  C_3
REMARK    3  A    between atoms: C_3  and  C_4
REMARK    4  A    between atoms: C_3  and  O_6
REMARK    5  A    between atoms: C_4  and  C_5
REMARK    6  A    between atoms: O_6  and  C_7
REMARK    7  A    between atoms: C_9  and  C_10
REMARK    8  A    between atoms: C_10  and  O_12
REMARK    9  A    between atoms: C_14  and  N_15
REMARK   10  A    between atoms: N_15  and  C_16
REMARK   11  A    between atoms: C_16  and  N_18
REMARK   12  A    between atoms: N_18  and  C_19
REMARK   13  A    between atoms: C_22  and  N_23
REMARK   14  A    between atoms: C_24  and  C_25
REMARK                            x       y       z     vdW  Elec       q    Type
REMARK                         _______ _______ _______ _____ _____    ______ ____
ROOT
ATOM      1  C   UNL     1       4.621   6.102  17.102  0.00  0.00    +0.000 C 
ATOM      2  C   UNL     1       4.973   5.776  15.665  0.00  0.00    +0.000 C 
ATOM      3  C   UNL     1       5.913   4.876  15.309  0.00  0.00    +0.000 C 
ATOM      4  C   UNL     1       6.649   4.042  16.338  0.00  0.00    +0.000 C 
ATOM      5  C   UNL     1       6.019   4.065  17.748  0.00  0.00    +0.000 C 
ATOM      6  C   UNL     1       5.647   5.525  18.129  0.00  0.00    +0.000 C 
ENDROOT
BRANCH   6   7
ATOM      7  N   UNL     1       6.829   6.414  18.204  0.00  0.00    +0.000 N 
ATOM      8  C   UNL     1       7.740   6.363  19.236  0.00  0.00    +0.000 C 
ATOM      9  C   UNL     1       8.799   7.424  19.178  0.00  0.00    +0.000 C 
ATOM     10  O   UNL     1       7.685   5.543  20.145  0.00  0.00    +0.000 OA
ATOM     11  H   UNL     1       6.856   7.231  17.609  0.00  0.00    +0.000 HD
ENDBRANCH   6   7
BRANCH   3  12
ATOM     12  C   UNL     1       6.402   4.660  13.914  0.00  0.00    +0.000 C 
ATOM     13  O   UNL     1       5.860   3.869  13.153  0.00  0.00    +0.000 OA
BRANCH  12  14
ATOM     14  O   UNL     1       7.474   5.380  13.550  0.00  0.00    +0.000 OA
ATOM     15  H   UNL     1       7.513   6.286  13.896  0.00  0.00    +0.000 HD
ENDBRANCH  12  14
ENDBRANCH   3  12
BRANCH   5  16
ATOM     16  N   UNL     1       4.903   3.100  17.811  0.00  0.00    +0.000 N 
ATOM     17  H   UNL     1       4.498   2.805  16.928  0.00  0.00    +0.000 HD
BRANCH  16  18
ATOM     18  C   UNL     1       4.120   2.769  18.885  0.00  0.00    +0.000 C 
ATOM     19  S   UNL     1       4.619   2.157  20.350  0.00  0.00    +0.000 S 
BRANCH  18  20
ATOM     20  N   UNL     1       2.773   2.966  18.668  0.00  0.00    +0.000 N 
ATOM     21  H   UNL     1       2.547   3.905  18.353  0.00  0.00    +0.000 HD
BRANCH  20  22
ATOM     22  C   UNL     1       1.756   2.292  19.430  0.00  0.00    +0.000 C 
ATOM     23  C   UNL     1       0.992   3.031  20.496  0.00  0.00    +0.000 C 
ATOM     24  C   UNL     1       0.307   2.618  19.225  0.00  0.00    +0.000 C 
ENDBRANCH  20  22
ENDBRANCH  18  20
ENDBRANCH  16  18
ENDBRANCH   5  16
BRANCH   1  25
ATOM     25  O   UNL     1       3.264   5.698  17.290  0.00  0.00    +0.000 OA
BRANCH  25  26
ATOM     26  C   UNL     1       2.447   6.529  18.140  0.00  0.00    +0.000 C 
BRANCH  26  28
ATOM     27  C   UNL     1       1.510   6.665  20.531  0.00  0.00    +0.000 C 
ATOM     28  C   UNL     1       2.642   6.194  19.632  0.00  0.00    +0.000 C 
ENDBRANCH  26  28
BRANCH  26  29
ATOM     29  C   UNL     1       2.793   7.995  17.824  0.00  0.00    +0.000 C 
ATOM     30  C   UNL     1       1.560   8.889  17.750  0.00  0.00    +0.000 C 
ENDBRANCH  26  29
ENDBRANCH  25  26
ENDBRANCH   1  25
TORSDOF 11
ENDMDL
MODEL 5
REMARK VINA RESULT:      -5.9      2.292      5.824
REMARK  Name = 
REMARK  14 active torsions:
REMARK  status: ('A' for Active; 'I' for Inactive)
REMARK    1  A    between atoms: C_1  and  C_2
REMARK    2  A    between atoms: C_2  and  C_3
REMARK    3  A    between atoms: C_3  and  C_4
REMARK    4  A    between atoms: C_3  and  O_6
REMARK    5  A    between atoms: C_4  and  C_5
REMARK    6  A    between atoms: O_6  and  C_7
REMARK    7  A    between atoms: C_9  and  C_10
REMARK    8  A    between atoms: C_10  and  O_12
REMARK    9  A    between atoms: C_14  and  N_15
REMARK   10  A    between atoms: N_15  and  C_16
REMARK   11  A    between atoms: C_16  and  N_18
REMARK   12  A    between atoms: N_18  and  C_19
REMARK   13  A    between atoms: C_22  and  N_23
REMARK   14  A    between atoms: C_24  and  C_25
REMARK                            x       y       z     vdW  Elec       q    Type
REMARK                         _______ _______ _______ _____ _____    ______ ____
ROOT
ATOM      1  C   UNL     1       3.462   5.684  19.147  0.00  0.00    +0.000 C 
ATOM      2  C   UNL     1       4.961   5.829  19.315  0.00  0.00    +0.000 C 
ATOM      3  C   UNL     1       5.854   4.905  18.904  0.00  0.00    +0.000 C 
ATOM      4  C   UNL     1       5.427   3.661  18.153  0.00  0.00    +0.000 C 
ATOM      5  C   UNL     1       3.978   3.702  17.621  0.00  0.00    +0.000 C 
ATOM      6  C   UNL     1       3.031   4.242  18.729  0.00  0.00    +0.000 C 
ENDROOT
BRANCH   6   7
ATOM      7  N   UNL     1       2.994   3.368  19.924  0.00  0.00    +0.000 N 
ATOM      8  C   UNL     1       1.862   3.189  20.687  0.00  0.00    +0.000 C 
ATOM      9  C   UNL     1       2.070   2.354  21.916  0.00  0.00    +0.000 C 
ATOM     10  O   UNL     1       0.777   3.689  20.412  0.00  0.00    +0.000 OA
ATOM     11  H   UNL     1       3.872   3.068  20.328  0.00  0.00    +0.000 HD
ENDBRANCH   6   7
BRANCH   3  12
ATOM     12  C   UNL     1       7.317   4.939  19.209  0.00  0.00    +0.000 C 
ATOM     13  O   UNL     1       8.150   4.478  18.440  0.00  0.00    +0.000 OA
BRANCH  12  14
ATOM     14  O   UNL     1       7.658   5.500  20.379  0.00  0.00    +0.000 OA
ATOM     15  H   UNL     1       8.285   6.240  20.328  0.00  0.00    +0.000 HD
ENDBRANCH  12  14
ENDBRANCH   3  12
BRANCH   5  16
ATOM     16  N   UNL     1       3.935   4.447  16.347  0.00  0.00    +0.000 N 
ATOM     17  H   UNL     1       3.072   4.399  15.814  0.00  0.00    +0.000 HD
BRANCH  16  18
ATOM     18  C   UNL     1       4.978   4.945  15.613  0.00  0.00    +0.000 C 
ATOM     19  S   UNL     1       5.590   6.492  15.649  0.00  0.00    +0.000 S 
BRANCH  18  20
ATOM     20  N   UNL     1       5.536   4.027  14.750  0.00  0.00    +0.000 N 
ATOM     21  H   UNL     1       6.318   3.517  15.151  0.00  0.00    +0.000 HD
BRANCH  20  22
ATOM     22  C   UNL     1       5.571   4.219  13.325  0.00  0.00    +0.000 C 
ATOM     23  C   UNL     1       6.849   3.999  12.560  0.00  0.00    +0.000 C 
ATOM     24  C   UNL     1       5.699   3.048  12.399  0.00  0.00    +0.000 C 
ENDBRANCH  20  22
ENDBRANCH  18  20
ENDBRANCH  16  18
ENDBRANCH   5  16
BRANCH   1  25
ATOM     25  O   UNL     1       3.047   6.732  18.269  0.00  0.00    +0.000 OA
BRANCH  25  26
ATOM     26  C   UNL     1       2.471   7.905  18.880  0.00  0.00    +0.000 C 
BRANCH  26  28
ATOM     27  C   UNL     1       1.816  10.167  17.846  0.00  0.00    +0.000 C 
ATOM     28  C   UNL     1       1.554   8.670  17.906  0.00  0.00    +0.000 C 
ENDBRANCH  26  28
BRANCH  26  29
ATOM     29  C   UNL     1       1.724   7.448  20.145  0.00  0.00    +0.000 C 
ATOM     30  C   UNL     1       1.225   8.615  20.990  0.00  0.00    +0.000 C 
ENDBRANCH  26  29
ENDBRANCH  25  26
ENDBRANCH   1  25
TORSDOF 11
ENDMDL
MODEL 6
REMARK VINA RESULT:      -5.9      2.468      5.135
REMARK  Name = 
REMARK  14 active torsions:
REMARK  status: ('A' for Active; 'I' for Inactive)
REMARK    1  A    between atoms: C_1  and  C_2
REMARK    2  A    between atoms: C_2  and  C_3
REMARK    3  A    between atoms: C_3  and  C_4
REMARK    4  A    between atoms: C_3  and  O_6
REMARK    5  A    between atoms: C_4  and  C_5
REMARK    6  A    between atoms: O_6  and  C_7
REMARK    7  A    between atoms: C_9  and  C_10
REMARK    8  A    between atoms: C_10  and  O_12
REMARK    9  A    between atoms: C_14  and  N_15
REMARK   10  A    between atoms: N_15  and  C_16
REMARK   11  A    between atoms: C_16  and  N_18
REMARK   12  A    between atoms: N_18  and  C_19
REMARK   13  A    between atoms: C_22  and  N_23
REMARK   14  A    between atoms: C_24  and  C_25
REMARK                            x       y       z     vdW  Elec       q    Type
REMARK                         _______ _______ _______ _____ _____    ______ ____
ROOT
ATOM      1  C   UNL     1       5.062   4.362  17.358  0.00  0.00    +0.000 C 
ATOM      2  C   UNL     1       6.204   4.583  18.327  0.00  0.00    +0.000 C 
ATOM      3  C   UNL     1       6.705   5.798  18.632  0.00  0.00    +0.000 C 
ATOM      4  C   UNL     1       6.097   7.072  18.081  0.00  0.00    +0.000 C 
ATOM      5  C   UNL     1       4.705   6.889  17.438  0.00  0.00    +0.000 C 
ATOM      6  C   UNL     1       4.715   5.634  16.521  0.00  0.00    +0.000 C 
ENDROOT
BRANCH   6   7
ATOM      7  N   UNL     1       5.664   5.761  15.392  0.00  0.00    +0.000 N 
ATOM      8  C   UNL     1       6.187   4.675  14.726  0.00  0.00    +0.000 C 
ATOM      9  C   UNL     1       7.215   5.020  13.690  0.00  0.00    +0.000 C 
ATOM     10  O   UNL     1       5.869   3.516  14.971  0.00  0.00    +0.000 OA
ATOM     11  H   UNL     1       6.120   6.652  15.244  0.00  0.00    +0.000 HD
ENDBRANCH   6   7
BRANCH   3  12
ATOM     12  C   UNL     1       7.936   6.034  19.445  0.00  0.00    +0.000 C 
ATOM     13  O   UNL     1       8.242   5.309  20.382  0.00  0.00    +0.000 OA
BRANCH  12  14
ATOM     14  O   UNL     1       8.678   7.095  19.090  0.00  0.00    +0.000 OA
ATOM     15  H   UNL     1       8.718   7.819  19.734  0.00  0.00    +0.000 HD
ENDBRANCH  12  14
ENDBRANCH   3  12
BRANCH   5  16
ATOM     16  N   UNL     1       3.666   6.886  18.488  0.00  0.00    +0.000 N 
ATOM     17  H   UNL     1       3.543   6.025  19.011  0.00  0.00    +0.000 HD
BRANCH  16  18
ATOM     18  C   UNL     1       2.630   7.763  18.668  0.00  0.00    +0.000 C 
ATOM     19  S   UNL     1       2.046   8.874  17.576  0.00  0.00    +0.000 S 
BRANCH  18  20
ATOM     20  N   UNL     1       2.053   7.688  19.917  0.00  0.00    +0.000 N 
ATOM     21  H   UNL     1       1.593   6.800  20.098  0.00  0.00    +0.000 HD
BRANCH  20  22
ATOM     22  C   UNL     1       1.501   8.834  20.590  0.00  0.00    +0.000 C 
ATOM     23  C   UNL     1       0.052   8.849  21.000  0.00  0.00    +0.000 C 
ATOM     24  C   UNL     1       1.132   8.763  22.040  0.00  0.00    +0.000 C 
ENDBRANCH  20  22
ENDBRANCH  18  20
ENDBRANCH  16  18
ENDBRANCH   5  16
BRANCH   1  25
ATOM     25  O   UNL     1       3.985   3.809  18.117  0.00  0.00    +0.000 OA
BRANCH  25  26
ATOM     26  C   UNL     1       2.828   3.363  17.380  0.00  0.00    +0.000 C 
BRANCH  26  28
ATOM     27  C   UNL     1       3.483   1.194  18.596  0.00  0.00    +0.000 C 
ATOM     28  C   UNL     1       2.528   1.872  17.627  0.00  0.00    +0.000 C 
ENDBRANCH  26  28
BRANCH  26  29
ATOM     29  C   UNL     1       1.649   4.267  17.780  0.00  0.00    +0.000 C 
ATOM     30  C   UNL     1       1.316   4.181  19.265  0.00  0.00    +0.000 C 
ENDBRANCH  26  29
ENDBRANCH  25  26
ENDBRANCH   1  25
TORSDOF 11
ENDMDL
MODEL 7
REMARK VINA RESULT:      -5.8      2.542      5.571
REMARK  Name = 
REMARK  14 active torsions:
REMARK  status: ('A' for Active; 'I' for Inactive)
REMARK    1  A    between atoms: C_1  and  C_2
REMARK    2  A    between atoms: C_2  and  C_3
REMARK    3  A    between atoms: C_3  and  C_4
REMARK    4  A    between atoms: C_3  and  O_6
REMARK    5  A    between atoms: C_4  and  C_5
REMARK    6  A    between atoms: O_6  and  C_7
REMARK    7  A    between atoms: C_9  and  C_10
REMARK    8  A    between atoms: C_10  and  O_12
REMARK    9  A    between atoms: C_14  and  N_15
REMARK   10  A    between atoms: N_15  and  C_16
REMARK   11  A    between atoms: C_16  and  N_18
REMARK   12  A    between atoms: N_18  and  C_19
REMARK   13  A    between atoms: C_22  and  N_23
REMARK   14  A    between atoms: C_24  and  C_25
REMARK                            x       y       z     vdW  Elec       q    Type
REMARK                         _______ _______ _______ _____ _____    ______ ____
ROOT
ATOM      1  C   UNL     1       4.738   3.813  18.611  0.00  0.00    +0.000 C 
ATOM      2  C   UNL     1       6.036   4.326  19.198  0.00  0.00    +0.000 C 
ATOM      3  C   UNL     1       6.564   5.533  18.909  0.00  0.00    +0.000 C 
ATOM      4  C   UNL     1       5.845   6.526  18.019  0.00  0.00    +0.000 C 
ATOM      5  C   UNL     1       4.361   6.189  17.754  0.00  0.00    +0.000 C 
ATOM      6  C   UNL     1       4.223   4.678  17.417  0.00  0.00    +0.000 C 
ENDROOT
BRANCH   6   7
ATOM      7  N   UNL     1       4.946   4.301  16.181  0.00  0.00    +0.000 N 
ATOM      8  C   UNL     1       5.266   5.208  15.194  0.00  0.00    +0.000 C 
ATOM      9  C   UNL     1       5.896   4.599  13.977  0.00  0.00    +0.000 C 
ATOM     10  O   UNL     1       5.033   6.408  15.280  0.00  0.00    +0.000 OA
ATOM     11  H   UNL     1       5.011   3.321  15.941  0.00  0.00    +0.000 HD
ENDBRANCH   6   7
BRANCH   3  12
ATOM     12  C   UNL     1       7.920   5.995  19.335  0.00  0.00    +0.000 C 
ATOM     13  O   UNL     1       8.448   6.988  18.853  0.00  0.00    +0.000 OA
BRANCH  12  14
ATOM     14  O   UNL     1       8.525   5.248  20.272  0.00  0.00    +0.000 OA
ATOM     15  H   UNL     1       8.691   4.322  20.033  0.00  0.00    +0.000 HD
ENDBRANCH  12  14
ENDBRANCH   3  12
BRANCH   5  16
ATOM     16  N   UNL     1       3.534   6.654  18.886  0.00  0.00    +0.000 N 
ATOM     17  H   UNL     1       3.529   6.076  19.721  0.00  0.00    +0.000 HD
BRANCH  16  18
ATOM     18  C   UNL     1       2.529   7.583  18.885  0.00  0.00    +0.000 C 
ATOM     19  S   UNL     1       2.188   8.702  17.701  0.00  0.00    +0.000 S 
BRANCH  18  20
ATOM     20  N   UNL     1       1.751   7.558  20.023  0.00  0.00    +0.000 N 
ATOM     21  H   UNL     1       1.208   6.706  20.123  0.00  0.00    +0.000 HD
BRANCH  20  22
ATOM     22  C   UNL     1       1.179   8.744  20.600  0.00  0.00    +0.000 C 
ATOM     23  C   UNL     1      -0.050   8.651  21.466  0.00  0.00    +0.000 C 
ATOM     24  C   UNL     1       1.278   9.001  22.073  0.00  0.00    +0.000 C 
ENDBRANCH  20  22
ENDBRANCH  18  20
ENDBRANCH  16  18
ENDBRANCH   5  16
BRANCH   1  25
ATOM     25  O   UNL     1       3.828   3.661  19.702  0.00  0.00    +0.000 OA
BRANCH  25  26
ATOM     26  C   UNL     1       2.424   3.597  19.378  0.00  0.00    +0.000 C 
BRANCH  26  28
ATOM     27  C   UNL     1       0.519   2.020  18.674  0.00  0.00    +0.000 C 
ATOM     28  C   UNL     1       2.017   2.204  18.860  0.00  0.00    +0.000 C 
ENDBRANCH  26  28
BRANCH  26  29
ATOM     29  C   UNL     1       1.640   4.000  20.639  0.00  0.00    +0.000 C 
ATOM     30  C   UNL     1       1.963   3.120  21.842  0.00  0.00    +0.000 C 
ENDBRANCH  26  29
ENDBRANCH  25  26
ENDBRANCH   1  25
TORSDOF 11
ENDMDL
MODEL 8
REMARK VINA RESULT:      -5.8      2.400      5.232
REMARK  Name = 
REMARK  14 active torsions:
REMARK  status: ('A' for Active; 'I' for Inactive)
REMARK    1  A    between atoms: C_1  and  C_2
REMARK    2  A    between atoms: C_2  and  C_3
REMARK    3  A    between atoms: C_3  and  C_4
REMARK    4  A    between atoms: C_3  and  O_6
REMARK    5  A    between atoms: C_4  and  C_5
REMARK    6  A    between atoms: O_6  and  C_7
REMARK    7  A    between atoms: C_9  and  C_10
REMARK    8  A    between atoms: C_10  and  O_12
REMARK    9  A    between atoms: C_14  and  N_15
REMARK   10  A    between atoms: N_15  and  C_16
REMARK   11  A    between atoms: C_16  and  N_18
REMARK   12  A    between atoms: N_18  and  C_19
REMARK   13  A    between atoms: C_22  and  N_23
REMARK   14  A    between atoms: C_24  and  C_25
REMARK                            x       y       z     vdW  Elec       q    Type
REMARK                         _______ _______ _______ _____ _____    ______ ____
ROOT
ATOM      1  C   UNL     1       5.170   4.147  16.834  0.00  0.00    +0.000 C 
ATOM      2  C   UNL     1       6.122   4.391  17.986  0.00  0.00    +0.000 C 
ATOM      3  C   UNL     1       6.505   5.618  18.396  0.00  0.00    +0.000 C 
ATOM      4  C   UNL     1       5.936   6.879  17.778  0.00  0.00    +0.000 C 
ATOM      5  C   UNL     1       4.682   6.653  16.905  0.00  0.00    +0.000 C 
ATOM      6  C   UNL     1       4.907   5.426  15.977  0.00  0.00    +0.000 C 
ENDROOT
BRANCH   6   7
ATOM      7  N   UNL     1       6.025   5.627  15.027  0.00  0.00    +0.000 N 
ATOM      8  C   UNL     1       6.397   4.682  14.096  0.00  0.00    +0.000 C 
ATOM      9  C   UNL     1       7.623   5.039  13.310  0.00  0.00    +0.000 C 
ATOM     10  O   UNL     1       5.801   3.623  13.935  0.00  0.00    +0.000 OA
ATOM     11  H   UNL     1       6.680   6.377  15.206  0.00  0.00    +0.000 HD
ENDBRANCH   6   7
BRANCH   3  12
ATOM     12  C   UNL     1       7.569   5.886  19.410  0.00  0.00    +0.000 C 
ATOM     13  O   UNL     1       7.646   5.248  20.452  0.00  0.00    +0.000 OA
BRANCH  12  14
ATOM     14  O   UNL     1       8.429   6.872  19.111  0.00  0.00    +0.000 OA
ATOM     15  H   UNL     1       8.183   7.434  18.358  0.00  0.00    +0.000 HD
ENDBRANCH  12  14
ENDBRANCH   3  12
BRANCH   5  16
ATOM     16  N   UNL     1       3.484   6.573  17.764  0.00  0.00    +0.000 N 
ATOM     17  H   UNL     1       2.947   5.712  17.728  0.00  0.00    +0.000 HD
BRANCH  16  18
ATOM     18  C   UNL     1       2.803   7.590  18.378  0.00  0.00    +0.000 C 
ATOM     19  S   UNL     1       2.194   8.969  17.672  0.00  0.00    +0.000 S 
BRANCH  18  20
ATOM     20  N   UNL     1       2.650   7.412  19.736  0.00  0.00    +0.000 N 
ATOM     21  H   UNL     1       3.199   6.643  20.109  0.00  0.00    +0.000 HD
BRANCH  20  22
ATOM     22  C   UNL     1       1.421   7.702  20.425  0.00  0.00    +0.000 C 
ATOM     23  C   UNL     1       1.444   8.414  21.752  0.00  0.00    +0.000 C 
ATOM     24  C   UNL     1       0.918   9.110  20.530  0.00  0.00    +0.000 C 
ENDBRANCH  20  22
ENDBRANCH  18  20
ENDBRANCH  16  18
ENDBRANCH   5  16
BRANCH   1  25
ATOM     25  O   UNL     1       4.010   3.525  17.389  0.00  0.00    +0.000 OA
BRANCH  25  26
ATOM     26  C   UNL     1       3.973   3.374  18.823  0.00  0.00    +0.000 C 
BRANCH  26  28
ATOM     27  C   UNL     1       1.451   3.753  18.492  0.00  0.00    +0.000 C 
ATOM     28  C   UNL     1       2.647   3.883  19.422  0.00  0.00    +0.000 C 
ENDBRANCH  26  28
BRANCH  26  29
ATOM     29  C   UNL     1       4.221   1.889  19.139  0.00  0.00    +0.000 C 
ATOM     30  C   UNL     1       4.745   1.665  20.553  0.00  0.00    +0.000 C 
ENDBRANCH  26  29
ENDBRANCH  25  26
ENDBRANCH   1  25
TORSDOF 11
ENDMDL
MODEL 9
REMARK VINA RESULT:      -5.8      2.273      5.799
REMARK  Name = 
REMARK  14 active torsions:
REMARK  status: ('A' for Active; 'I' for Inactive)
REMARK    1  A    between atoms: C_1  and  C_2
REMARK    2  A    between atoms: C_2  and  C_3
REMARK    3  A    between atoms: C_3  and  C_4
REMARK    4  A    between atoms: C_3  and  O_6
REMARK    5  A    between atoms: C_4  and  C_5
REMARK    6  A    between atoms: O_6  and  C_7
REMARK    7  A    between atoms: C_9  and  C_10
REMARK    8  A    between atoms: C_10  and  O_12
REMARK    9  A    between atoms: C_14  and  N_15
REMARK   10  A    between atoms: N_15  and  C_16
REMARK   11  A    between atoms: C_16  and  N_18
REMARK   12  A    between atoms: N_18  and  C_19
REMARK   13  A    between atoms: C_22  and  N_23
REMARK   14  A    between atoms: C_24  and  C_25
REMARK                            x       y       z     vdW  Elec       q    Type
REMARK                         _______ _______ _______ _____ _____    ______ ____
ROOT
ATOM      1  C   UNL     1       3.382   5.709  19.117  0.00  0.00    +0.000 C 
ATOM      2  C   UNL     1       4.871   5.866  19.346  0.00  0.00    +0.000 C 
ATOM      3  C   UNL     1       5.788   4.947  18.978  0.00  0.00    +0.000 C 
ATOM      4  C   UNL     1       5.401   3.696  18.217  0.00  0.00    +0.000 C 
ATOM      5  C   UNL     1       3.975   3.723  17.626  0.00  0.00    +0.000 C 
ATOM      6  C   UNL     1       2.979   4.262  18.691  0.00  0.00    +0.000 C 
ENDROOT
BRANCH   6   7
ATOM      7  N   UNL     1       2.899   3.394  19.888  0.00  0.00    +0.000 N 
ATOM      8  C   UNL     1       1.780   3.319  20.686  0.00  0.00    +0.000 C 
ATOM      9  C   UNL     1       1.949   2.468  21.910  0.00  0.00    +0.000 C 
ATOM     10  O   UNL     1       0.737   3.917  20.444  0.00  0.00    +0.000 OA
ATOM     11  H   UNL     1       3.758   3.014  20.265  0.00  0.00    +0.000 HD
ENDBRANCH   6   7
BRANCH   3  12
ATOM     12  C   UNL     1       7.236   4.994  19.342  0.00  0.00    +0.000 C 
ATOM     13  O   UNL     1       7.623   5.469  20.401  0.00  0.00    +0.000 OA
BRANCH  12  14
ATOM     14  O   UNL     1       8.085   4.490  18.433  0.00  0.00    +0.000 OA
ATOM     15  H   UNL     1       7.836   4.618  17.504  0.00  0.00    +0.000 HD
ENDBRANCH  12  14
ENDBRANCH   3  12
BRANCH   5  16
ATOM     16  N   UNL     1       3.979   4.460  16.346  0.00  0.00    +0.000 N 
ATOM     17  H   UNL     1       3.119   4.450  15.806  0.00  0.00    +0.000 HD
BRANCH  16  18
ATOM     18  C   UNL     1       5.051   4.903  15.619  0.00  0.00    +0.000 C 
ATOM     19  S   UNL     1       5.794   6.389  15.716  0.00  0.00    +0.000 S 
BRANCH  18  20
ATOM     20  N   UNL     1       5.517   3.983  14.705  0.00  0.00    +0.000 N 
ATOM     21  H   UNL     1       6.249   3.381  15.073  0.00  0.00    +0.000 HD
BRANCH  20  22
ATOM     22  C   UNL     1       5.567   4.246  13.292  0.00  0.00    +0.000 C 
ATOM     23  C   UNL     1       6.572   3.537  12.422  0.00  0.00    +0.000 C 
ATOM     24  C   UNL     1       5.110   3.213  12.306  0.00  0.00    +0.000 C 
ENDBRANCH  20  22
ENDBRANCH  18  20
ENDBRANCH  16  18
ENDBRANCH   5  16
BRANCH   1  25
ATOM     25  O   UNL     1       2.996   6.749  18.217  0.00  0.00    +0.000 OA
BRANCH  25  26
ATOM     26  C   UNL     1       1.885   7.578  18.616  0.00  0.00    +0.000 C 
BRANCH  26  28
ATOM     27  C   UNL     1       0.882   7.796  20.974  0.00  0.00    +0.000 C 
ATOM     28  C   UNL     1       2.050   8.110  20.053  0.00  0.00    +0.000 C 
ENDBRANCH  26  28
BRANCH  26  29
ATOM     29  C   UNL     1       1.763   8.714  17.586  0.00  0.00    +0.000 C 
ATOM     30  C   UNL     1       1.878  10.098  18.217  0.00  0.00    +0.000 C 
ENDBRANCH  26  29
ENDBRANCH  25  26
ENDBRANCH   1  25
TORSDOF 11
ENDMDL
