MODEL 1
REMARK VINA RESULT:      -5.6      0.000      0.000
REMARK  Name = 
REMARK  4 active torsions:
REMARK  status: ('A' for Active; 'I' for Inactive)
REMARK    1  A    between atoms: C_2  and  O_3
REMARK    2  A    between atoms: C_2  and  C_4
REMARK    3  A    between atoms: C_8  and  O_9
REMARK    4  A    between atoms: C_11  and  O_12
REMARK                            x       y       z     vdW  Elec       q    Type
REMARK                         _______ _______ _______ _____ _____    ______ ____
ROOT
ATOM      1  C   UNL     1       6.070   4.947  15.820  0.00  0.00    +0.000 A 
ATOM      2  C   UNL     1       4.900   4.215  16.071  0.00  0.00    +0.000 A 
ATOM      3  C   UNL     1       4.180   4.431  17.245  0.00  0.00    +0.000 A 
ATOM      4 BR   UNL     1       2.581   3.462  17.542  0.00  0.00    +0.000 Br
ATOM      5  C   UNL     1       4.635   5.361  18.180  0.00  0.00    +0.000 A 
ATOM      6  C   UNL     1       5.798   6.090  17.950  0.00  0.00    +0.000 A 
ATOM      7  C   UNL     1       6.507   5.887  16.766  0.00  0.00    +0.000 A 
ENDROOT
BRANCH   1   9
ATOM      8  O   UNL     1       7.677   5.391  14.125  0.00  0.00    +0.000 OA
ATOM      9  C   UNL     1       6.791   4.664  14.548  0.00  0.00    +0.000 C 
BRANCH   9  10
ATOM     10  O   UNL     1       6.432   3.518  13.937  0.00  0.00    +0.000 OA
ATOM     11  H   UNL     1       6.707   2.722  14.443  0.00  0.00    +0.000 HD
ENDBRANCH   9  10
ENDBRANCH   1   9
BRANCH   5  12
ATOM     12  O   UNL     1       3.973   5.607  19.350  0.00  0.00    +0.000 OA
ATOM     13  H   UNL     1       4.432   5.119  20.057  0.00  0.00    +0.000 HD
ENDBRANCH   5  12
BRANCH   7  14
ATOM     14  O   UNL     1       7.636   6.626  16.524  0.00  0.00    +0.000 OA
ATOM     15  H   UNL     1       7.720   7.306  17.220  0.00  0.00    +0.000 HD
ENDBRANCH   7  14
TORSDOF 4
ENDMDL
MODEL 2
REMARK VINA RESULT:      -5.5      2.192      4.170
REMARK  Name = 
REMARK  4 active torsions:
REMARK  status: ('A' for Active; 'I' for Inactive)
REMARK    1  A    between atoms: C_2  and  O_3
REMARK    2  A    between atoms: C_2  and  C_4
REMARK    3  A    between atoms: C_8  and  O_9
REMARK    4  A    between atoms: C_11  and  O_12
REMARK                            x       y       z     vdW  Elec       q    Type
REMARK                         _______ _______ _______ _____ _____    ______ ____
ROOT
ATOM      1  C   UNL     1       5.294   4.044  18.031  0.00  0.00    +0.000 A 
ATOM      2  C   UNL     1       5.058   3.784  16.673  0.00  0.00    +0.000 A 
ATOM      3  C   UNL     1       5.877   4.358  15.700  0.00  0.00    +0.000 A 
ATOM      4 BR   UNL     1       5.566   3.961  13.876  0.00  0.00    +0.000 Br
ATOM      5  C   UNL     1       6.917   5.207  16.079  0.00  0.00    +0.000 A 
ATOM      6  C   UNL     1       7.160   5.481  17.422  0.00  0.00    +0.000 A 
ATOM      7  C   UNL     1       6.353   4.891  18.394  0.00  0.00    +0.000 A 
ENDROOT
BRANCH   1   9
ATOM      8  O   UNL     1       3.178   3.617  19.027  0.00  0.00    +0.000 OA
ATOM      9  C   UNL     1       4.380   3.400  19.016  0.00  0.00    +0.000 C 
BRANCH   9  10
ATOM     10  O   UNL     1       4.972   2.521  19.847  0.00  0.00    +0.000 OA
ATOM     11  H   UNL     1       5.008   2.847  20.773  0.00  0.00    +0.000 HD
ENDBRANCH   9  10
ENDBRANCH   1   9
BRANCH   5  12
ATOM     12  O   UNL     1       7.745   5.802  15.168  0.00  0.00    +0.000 OA
ATOM     13  H   UNL     1       8.439   6.274  15.662  0.00  0.00    +0.000 HD
ENDBRANCH   5  12
BRANCH   7  14
ATOM     14  O   UNL     1       6.609   5.134  19.719  0.00  0.00    +0.000 OA
ATOM     15  H   UNL     1       6.142   5.951  19.982  0.00  0.00    +0.000 HD
ENDBRANCH   7  14
TORSDOF 4
ENDMDL
MODEL 3
REMARK VINA RESULT:      -5.5      2.817      4.091
REMARK  Name = 
REMARK  4 active torsions:
REMARK  status: ('A' for Active; 'I' for Inactive)
REMARK    1  A    between atoms: C_2  and  O_3
REMARK    2  A    between atoms: C_2  and  C_4
REMARK    3  A    between atoms: C_8  and  O_9
REMARK    4  A    between atoms: C_11  and  O_12
REMARK                            x       y       z     vdW  Elec       q    Type
REMARK                         _______ _______ _______ _____ _____    ______ ____
ROOT
ATOM      1  C   UNL     1       4.549   3.981  18.641  0.00  0.00    +0.000 A 
ATOM      2  C   UNL     1       3.833   3.684  19.810  0.00  0.00    +0.000 A 
ATOM      3  C   UNL     1       2.532   3.189  19.725  0.00  0.00    +0.000 A 
ATOM      4 BR   UNL     1       1.600   2.755  21.315  0.00  0.00    +0.000 Br
ATOM      5  C   UNL     1       1.935   3.011  18.477  0.00  0.00    +0.000 A 
ATOM      6  C   UNL     1       2.628   3.309  17.307  0.00  0.00    +0.000 A 
ATOM      7  C   UNL     1       3.937   3.785  17.393  0.00  0.00    +0.000 A 
ENDROOT
BRANCH   1   9
ATOM      8  O   UNL     1       6.239   5.258  19.719  0.00  0.00    +0.000 OA
ATOM      9  C   UNL     1       5.932   4.508  18.805  0.00  0.00    +0.000 C 
BRANCH   9  10
ATOM     10  O   UNL     1       6.824   4.046  17.907  0.00  0.00    +0.000 OA
ATOM     11  H   UNL     1       6.627   4.349  16.994  0.00  0.00    +0.000 HD
ENDBRANCH   9  10
ENDBRANCH   1   9
BRANCH   5  12
ATOM     12  O   UNL     1       0.660   2.538  18.336  0.00  0.00    +0.000 OA
ATOM     13  H   UNL     1       0.290   2.924  17.522  0.00  0.00    +0.000 HD
ENDBRANCH   5  12
BRANCH   7  14
ATOM     14  O   UNL     1       4.633   4.049  16.242  0.00  0.00    +0.000 OA
ATOM     15  H   UNL     1       4.061   4.570  15.645  0.00  0.00    +0.000 HD
ENDBRANCH   7  14
TORSDOF 4
ENDMDL
MODEL 4
REMARK VINA RESULT:      -5.5      1.415      1.637
REMARK  Name = 
REMARK  4 active torsions:
REMARK  status: ('A' for Active; 'I' for Inactive)
REMARK    1  A    between atoms: C_2  and  O_3
REMARK    2  A    between atoms: C_2  and  C_4
REMARK    3  A    between atoms: C_8  and  O_9
REMARK    4  A    between atoms: C_11  and  O_12
REMARK                            x       y       z     vdW  Elec       q    Type
REMARK                         _______ _______ _______ _____ _____    ______ ____
ROOT
ATOM      1  C   UNL     1       5.891   5.103  16.717  0.00  0.00    +0.000 A 
ATOM      2  C   UNL     1       5.017   4.023  16.912  0.00  0.00    +0.000 A 
ATOM      3  C   UNL     1       3.737   4.246  17.420  0.00  0.00    +0.000 A 
ATOM      4 BR   UNL     1       2.558   2.780  17.636  0.00  0.00    +0.000 Br
ATOM      5  C   UNL     1       3.335   5.540  17.754  0.00  0.00    +0.000 A 
ATOM      6  C   UNL     1       4.194   6.620  17.574  0.00  0.00    +0.000 A 
ATOM      7  C   UNL     1       5.467   6.399  17.047  0.00  0.00    +0.000 A 
ENDROOT
BRANCH   1   9
ATOM      8  O   UNL     1       7.611   5.189  15.078  0.00  0.00    +0.000 OA
ATOM      9  C   UNL     1       7.243   4.793  16.174  0.00  0.00    +0.000 C 
BRANCH   9  10
ATOM     10  O   UNL     1       8.042   4.097  17.006  0.00  0.00    +0.000 OA
ATOM     11  H   UNL     1       7.876   3.130  16.963  0.00  0.00    +0.000 HD
ENDBRANCH   9  10
ENDBRANCH   1   9
BRANCH   5  12
ATOM     12  O   UNL     1       2.096   5.813  18.263  0.00  0.00    +0.000 OA
ATOM     13  H   UNL     1       2.201   5.997  19.214  0.00  0.00    +0.000 HD
ENDBRANCH   5  12
BRANCH   7  14
ATOM     14  O   UNL     1       6.303   7.465  16.840  0.00  0.00    +0.000 OA
ATOM     15  H   UNL     1       5.823   8.143  16.326  0.00  0.00    +0.000 HD
ENDBRANCH   7  14
TORSDOF 4
ENDMDL
MODEL 5
REMARK VINA RESULT:      -5.5      3.470      6.188
REMARK  Name = 
REMARK  4 active torsions:
REMARK  status: ('A' for Active; 'I' for Inactive)
REMARK    1  A    between atoms: C_2  and  O_3
REMARK    2  A    between atoms: C_2  and  C_4
REMARK    3  A    between atoms: C_8  and  O_9
REMARK    4  A    between atoms: C_11  and  O_12
REMARK                            x       y       z     vdW  Elec       q    Type
REMARK                         _______ _______ _______ _____ _____    ______ ____
ROOT
ATOM      1  C   UNL     1       2.681   3.099  19.837  0.00  0.00    +0.000 A 
ATOM      2  C   UNL     1       3.774   3.976  19.913  0.00  0.00    +0.000 A 
ATOM      3  C   UNL     1       4.654   4.088  18.837  0.00  0.00    +0.000 A 
ATOM      4 BR   UNL     1       6.098   5.308  18.944  0.00  0.00    +0.000 Br
ATOM      5  C   UNL     1       4.459   3.312  17.693  0.00  0.00    +0.000 A 
ATOM      6  C   UNL     1       3.384   2.432  17.606  0.00  0.00    +0.000 A 
ATOM      7  C   UNL     1       2.493   2.336  18.675  0.00  0.00    +0.000 A 
ENDROOT
BRANCH   1   9
ATOM      8  O   UNL     1       2.215   2.961  22.164  0.00  0.00    +0.000 OA
ATOM      9  C   UNL     1       1.783   3.028  21.023  0.00  0.00    +0.000 C 
BRANCH   9  10
ATOM     10  O   UNL     1       0.468   3.102  20.743  0.00  0.00    +0.000 OA
ATOM     11  H   UNL     1       0.023   2.228  20.797  0.00  0.00    +0.000 HD
ENDBRANCH   9  10
ENDBRANCH   1   9
BRANCH   5  12
ATOM     12  O   UNL     1       5.295   3.376  16.613  0.00  0.00    +0.000 OA
ATOM     13  H   UNL     1       4.850   2.932  15.869  0.00  0.00    +0.000 HD
ENDBRANCH   5  12
BRANCH   7  14
ATOM     14  O   UNL     1       1.416   1.492  18.578  0.00  0.00    +0.000 OA
ATOM     15  H   UNL     1       1.066   1.330  19.475  0.00  0.00    +0.000 HD
ENDBRANCH   7  14
TORSDOF 4
ENDMDL
MODEL 6
REMARK VINA RESULT:      -5.5      3.277      5.614
REMARK  Name = 
REMARK  4 active torsions:
REMARK  status: ('A' for Active; 'I' for Inactive)
REMARK    1  A    between atoms: C_2  and  O_3
REMARK    2  A    between atoms: C_2  and  C_4
REMARK    3  A    between atoms: C_8  and  O_9
REMARK    4  A    between atoms: C_11  and  O_12
REMARK                            x       y       z     vdW  Elec       q    Type
REMARK                         _______ _______ _______ _____ _____    ______ ____
ROOT
ATOM      1  C   UNL     1       1.972   3.611  18.524  0.00  0.00    +0.000 A 
ATOM      2  C   UNL     1       1.993   5.014  18.542  0.00  0.00    +0.000 A 
ATOM      3  C   UNL     1       3.023   5.704  17.904  0.00  0.00    +0.000 A 
ATOM      4 BR   UNL     1       3.009   7.597  17.904  0.00  0.00    +0.000 Br
ATOM      5  C   UNL     1       4.044   4.998  17.266  0.00  0.00    +0.000 A 
ATOM      6  C   UNL     1       4.042   3.606  17.247  0.00  0.00    +0.000 A 
ATOM      7  C   UNL     1       3.000   2.918  17.869  0.00  0.00    +0.000 A 
ENDROOT
BRANCH   1   9
ATOM      8  O   UNL     1       0.228   2.009  18.730  0.00  0.00    +0.000 OA
ATOM      9  C   UNL     1       0.844   2.939  19.228  0.00  0.00    +0.000 C 
BRANCH   9  10
ATOM     10  O   UNL     1       0.598   3.397  20.470  0.00  0.00    +0.000 OA
ATOM     11  H   UNL     1       0.778   2.722  21.161  0.00  0.00    +0.000 HD
ENDBRANCH   9  10
ENDBRANCH   1   9
BRANCH   5  12
ATOM     12  O   UNL     1       5.082   5.623  16.633  0.00  0.00    +0.000 OA
ATOM     13  H   UNL     1       5.829   5.660  17.256  0.00  0.00    +0.000 HD
ENDBRANCH   5  12
BRANCH   7  14
ATOM     14  O   UNL     1       2.979   1.547  17.824  0.00  0.00    +0.000 OA
ATOM     15  H   UNL     1       2.987   1.266  16.889  0.00  0.00    +0.000 HD
ENDBRANCH   7  14
TORSDOF 4
ENDMDL
MODEL 7
REMARK VINA RESULT:      -5.5      1.010      1.021
REMARK  Name = 
REMARK  4 active torsions:
REMARK  status: ('A' for Active; 'I' for Inactive)
REMARK    1  A    between atoms: C_2  and  O_3
REMARK    2  A    between atoms: C_2  and  C_4
REMARK    3  A    between atoms: C_8  and  O_9
REMARK    4  A    between atoms: C_11  and  O_12
REMARK                            x       y       z     vdW  Elec       q    Type
REMARK                         _______ _______ _______ _____ _____    ______ ____
ROOT
ATOM      1  C   UNL     1       5.891   4.752  16.623  0.00  0.00    +0.000 A 
ATOM      2  C   UNL     1       4.515   4.478  16.627  0.00  0.00    +0.000 A 
ATOM      3  C   UNL     1       3.768   4.673  17.788  0.00  0.00    +0.000 A 
ATOM      4 BR   UNL     1       1.905   4.338  17.759  0.00  0.00    +0.000 Br
ATOM      5  C   UNL     1       4.395   5.121  18.952  0.00  0.00    +0.000 A 
ATOM      6  C   UNL     1       5.761   5.389  18.967  0.00  0.00    +0.000 A 
ATOM      7  C   UNL     1       6.503   5.213  17.799  0.00  0.00    +0.000 A 
ENDROOT
BRANCH   1   9
ATOM      8  O   UNL     1       7.526   5.255  14.973  0.00  0.00    +0.000 OA
ATOM      9  C   UNL     1       6.627   4.519  15.349  0.00  0.00    +0.000 C 
BRANCH   9  10
ATOM     10  O   UNL     1       6.265   3.407  14.681  0.00  0.00    +0.000 OA
ATOM     11  H   UNL     1       5.352   3.119  14.901  0.00  0.00    +0.000 HD
ENDBRANCH   9  10
ENDBRANCH   1   9
BRANCH   5  12
ATOM     12  O   UNL     1       3.713   5.321  20.120  0.00  0.00    +0.000 OA
ATOM     13  H   UNL     1       2.762   5.240  19.925  0.00  0.00    +0.000 HD
ENDBRANCH   5  12
BRANCH   7  14
ATOM     14  O   UNL     1       7.842   5.506  17.803  0.00  0.00    +0.000 OA
ATOM     15  H   UNL     1       8.321   4.784  17.353  0.00  0.00    +0.000 HD
ENDBRANCH   7  14
TORSDOF 4
ENDMDL
MODEL 8
REMARK VINA RESULT:      -5.4      1.462      1.749
REMARK  Name = 
REMARK  4 active torsions:
REMARK  status: ('A' for Active; 'I' for Inactive)
REMARK    1  A    between atoms: C_2  and  O_3
REMARK    2  A    between atoms: C_2  and  C_4
REMARK    3  A    between atoms: C_8  and  O_9
REMARK    4  A    between atoms: C_11  and  O_12
REMARK                            x       y       z     vdW  Elec       q    Type
REMARK                         _______ _______ _______ _____ _____    ______ ____
ROOT
ATOM      1  C   UNL     1       6.174   4.959  16.244  0.00  0.00    +0.000 A 
ATOM      2  C   UNL     1       4.888   5.504  16.379  0.00  0.00    +0.000 A 
ATOM      3  C   UNL     1       4.345   5.706  17.648  0.00  0.00    +0.000 A 
ATOM      4 BR   UNL     1       2.626   6.482  17.807  0.00  0.00    +0.000 Br
ATOM      5  C   UNL     1       5.074   5.345  18.782  0.00  0.00    +0.000 A 
ATOM      6  C   UNL     1       6.347   4.795  18.665  0.00  0.00    +0.000 A 
ATOM      7  C   UNL     1       6.897   4.613  17.396  0.00  0.00    +0.000 A 
ENDROOT
BRANCH   1   9
ATOM      8  O   UNL     1       6.130   4.048  14.049  0.00  0.00    +0.000 OA
ATOM      9  C   UNL     1       6.690   4.769  14.860  0.00  0.00    +0.000 C 
BRANCH   9  10
ATOM     10  O   UNL     1       7.782   5.498  14.558  0.00  0.00    +0.000 OA
ATOM     11  H   UNL     1       8.179   5.240  13.698  0.00  0.00    +0.000 HD
ENDBRANCH   9  10
ENDBRANCH   1   9
BRANCH   5  12
ATOM     12  O   UNL     1       4.587   5.513  20.049  0.00  0.00    +0.000 OA
ATOM     13  H   UNL     1       5.298   5.279  20.671  0.00  0.00    +0.000 HD
ENDBRANCH   5  12
BRANCH   7  14
ATOM     14  O   UNL     1       8.163   4.101  17.279  0.00  0.00    +0.000 OA
ATOM     15  H   UNL     1       8.129   3.140  17.454  0.00  0.00    +0.000 HD
ENDBRANCH   7  14
TORSDOF 4
ENDMDL
MODEL 9
REMARK VINA RESULT:      -5.4      2.273      3.573
REMARK  Name = 
REMARK  4 active torsions:
REMARK  status: ('A' for Active; 'I' for Inactive)
REMARK    1  A    between atoms: C_2  and  O_3
REMARK    2  A    between atoms: C_2  and  C_4
REMARK    3  A    between atoms: C_8  and  O_9
REMARK    4  A    between atoms: C_11  and  O_12
REMARK                            x       y       z     vdW  Elec       q    Type
REMARK                         _______ _______ _______ _____ _____    ______ ____
ROOT
ATOM      1  C   UNL     1       5.696   5.018  18.566  0.00  0.00    +0.000 A 
ATOM      2  C   UNL     1       4.575   5.241  19.379  0.00  0.00    +0.000 A 
ATOM      3  C   UNL     1       3.330   4.738  19.003  0.00  0.00    +0.000 A 
ATOM      4 BR   UNL     1       1.838   5.014  20.136  0.00  0.00    +0.000 Br
ATOM      5  C   UNL     1       3.197   4.030  17.808  0.00  0.00    +0.000 A 
ATOM      6  C   UNL     1       4.299   3.808  16.986  0.00  0.00    +0.000 A 
ATOM      7  C   UNL     1       5.547   4.295  17.374  0.00  0.00    +0.000 A 
ENDROOT
BRANCH   1   9
ATOM      8  O   UNL     1       7.443   5.364  20.141  0.00  0.00    +0.000 OA
ATOM      9  C   UNL     1       6.994   5.586  19.027  0.00  0.00    +0.000 C 
BRANCH   9  10
ATOM     10  O   UNL     1       7.655   6.309  18.104  0.00  0.00    +0.000 OA
ATOM     11  H   UNL     1       7.362   7.246  18.080  0.00  0.00    +0.000 HD
ENDBRANCH   9  10
ENDBRANCH   1   9
BRANCH   5  12
ATOM     12  O   UNL     1       2.000   3.522  17.387  0.00  0.00    +0.000 OA
ATOM     13  H   UNL     1       2.107   3.242  16.460  0.00  0.00    +0.000 HD
ENDBRANCH   5  12
BRANCH   7  14
ATOM     14  O   UNL     1       6.639   4.049  16.582  0.00  0.00    +0.000 OA
ATOM     15  H   UNL     1       7.332   3.629  17.127  0.00  0.00    +0.000 HD
ENDBRANCH   7  14
TORSDOF 4
ENDMDL
