MODEL 1
REMARK VINA RESULT:      -8.2      0.000      0.000
REMARK  Name = 
REMARK  3 active torsions:
REMARK  status: ('A' for Active; 'I' for Inactive)
REMARK    1  A    between atoms: C_7  and  C_8
REMARK    2  A    between atoms: C_11  and  C_12
REMARK    3  A    between atoms: C_12  and  N_13
REMARK                            x       y       z     vdW  Elec       q    Type
REMARK                         _______ _______ _______ _____ _____    ______ ____
ROOT
ATOM      1  C   UNL     1       2.370   6.408  19.917  0.00  0.00    +0.000 A 
ATOM      2  N   UNL     1       3.621   6.285  19.554  0.00  0.00    +0.000 NA
ATOM      3  N   UNL     1       3.891   4.960  19.568  0.00  0.00    +0.000 N 
ATOM      4  C   UNL     1       5.041   4.236  19.439  0.00  0.00    +0.000 A 
ATOM      5  N   UNL     1       4.748   2.954  19.625  0.00  0.00    +0.000 NA
ATOM      6  N   UNL     1       3.387   2.851  19.923  0.00  0.00    +0.000 NA
ATOM      7  C   UNL     1       2.930   4.069  19.887  0.00  0.00    +0.000 A 
ATOM      8  S   UNL     1       1.475   4.884  20.244  0.00  0.00    +0.000 S 
ENDROOT
BRANCH   1  15
ATOM      9 CL   UNL     1       2.374   8.478  17.534  0.00  0.00    +0.000 Cl
ATOM     10  C   UNL     1       1.622   8.670  19.081  0.00  0.00    +0.000 A 
ATOM     11  C   UNL     1       0.971   9.893  19.295  0.00  0.00    +0.000 A 
ATOM     12  C   UNL     1       0.378  10.174  20.524  0.00  0.00    +0.000 A 
ATOM     13  C   UNL     1       0.426   9.232  21.545  0.00  0.00    +0.000 A 
ATOM     14  C   UNL     1       1.066   8.005  21.340  0.00  0.00    +0.000 A 
ATOM     15  C   UNL     1       1.680   7.710  20.109  0.00  0.00    +0.000 A 
ENDBRANCH   1  15
BRANCH   4  16
ATOM     16  C   UNL     1       6.372   4.860  19.304  0.00  0.00    +0.000 C 
BRANCH  16  17
ATOM     17  N   UNL     1       6.584   5.437  17.990  0.00  0.00    +0.000 N 
ATOM     18  C   UNL     1       7.331   6.557  17.739  0.00  0.00    +0.000 A 
ATOM     19  N   UNL     1       7.560   6.710  16.454  0.00  0.00    +0.000 NA
ATOM     20  C   UNL     1       6.942   5.645  15.847  0.00  0.00    +0.000 A 
ATOM     21  C   UNL     1       6.913   5.281  14.492  0.00  0.00    +0.000 A 
ATOM     22  C   UNL     1       6.216   4.126  14.118  0.00  0.00    +0.000 A 
ATOM     23  C   UNL     1       5.544   3.357  15.070  0.00  0.00    +0.000 A 
ATOM     24  C   UNL     1       5.564   3.702  16.427  0.00  0.00    +0.000 A 
ATOM     25  C   UNL     1       6.289   4.845  16.784  0.00  0.00    +0.000 A 
ENDBRANCH  16  17
ENDBRANCH   4  16
TORSDOF 3
ENDMDL
MODEL 2
REMARK VINA RESULT:      -8.2      2.265      4.873
REMARK  Name = 
REMARK  3 active torsions:
REMARK  status: ('A' for Active; 'I' for Inactive)
REMARK    1  A    between atoms: C_7  and  C_8
REMARK    2  A    between atoms: C_11  and  C_12
REMARK    3  A    between atoms: C_12  and  N_13
REMARK                            x       y       z     vdW  Elec       q    Type
REMARK                         _______ _______ _______ _____ _____    ______ ____
ROOT
ATOM      1  C   UNL     1       3.488   6.844  17.783  0.00  0.00    +0.000 A 
ATOM      2  N   UNL     1       3.378   5.547  17.907  0.00  0.00    +0.000 NA
ATOM      3  N   UNL     1       4.347   5.007  17.133  0.00  0.00    +0.000 N 
ATOM      4  C   UNL     1       4.629   3.732  16.737  0.00  0.00    +0.000 A 
ATOM      5  N   UNL     1       5.654   3.776  15.893  0.00  0.00    +0.000 NA
ATOM      6  N   UNL     1       6.013   5.113  15.705  0.00  0.00    +0.000 NA
ATOM      7  C   UNL     1       5.200   5.800  16.454  0.00  0.00    +0.000 A 
ATOM      8  S   UNL     1       4.825   7.440  16.738  0.00  0.00    +0.000 S 
ENDROOT
BRANCH   1  15
ATOM      9 CL   UNL     1       2.336   6.205  20.652  0.00  0.00    +0.000 Cl
ATOM     10  C   UNL     1       2.033   7.616  19.696  0.00  0.00    +0.000 A 
ATOM     11  C   UNL     1       1.159   8.557  20.258  0.00  0.00    +0.000 A 
ATOM     12  C   UNL     1       0.803   9.703  19.553  0.00  0.00    +0.000 A 
ATOM     13  C   UNL     1       1.326   9.923  18.283  0.00  0.00    +0.000 A 
ATOM     14  C   UNL     1       2.205   8.995  17.716  0.00  0.00    +0.000 A 
ATOM     15  C   UNL     1       2.565   7.825  18.410  0.00  0.00    +0.000 A 
ENDBRANCH   1  15
BRANCH   4  16
ATOM     16  C   UNL     1       3.779   2.577  17.084  0.00  0.00    +0.000 C 
BRANCH  16  17
ATOM     17  N   UNL     1       3.755   2.313  18.511  0.00  0.00    +0.000 N 
ATOM     18  C   UNL     1       4.858   2.037  19.273  0.00  0.00    +0.000 A 
ATOM     19  N   UNL     1       4.586   2.087  20.558  0.00  0.00    +0.000 NA
ATOM     20  C   UNL     1       3.254   2.414  20.633  0.00  0.00    +0.000 A 
ATOM     21  C   UNL     1       2.453   2.653  21.760  0.00  0.00    +0.000 A 
ATOM     22  C   UNL     1       1.107   2.989  21.574  0.00  0.00    +0.000 A 
ATOM     23  C   UNL     1       0.562   3.067  20.290  0.00  0.00    +0.000 A 
ATOM     24  C   UNL     1       1.345   2.836  19.153  0.00  0.00    +0.000 A 
ATOM     25  C   UNL     1       2.695   2.528  19.361  0.00  0.00    +0.000 A 
ENDBRANCH  16  17
ENDBRANCH   4  16
TORSDOF 3
ENDMDL
MODEL 3
REMARK VINA RESULT:      -8.1      2.281      7.699
REMARK  Name = 
REMARK  3 active torsions:
REMARK  status: ('A' for Active; 'I' for Inactive)
REMARK    1  A    between atoms: C_7  and  C_8
REMARK    2  A    between atoms: C_11  and  C_12
REMARK    3  A    between atoms: C_12  and  N_13
REMARK                            x       y       z     vdW  Elec       q    Type
REMARK                         _______ _______ _______ _____ _____    ______ ____
ROOT
ATOM      1  C   UNL     1       4.397   5.138  17.870  0.00  0.00    +0.000 A 
ATOM      2  N   UNL     1       3.890   6.288  18.232  0.00  0.00    +0.000 NA
ATOM      3  N   UNL     1       3.070   6.030  19.276  0.00  0.00    +0.000 N 
ATOM      4  C   UNL     1       2.161   6.782  19.962  0.00  0.00    +0.000 A 
ATOM      5  N   UNL     1       1.557   5.998  20.848  0.00  0.00    +0.000 NA
ATOM      6  N   UNL     1       2.055   4.701  20.701  0.00  0.00    +0.000 NA
ATOM      7  C   UNL     1       2.940   4.774  19.749  0.00  0.00    +0.000 A 
ATOM      8  S   UNL     1       3.910   3.705  18.840  0.00  0.00    +0.000 S 
ENDROOT
BRANCH   1  15
ATOM      9 CL   UNL     1       7.400   6.078  18.127  0.00  0.00    +0.000 Cl
ATOM     10  C   UNL     1       6.656   5.327  16.757  0.00  0.00    +0.000 A 
ATOM     11  C   UNL     1       7.480   5.146  15.638  0.00  0.00    +0.000 A 
ATOM     12  C   UNL     1       6.969   4.600  14.463  0.00  0.00    +0.000 A 
ATOM     13  C   UNL     1       5.632   4.223  14.400  0.00  0.00    +0.000 A 
ATOM     14  C   UNL     1       4.802   4.391  15.513  0.00  0.00    +0.000 A 
ATOM     15  C   UNL     1       5.300   4.953  16.705  0.00  0.00    +0.000 A 
ENDBRANCH   1  15
BRANCH   4  16
ATOM     16  C   UNL     1       1.831   8.174  19.597  0.00  0.00    +0.000 C 
BRANCH  16  17
ATOM     17  N   UNL     1       1.120   8.871  20.653  0.00  0.00    +0.000 N 
ATOM     18  C   UNL     1       1.466   8.847  21.977  0.00  0.00    +0.000 A 
ATOM     19  N   UNL     1       0.813   9.753  22.668  0.00  0.00    +0.000 NA
ATOM     20  C   UNL     1       0.014  10.397  21.755  0.00  0.00    +0.000 A 
ATOM     21  C   UNL     1      -0.853  11.486  21.934  0.00  0.00    +0.000 A 
ATOM     22  C   UNL     1      -1.557  11.978  20.829  0.00  0.00    +0.000 A 
ATOM     23  C   UNL     1      -1.419  11.385  19.572  0.00  0.00    +0.000 A 
ATOM     24  C   UNL     1      -0.557  10.299  19.372  0.00  0.00    +0.000 A 
ATOM     25  C   UNL     1       0.159   9.841  20.484  0.00  0.00    +0.000 A 
ENDBRANCH  16  17
ENDBRANCH   4  16
TORSDOF 3
ENDMDL
MODEL 4
REMARK VINA RESULT:      -8.1      2.920      7.830
REMARK  Name = 
REMARK  3 active torsions:
REMARK  status: ('A' for Active; 'I' for Inactive)
REMARK    1  A    between atoms: C_7  and  C_8
REMARK    2  A    between atoms: C_11  and  C_12
REMARK    3  A    between atoms: C_12  and  N_13
REMARK                            x       y       z     vdW  Elec       q    Type
REMARK                         _______ _______ _______ _____ _____    ______ ____
ROOT
ATOM      1  C   UNL     1       4.327   6.025  17.583  0.00  0.00    +0.000 A 
ATOM      2  N   UNL     1       3.766   7.205  17.510  0.00  0.00    +0.000 NA
ATOM      3  N   UNL     1       2.959   7.309  18.591  0.00  0.00    +0.000 N 
ATOM      4  C   UNL     1       2.016   8.219  18.972  0.00  0.00    +0.000 A 
ATOM      5  N   UNL     1       1.450   7.785  20.093  0.00  0.00    +0.000 NA
ATOM      6  N   UNL     1       2.009   6.547  20.419  0.00  0.00    +0.000 NA
ATOM      7  C   UNL     1       2.889   6.308  19.491  0.00  0.00    +0.000 A 
ATOM      8  S   UNL     1       3.908   5.024  19.017  0.00  0.00    +0.000 S 
ENDROOT
BRANCH   1  15
ATOM      9 CL   UNL     1       7.383   6.811  17.687  0.00  0.00    +0.000 Cl
ATOM     10  C   UNL     1       6.615   5.756  16.549  0.00  0.00    +0.000 A 
ATOM     11  C   UNL     1       7.446   5.221  15.556  0.00  0.00    +0.000 A 
ATOM     12  C   UNL     1       6.922   4.403  14.559  0.00  0.00    +0.000 A 
ATOM     13  C   UNL     1       5.563   4.107  14.551  0.00  0.00    +0.000 A 
ATOM     14  C   UNL     1       4.725   4.629  15.542  0.00  0.00    +0.000 A 
ATOM     15  C   UNL     1       5.237   5.468  16.550  0.00  0.00    +0.000 A 
ENDBRANCH   1  15
BRANCH   4  16
ATOM     16  C   UNL     1       1.620   9.366  18.131  0.00  0.00    +0.000 C 
BRANCH  16  17
ATOM     17  N   UNL     1       0.632  10.211  18.775  0.00  0.00    +0.000 N 
ATOM     18  C   UNL     1       0.908  11.136  19.746  0.00  0.00    +0.000 A 
ATOM     19  N   UNL     1      -0.118  11.927  19.970  0.00  0.00    +0.000 NA
ATOM     20  C   UNL     1      -1.097  11.502  19.106  0.00  0.00    +0.000 A 
ATOM     21  C   UNL     1      -2.380  12.024  18.881  0.00  0.00    +0.000 A 
ATOM     22  C   UNL     1      -3.199  11.414  17.923  0.00  0.00    +0.000 A 
ATOM     23  C   UNL     1      -2.758  10.294  17.215  0.00  0.00    +0.000 A 
ATOM     24  C   UNL     1      -1.480   9.760  17.423  0.00  0.00    +0.000 A 
ATOM     25  C   UNL     1      -0.667  10.401  18.365  0.00  0.00    +0.000 A 
ENDBRANCH  16  17
ENDBRANCH   4  16
TORSDOF 3
ENDMDL
MODEL 5
REMARK VINA RESULT:      -8.1      3.902      8.142
REMARK  Name = 
REMARK  3 active torsions:
REMARK  status: ('A' for Active; 'I' for Inactive)
REMARK    1  A    between atoms: C_7  and  C_8
REMARK    2  A    between atoms: C_11  and  C_12
REMARK    3  A    between atoms: C_12  and  N_13
REMARK                            x       y       z     vdW  Elec       q    Type
REMARK                         _______ _______ _______ _____ _____    ______ ____
ROOT
ATOM      1  C   UNL     1       2.597   6.913  18.952  0.00  0.00    +0.000 A 
ATOM      2  N   UNL     1       2.185   8.113  18.636  0.00  0.00    +0.000 NA
ATOM      3  N   UNL     1       1.477   8.564  19.697  0.00  0.00    +0.000 N 
ATOM      4  C   UNL     1       0.686   9.657  19.900  0.00  0.00    +0.000 A 
ATOM      5  N   UNL     1       0.152   9.564  21.113  0.00  0.00    +0.000 NA
ATOM      6  N   UNL     1       0.573   8.363  21.689  0.00  0.00    +0.000 NA
ATOM      7  C   UNL     1       1.347   7.805  20.803  0.00  0.00    +0.000 A 
ATOM      8  S   UNL     1       2.160   6.320  20.592  0.00  0.00    +0.000 S 
ENDROOT
BRANCH   1  15
ATOM      9 CL   UNL     1       1.421   4.051  18.328  0.00  0.00    +0.000 Cl
ATOM     10  C   UNL     1       2.877   4.741  17.695  0.00  0.00    +0.000 A 
ATOM     11  C   UNL     1       3.617   3.920  16.834  0.00  0.00    +0.000 A 
ATOM     12  C   UNL     1       4.832   4.355  16.310  0.00  0.00    +0.000 A 
ATOM     13  C   UNL     1       5.311   5.619  16.636  0.00  0.00    +0.000 A 
ATOM     14  C   UNL     1       4.577   6.451  17.488  0.00  0.00    +0.000 A 
ATOM     15  C   UNL     1       3.354   6.021  18.036  0.00  0.00    +0.000 A 
ENDBRANCH   1  15
BRANCH   4  16
ATOM     16  C   UNL     1       0.378  10.634  18.837  0.00  0.00    +0.000 C 
BRANCH  16  17
ATOM     17  N   UNL     1      -1.023  11.012  18.819  0.00  0.00    +0.000 N 
ATOM     18  C   UNL     1      -1.598  11.921  19.666  0.00  0.00    +0.000 A 
ATOM     19  N   UNL     1      -2.806  12.256  19.273  0.00  0.00    +0.000 NA
ATOM     20  C   UNL     1      -3.023  11.540  18.120  0.00  0.00    +0.000 A 
ATOM     21  C   UNL     1      -4.125  11.553  17.252  0.00  0.00    +0.000 A 
ATOM     22  C   UNL     1      -4.102  10.732  16.118  0.00  0.00    +0.000 A 
ATOM     23  C   UNL     1      -3.011   9.898  15.863  0.00  0.00    +0.000 A 
ATOM     24  C   UNL     1      -1.900   9.872  16.716  0.00  0.00    +0.000 A 
ATOM     25  C   UNL     1      -1.932  10.722  17.828  0.00  0.00    +0.000 A 
ENDBRANCH  16  17
ENDBRANCH   4  16
TORSDOF 3
ENDMDL
MODEL 6
REMARK VINA RESULT:      -8.0      3.257      5.130
REMARK  Name = 
REMARK  3 active torsions:
REMARK  status: ('A' for Active; 'I' for Inactive)
REMARK    1  A    between atoms: C_7  and  C_8
REMARK    2  A    between atoms: C_11  and  C_12
REMARK    3  A    between atoms: C_12  and  N_13
REMARK                            x       y       z     vdW  Elec       q    Type
REMARK                         _______ _______ _______ _____ _____    ______ ____
ROOT
ATOM      1  C   UNL     1       0.134  10.390  20.254  0.00  0.00    +0.000 A 
ATOM      2  N   UNL     1       0.753   9.284  20.580  0.00  0.00    +0.000 NA
ATOM      3  N   UNL     1       1.472   8.917  19.494  0.00  0.00    +0.000 N 
ATOM      4  C   UNL     1       2.180   7.795  19.174  0.00  0.00    +0.000 A 
ATOM      5  N   UNL     1       2.620   7.923  17.927  0.00  0.00    +0.000 NA
ATOM      6  N   UNL     1       2.148   9.135  17.416  0.00  0.00    +0.000 NA
ATOM      7  C   UNL     1       1.465   9.678  18.381  0.00  0.00    +0.000 A 
ATOM      8  S   UNL     1       0.459  11.036  18.608  0.00  0.00    +0.000 S 
ENDROOT
BRANCH   1  15
ATOM      9 CL   UNL     1       0.017   9.591  23.306  0.00  0.00    +0.000 Cl
ATOM     10  C   UNL     1      -0.918  10.811  22.510  0.00  0.00    +0.000 A 
ATOM     11  C   UNL     1      -1.843  11.492  23.314  0.00  0.00    +0.000 A 
ATOM     12  C   UNL     1      -2.684  12.456  22.765  0.00  0.00    +0.000 A 
ATOM     13  C   UNL     1      -2.602  12.752  21.408  0.00  0.00    +0.000 A 
ATOM     14  C   UNL     1      -1.678  12.085  20.598  0.00  0.00    +0.000 A 
ATOM     15  C   UNL     1      -0.829  11.099  21.135  0.00  0.00    +0.000 A 
ENDBRANCH   1  15
BRANCH   4  16
ATOM     16  C   UNL     1       2.242   6.608  20.049  0.00  0.00    +0.000 C 
BRANCH  16  17
ATOM     17  N   UNL     1       3.035   5.536  19.476  0.00  0.00    +0.000 N 
ATOM     18  C   UNL     1       4.403   5.506  19.445  0.00  0.00    +0.000 A 
ATOM     19  N   UNL     1       4.856   4.323  19.100  0.00  0.00    +0.000 NA
ATOM     20  C   UNL     1       3.737   3.550  18.904  0.00  0.00    +0.000 A 
ATOM     21  C   UNL     1       3.634   2.190  18.577  0.00  0.00    +0.000 A 
ATOM     22  C   UNL     1       2.362   1.621  18.444  0.00  0.00    +0.000 A 
ATOM     23  C   UNL     1       1.213   2.395  18.613  0.00  0.00    +0.000 A 
ATOM     24  C   UNL     1       1.294   3.754  18.943  0.00  0.00    +0.000 A 
ATOM     25  C   UNL     1       2.575   4.296  19.099  0.00  0.00    +0.000 A 
ENDBRANCH  16  17
ENDBRANCH   4  16
TORSDOF 3
ENDMDL
MODEL 7
REMARK VINA RESULT:      -8.0      3.244      7.297
REMARK  Name = 
REMARK  3 active torsions:
REMARK  status: ('A' for Active; 'I' for Inactive)
REMARK    1  A    between atoms: C_7  and  C_8
REMARK    2  A    between atoms: C_11  and  C_12
REMARK    3  A    between atoms: C_12  and  N_13
REMARK                            x       y       z     vdW  Elec       q    Type
REMARK                         _______ _______ _______ _____ _____    ______ ____
ROOT
ATOM      1  C   UNL     1       6.115   4.783  15.502  0.00  0.00    +0.000 A 
ATOM      2  N   UNL     1       5.097   5.413  16.027  0.00  0.00    +0.000 NA
ATOM      3  N   UNL     1       5.365   5.534  17.347  0.00  0.00    +0.000 N 
ATOM      4  C   UNL     1       4.629   5.949  18.419  0.00  0.00    +0.000 A 
ATOM      5  N   UNL     1       5.359   5.779  19.515  0.00  0.00    +0.000 NA
ATOM      6  N   UNL     1       6.577   5.201  19.148  0.00  0.00    +0.000 NA
ATOM      7  C   UNL     1       6.523   5.068  17.855  0.00  0.00    +0.000 A 
ATOM      8  S   UNL     1       7.460   4.359  16.618  0.00  0.00    +0.000 S 
ENDROOT
BRANCH   1  15
ATOM      9 CL   UNL     1       8.535   5.840  13.772  0.00  0.00    +0.000 Cl
ATOM     10  C   UNL     1       7.263   4.787  13.252  0.00  0.00    +0.000 A 
ATOM     11  C   UNL     1       7.310   4.390  11.909  0.00  0.00    +0.000 A 
ATOM     12  C   UNL     1       6.307   3.587  11.372  0.00  0.00    +0.000 A 
ATOM     13  C   UNL     1       5.253   3.167  12.177  0.00  0.00    +0.000 A 
ATOM     14  C   UNL     1       5.200   3.551  13.521  0.00  0.00    +0.000 A 
ATOM     15  C   UNL     1       6.199   4.373  14.076  0.00  0.00    +0.000 A 
ENDBRANCH   1  15
BRANCH   4  16
ATOM     16  C   UNL     1       3.207   6.331  18.317  0.00  0.00    +0.000 C 
BRANCH  16  17
ATOM     17  N   UNL     1       2.315   5.195  18.455  0.00  0.00    +0.000 N 
ATOM     18  C   UNL     1       1.745   4.517  17.411  0.00  0.00    +0.000 A 
ATOM     19  N   UNL     1       1.191   3.393  17.805  0.00  0.00    +0.000 NA
ATOM     20  C   UNL     1       1.416   3.334  19.159  0.00  0.00    +0.000 A 
ATOM     21  C   UNL     1       1.089   2.325  20.078  0.00  0.00    +0.000 A 
ATOM     22  C   UNL     1       1.442   2.496  21.422  0.00  0.00    +0.000 A 
ATOM     23  C   UNL     1       2.090   3.657  21.848  0.00  0.00    +0.000 A 
ATOM     24  C   UNL     1       2.427   4.674  20.947  0.00  0.00    +0.000 A 
ATOM     25  C   UNL     1       2.090   4.471  19.603  0.00  0.00    +0.000 A 
ENDBRANCH  16  17
ENDBRANCH   4  16
TORSDOF 3
ENDMDL
MODEL 8
REMARK VINA RESULT:      -7.8      3.292      7.925
REMARK  Name = 
REMARK  3 active torsions:
REMARK  status: ('A' for Active; 'I' for Inactive)
REMARK    1  A    between atoms: C_7  and  C_8
REMARK    2  A    between atoms: C_11  and  C_12
REMARK    3  A    between atoms: C_12  and  N_13
REMARK                            x       y       z     vdW  Elec       q    Type
REMARK                         _______ _______ _______ _____ _____    ______ ____
ROOT
ATOM      1  C   UNL     1       3.844   6.337  18.084  0.00  0.00    +0.000 A 
ATOM      2  N   UNL     1       3.306   7.506  17.850  0.00  0.00    +0.000 NA
ATOM      3  N   UNL     1       2.494   7.767  18.900  0.00  0.00    +0.000 N 
ATOM      4  C   UNL     1       1.566   8.735  19.150  0.00  0.00    +0.000 A 
ATOM      5  N   UNL     1       0.985   8.464  20.313  0.00  0.00    +0.000 NA
ATOM      6  N   UNL     1       1.518   7.270  20.805  0.00  0.00    +0.000 NA
ATOM      7  C   UNL     1       2.400   6.894  19.924  0.00  0.00    +0.000 A 
ATOM      8  S   UNL     1       3.397   5.542  19.633  0.00  0.00    +0.000 S 
ENDROOT
BRANCH   1  15
ATOM      9 CL   UNL     1       2.969   3.509  16.986  0.00  0.00    +0.000 Cl
ATOM     10  C   UNL     1       4.414   4.379  16.594  0.00  0.00    +0.000 A 
ATOM     11  C   UNL     1       5.293   3.735  15.714  0.00  0.00    +0.000 A 
ATOM     12  C   UNL     1       6.510   4.321  15.373  0.00  0.00    +0.000 A 
ATOM     13  C   UNL     1       6.852   5.560  15.904  0.00  0.00    +0.000 A 
ATOM     14  C   UNL     1       5.978   6.216  16.777  0.00  0.00    +0.000 A 
ATOM     15  C   UNL     1       4.751   5.631  17.141  0.00  0.00    +0.000 A 
ENDBRANCH   1  15
BRANCH   4  16
ATOM     16  C   UNL     1       1.197   9.768  18.162  0.00  0.00    +0.000 C 
BRANCH  16  17
ATOM     17  N   UNL     1       0.037  10.538  18.570  0.00  0.00    +0.000 N 
ATOM     18  C   UNL     1       0.071  11.615  19.415  0.00  0.00    +0.000 A 
ATOM     19  N   UNL     1      -1.067  12.269  19.415  0.00  0.00    +0.000 NA
ATOM     20  C   UNL     1      -1.873  11.595  18.530  0.00  0.00    +0.000 A 
ATOM     21  C   UNL     1      -3.177  11.888  18.102  0.00  0.00    +0.000 A 
ATOM     22  C   UNL     1      -3.788  11.043  17.169  0.00  0.00    +0.000 A 
ATOM     23  C   UNL     1      -3.123   9.915  16.684  0.00  0.00    +0.000 A 
ATOM     24  C   UNL     1      -1.821   9.606  17.095  0.00  0.00    +0.000 A 
ATOM     25  C   UNL     1      -1.217  10.480  18.008  0.00  0.00    +0.000 A 
ENDBRANCH  16  17
ENDBRANCH   4  16
TORSDOF 3
ENDMDL
MODEL 9
REMARK VINA RESULT:      -7.8      1.626      2.692
REMARK  Name = 
REMARK  3 active torsions:
REMARK  status: ('A' for Active; 'I' for Inactive)
REMARK    1  A    between atoms: C_7  and  C_8
REMARK    2  A    between atoms: C_11  and  C_12
REMARK    3  A    between atoms: C_12  and  N_13
REMARK                            x       y       z     vdW  Elec       q    Type
REMARK                         _______ _______ _______ _____ _____    ______ ____
ROOT
ATOM      1  C   UNL     1       2.413   6.534  19.108  0.00  0.00    +0.000 A 
ATOM      2  N   UNL     1       2.911   5.844  18.114  0.00  0.00    +0.000 NA
ATOM      3  N   UNL     1       3.232   4.630  18.617  0.00  0.00    +0.000 N 
ATOM      4  C   UNL     1       3.917   3.560  18.119  0.00  0.00    +0.000 A 
ATOM      5  N   UNL     1       4.021   2.650  19.081  0.00  0.00    +0.000 NA
ATOM      6  N   UNL     1       3.429   3.161  20.239  0.00  0.00    +0.000 NA
ATOM      7  C   UNL     1       2.987   4.341  19.912  0.00  0.00    +0.000 A 
ATOM      8  S   UNL     1       2.284   5.686  20.688  0.00  0.00    +0.000 S 
ENDROOT
BRANCH   1  15
ATOM      9 CL   UNL     1       0.709   7.766  21.462  0.00  0.00    +0.000 Cl
ATOM     10  C   UNL     1       1.256   8.578  20.035  0.00  0.00    +0.000 A 
ATOM     11  C   UNL     1       0.872   9.920  19.911  0.00  0.00    +0.000 A 
ATOM     12  C   UNL     1       1.212  10.652  18.777  0.00  0.00    +0.000 A 
ATOM     13  C   UNL     1       1.947  10.051  17.761  0.00  0.00    +0.000 A 
ATOM     14  C   UNL     1       2.343   8.714  17.877  0.00  0.00    +0.000 A 
ATOM     15  C   UNL     1       1.997   7.957  19.012  0.00  0.00    +0.000 A 
ENDBRANCH   1  15
BRANCH   4  16
ATOM     16  C   UNL     1       4.561   3.566  16.792  0.00  0.00    +0.000 C 
BRANCH  16  17
ATOM     17  N   UNL     1       5.341   4.768  16.558  0.00  0.00    +0.000 N 
ATOM     18  C   UNL     1       5.058   5.711  15.607  0.00  0.00    +0.000 A 
ATOM     19  N   UNL     1       5.769   6.802  15.778  0.00  0.00    +0.000 NA
ATOM     20  C   UNL     1       6.541   6.561  16.888  0.00  0.00    +0.000 A 
ATOM     21  C   UNL     1       7.445   7.405  17.551  0.00  0.00    +0.000 A 
ATOM     22  C   UNL     1       8.109   6.926  18.686  0.00  0.00    +0.000 A 
ATOM     23  C   UNL     1       7.894   5.624  19.142  0.00  0.00    +0.000 A 
ATOM     24  C   UNL     1       6.994   4.767  18.497  0.00  0.00    +0.000 A 
ATOM     25  C   UNL     1       6.319   5.275  17.381  0.00  0.00    +0.000 A 
ENDBRANCH  16  17
ENDBRANCH   4  16
TORSDOF 3
ENDMDL
