MODEL 1
REMARK VINA RESULT:      -7.7      0.000      0.000
REMARK  Name = 
REMARK  12 active torsions:
REMARK  status: ('A' for Active; 'I' for Inactive)
REMARK    1  A    between atoms: C_1  and  O_2
REMARK    2  A    between atoms: O_2  and  C_3
REMARK    3  A    between atoms: C_5  and  C_6
REMARK    4  A    between atoms: C_7  and  C_8
REMARK    5  A    between atoms: C_8  and  O_10
REMARK    6  A    between atoms: O_10  and  C_11
REMARK    7  A    between atoms: C_11  and  C_12
REMARK    8  A    between atoms: N_14  and  C_15
REMARK    9  A    between atoms: C_15  and  C_16
REMARK   10  A    between atoms: C_16  and  C_17
REMARK   11  A    between atoms: C_25  and  O_26
REMARK   12  A    between atoms: O_26  and  C_27
REMARK                            x       y       z     vdW  Elec       q    Type
REMARK                         _______ _______ _______ _____ _____    ______ ____
ROOT
ATOM      1  C   UNL     1       2.433   3.979  20.990  0.00  0.00    +0.000 C 
ATOM      2  O   UNL     1       2.165   3.442  22.055  0.00  0.00    +0.000 OA
ENDROOT
BRANCH   1   4
ATOM      3  C   UNL     1       2.402   6.237  19.937  0.00  0.00    +0.000 C 
ATOM      4  C   UNL     1       1.767   5.227  20.551  0.00  0.00    +0.000 C 
BRANCH   3   7
ATOM      5  C   UNL     1       1.102   9.780  20.419  0.00  0.00    +0.000 A 
ATOM      6  C   UNL     1       1.397   8.428  20.678  0.00  0.00    +0.000 A 
ATOM      7  C   UNL     1       1.830   7.567  19.659  0.00  0.00    +0.000 A 
ATOM      8  C   UNL     1       1.886   8.060  18.353  0.00  0.00    +0.000 A 
ATOM      9  C   UNL     1       1.530   9.382  18.079  0.00  0.00    +0.000 A 
ATOM     10  C   UNL     1       1.137  10.253  19.101  0.00  0.00    +0.000 A 
BRANCH   5  12
ATOM     11  C   UNL     1      -0.547  10.785  21.794  0.00  0.00    +0.000 C 
ATOM     12  O   UNL     1       0.829  10.666  21.428  0.00  0.00    +0.000 OA
ENDBRANCH   5  12
BRANCH  10  13
ATOM     13  O   UNL     1       0.960  11.540  18.674  0.00  0.00    +0.000 OA
BRANCH  13  14
ATOM     14  C   UNL     1       2.075  12.411  18.702  0.00  0.00    +0.000 C 
ATOM     15  F   UNL     1       3.008  11.864  17.873  0.00  0.00    +0.000 F 
ATOM     16  F   UNL     1       1.732  13.600  18.147  0.00  0.00    +0.000 F 
ENDBRANCH  13  14
ENDBRANCH  10  13
ENDBRANCH   3   7
ENDBRANCH   1   4
BRANCH   1  17
ATOM     17  O   UNL     1       3.413   3.597  20.137  0.00  0.00    +0.000 OA
BRANCH  17  18
ATOM     18  C   UNL     1       3.011   2.599  19.196  0.00  0.00    +0.000 C 
BRANCH  18  19
ATOM     19  C   UNL     1       3.225   3.108  17.766  0.00  0.00    +0.000 C 
ATOM     20  O   UNL     1       2.300   3.215  16.964  0.00  0.00    +0.000 OA
ATOM     21  N   UNL     1       4.526   3.447  17.454  0.00  0.00    +0.000 N 
ATOM     22  H   UNL     1       5.266   3.259  18.119  0.00  0.00    +0.000 HD
BRANCH  21  23
ATOM     23  C   UNL     1       4.891   3.943  16.136  0.00  0.00    +0.000 C 
BRANCH  23  24
ATOM     24  C   UNL     1       6.403   4.123  15.954  0.00  0.00    +0.000 C 
BRANCH  24  25
ATOM     25  C   UNL     1       6.979   5.147  16.900  0.00  0.00    +0.000 A 
ATOM     26  C   UNL     1       7.559   4.746  18.113  0.00  0.00    +0.000 A 
ATOM     27  C   UNL     1       8.103   5.690  18.985  0.00  0.00    +0.000 A 
ATOM     28  C   UNL     1       8.066   7.045  18.657  0.00  0.00    +0.000 A 
ATOM     29  C   UNL     1       7.484   7.455  17.458  0.00  0.00    +0.000 A 
ATOM     30  C   UNL     1       6.940   6.511  16.584  0.00  0.00    +0.000 A 
ENDBRANCH  24  25
ENDBRANCH  23  24
ENDBRANCH  21  23
ENDBRANCH  18  19
ENDBRANCH  17  18
ENDBRANCH   1  17
TORSDOF 11
ENDMDL
MODEL 2
REMARK VINA RESULT:      -7.5      4.977      7.460
REMARK  Name = 
REMARK  12 active torsions:
REMARK  status: ('A' for Active; 'I' for Inactive)
REMARK    1  A    between atoms: C_1  and  O_2
REMARK    2  A    between atoms: O_2  and  C_3
REMARK    3  A    between atoms: C_5  and  C_6
REMARK    4  A    between atoms: C_7  and  C_8
REMARK    5  A    between atoms: C_8  and  O_10
REMARK    6  A    between atoms: O_10  and  C_11
REMARK    7  A    between atoms: C_11  and  C_12
REMARK    8  A    between atoms: N_14  and  C_15
REMARK    9  A    between atoms: C_15  and  C_16
REMARK   10  A    between atoms: C_16  and  C_17
REMARK   11  A    between atoms: C_25  and  O_26
REMARK   12  A    between atoms: O_26  and  C_27
REMARK                            x       y       z     vdW  Elec       q    Type
REMARK                         _______ _______ _______ _____ _____    ______ ____
ROOT
ATOM      1  C   UNL     1       7.533   7.057  17.532  0.00  0.00    +0.000 C 
ATOM      2  O   UNL     1       7.792   6.872  16.352  0.00  0.00    +0.000 OA
ENDROOT
BRANCH   1   4
ATOM      3  C   UNL     1       8.376   9.352  18.011  0.00  0.00    +0.000 C 
ATOM      4  C   UNL     1       8.259   8.058  18.347  0.00  0.00    +0.000 C 
BRANCH   3   7
ATOM      5  C   UNL     1      10.606  12.374  18.623  0.00  0.00    +0.000 A 
ATOM      6  C   UNL     1       9.995  11.285  17.971  0.00  0.00    +0.000 A 
ATOM      7  C   UNL     1       9.244  10.337  18.682  0.00  0.00    +0.000 A 
ATOM      8  C   UNL     1       9.178  10.450  20.072  0.00  0.00    +0.000 A 
ATOM      9  C   UNL     1       9.838  11.489  20.731  0.00  0.00    +0.000 A 
ATOM     10  C   UNL     1      10.554  12.458  20.020  0.00  0.00    +0.000 A 
BRANCH   5  12
ATOM     11  C   UNL     1      10.331  14.372  17.377  0.00  0.00    +0.000 C 
ATOM     12  O   UNL     1      11.209  13.387  17.925  0.00  0.00    +0.000 OA
ENDBRANCH   5  12
BRANCH  10  13
ATOM     13  O   UNL     1      11.015  13.475  20.810  0.00  0.00    +0.000 OA
BRANCH  13  14
ATOM     14  C   UNL     1      10.147  14.561  21.073  0.00  0.00    +0.000 C 
ATOM     15  F   UNL     1      10.730  15.660  20.517  0.00  0.00    +0.000 F 
ATOM     16  F   UNL     1       8.981  14.377  20.405  0.00  0.00    +0.000 F 
ENDBRANCH  13  14
ENDBRANCH  10  13
ENDBRANCH   3   7
ENDBRANCH   1   4
BRANCH   1  17
ATOM     17  O   UNL     1       6.515   6.483  18.216  0.00  0.00    +0.000 OA
BRANCH  17  18
ATOM     18  C   UNL     1       6.673   5.077  18.426  0.00  0.00    +0.000 C 
BRANCH  18  19
ATOM     19  C   UNL     1       5.668   4.303  17.566  0.00  0.00    +0.000 C 
ATOM     20  O   UNL     1       5.663   4.376  16.339  0.00  0.00    +0.000 OA
ATOM     21  N   UNL     1       4.782   3.512  18.269  0.00  0.00    +0.000 N 
ATOM     22  H   UNL     1       4.769   3.552  19.281  0.00  0.00    +0.000 HD
BRANCH  21  23
ATOM     23  C   UNL     1       3.764   2.719  17.596  0.00  0.00    +0.000 C 
BRANCH  23  24
ATOM     24  C   UNL     1       2.431   3.459  17.432  0.00  0.00    +0.000 C 
BRANCH  24  25
ATOM     25  C   UNL     1       2.207   4.487  18.513  0.00  0.00    +0.000 A 
ATOM     26  C   UNL     1       1.604   4.123  19.726  0.00  0.00    +0.000 A 
ATOM     27  C   UNL     1       1.407   5.069  20.733  0.00  0.00    +0.000 A 
ATOM     28  C   UNL     1       1.804   6.391  20.534  0.00  0.00    +0.000 A 
ATOM     29  C   UNL     1       2.397   6.765  19.328  0.00  0.00    +0.000 A 
ATOM     30  C   UNL     1       2.597   5.819  18.321  0.00  0.00    +0.000 A 
ENDBRANCH  24  25
ENDBRANCH  23  24
ENDBRANCH  21  23
ENDBRANCH  18  19
ENDBRANCH  17  18
ENDBRANCH   1  17
TORSDOF 11
ENDMDL
MODEL 3
REMARK VINA RESULT:      -7.5      4.806      7.578
REMARK  Name = 
REMARK  12 active torsions:
REMARK  status: ('A' for Active; 'I' for Inactive)
REMARK    1  A    between atoms: C_1  and  O_2
REMARK    2  A    between atoms: O_2  and  C_3
REMARK    3  A    between atoms: C_5  and  C_6
REMARK    4  A    between atoms: C_7  and  C_8
REMARK    5  A    between atoms: C_8  and  O_10
REMARK    6  A    between atoms: O_10  and  C_11
REMARK    7  A    between atoms: C_11  and  C_12
REMARK    8  A    between atoms: N_14  and  C_15
REMARK    9  A    between atoms: C_15  and  C_16
REMARK   10  A    between atoms: C_16  and  C_17
REMARK   11  A    between atoms: C_25  and  O_26
REMARK   12  A    between atoms: O_26  and  C_27
REMARK                            x       y       z     vdW  Elec       q    Type
REMARK                         _______ _______ _______ _____ _____    ______ ____
ROOT
ATOM      1  C   UNL     1       7.283   6.910  17.124  0.00  0.00    +0.000 C 
ATOM      2  O   UNL     1       7.690   5.802  16.805  0.00  0.00    +0.000 OA
ENDROOT
BRANCH   1   4
ATOM      3  C   UNL     1       8.075   9.183  17.766  0.00  0.00    +0.000 C 
ATOM      4  C   UNL     1       8.106   7.850  17.919  0.00  0.00    +0.000 C 
BRANCH   3   7
ATOM      5  C   UNL     1      10.289  12.228  18.321  0.00  0.00    +0.000 A 
ATOM      6  C   UNL     1       9.617  11.176  17.668  0.00  0.00    +0.000 A 
ATOM      7  C   UNL     1       9.008  10.139  18.390  0.00  0.00    +0.000 A 
ATOM      8  C   UNL     1       9.151  10.125  19.779  0.00  0.00    +0.000 A 
ATOM      9  C   UNL     1       9.874  11.129  20.427  0.00  0.00    +0.000 A 
ATOM     10  C   UNL     1      10.447  12.185  19.712  0.00  0.00    +0.000 A 
BRANCH   5  12
ATOM     11  C   UNL     1      12.166  13.382  17.449  0.00  0.00    +0.000 C 
ATOM     12  O   UNL     1      10.751  13.322  17.639  0.00  0.00    +0.000 OA
ENDBRANCH   5  12
BRANCH  10  13
ATOM     13  O   UNL     1      10.995  13.146  20.516  0.00  0.00    +0.000 OA
BRANCH  13  14
ATOM     14  C   UNL     1      10.123  14.068  21.142  0.00  0.00    +0.000 C 
ATOM     15  F   UNL     1       9.057  14.214  20.306  0.00  0.00    +0.000 F 
ATOM     16  F   UNL     1       9.633  13.520  22.282  0.00  0.00    +0.000 F 
ENDBRANCH  13  14
ENDBRANCH  10  13
ENDBRANCH   3   7
ENDBRANCH   1   4
BRANCH   1  17
ATOM     17  O   UNL     1       6.115   7.467  16.724  0.00  0.00    +0.000 OA
BRANCH  17  18
ATOM     18  C   UNL     1       5.026   7.250  17.625  0.00  0.00    +0.000 C 
BRANCH  18  19
ATOM     19  C   UNL     1       4.926   5.762  17.977  0.00  0.00    +0.000 C 
ATOM     20  O   UNL     1       5.215   5.332  19.092  0.00  0.00    +0.000 OA
ATOM     21  N   UNL     1       4.479   4.947  16.957  0.00  0.00    +0.000 N 
ATOM     22  H   UNL     1       4.338   5.334  16.032  0.00  0.00    +0.000 HD
BRANCH  21  23
ATOM     23  C   UNL     1       4.334   3.510  17.134  0.00  0.00    +0.000 C 
BRANCH  23  24
ATOM     24  C   UNL     1       2.884   3.071  17.374  0.00  0.00    +0.000 C 
BRANCH  24  25
ATOM     25  C   UNL     1       2.480   3.188  18.823  0.00  0.00    +0.000 A 
ATOM     26  C   UNL     1       3.168   2.469  19.812  0.00  0.00    +0.000 A 
ATOM     27  C   UNL     1       2.805   2.585  21.155  0.00  0.00    +0.000 A 
ATOM     28  C   UNL     1       1.745   3.414  21.521  0.00  0.00    +0.000 A 
ATOM     29  C   UNL     1       1.049   4.126  20.544  0.00  0.00    +0.000 A 
ATOM     30  C   UNL     1       1.413   4.013  19.201  0.00  0.00    +0.000 A 
ENDBRANCH  24  25
ENDBRANCH  23  24
ENDBRANCH  21  23
ENDBRANCH  18  19
ENDBRANCH  17  18
ENDBRANCH   1  17
TORSDOF 11
ENDMDL
MODEL 4
REMARK VINA RESULT:      -7.4      3.383      4.925
REMARK  Name = 
REMARK  12 active torsions:
REMARK  status: ('A' for Active; 'I' for Inactive)
REMARK    1  A    between atoms: C_1  and  O_2
REMARK    2  A    between atoms: O_2  and  C_3
REMARK    3  A    between atoms: C_5  and  C_6
REMARK    4  A    between atoms: C_7  and  C_8
REMARK    5  A    between atoms: C_8  and  O_10
REMARK    6  A    between atoms: O_10  and  C_11
REMARK    7  A    between atoms: C_11  and  C_12
REMARK    8  A    between atoms: N_14  and  C_15
REMARK    9  A    between atoms: C_15  and  C_16
REMARK   10  A    between atoms: C_16  and  C_17
REMARK   11  A    between atoms: C_25  and  O_26
REMARK   12  A    between atoms: O_26  and  C_27
REMARK                            x       y       z     vdW  Elec       q    Type
REMARK                         _______ _______ _______ _____ _____    ______ ____
ROOT
ATOM      1  C   UNL     1       5.069   5.857  16.509  0.00  0.00    +0.000 C 
ATOM      2  O   UNL     1       5.271   6.462  15.466  0.00  0.00    +0.000 OA
ENDROOT
BRANCH   1   4
ATOM      3  C   UNL     1       3.423   7.484  17.431  0.00  0.00    +0.000 C 
ATOM      4  C   UNL     1       4.045   6.297  17.485  0.00  0.00    +0.000 C 
BRANCH   3   7
ATOM      5  C   UNL     1       0.718   9.518  19.171  0.00  0.00    +0.000 A 
ATOM      6  C   UNL     1       1.730   9.160  18.259  0.00  0.00    +0.000 A 
ATOM      7  C   UNL     1       2.549   8.042  18.479  0.00  0.00    +0.000 A 
ATOM      8  C   UNL     1       2.394   7.330  19.671  0.00  0.00    +0.000 A 
ATOM      9  C   UNL     1       1.437   7.721  20.610  0.00  0.00    +0.000 A 
ATOM     10  C   UNL     1       0.593   8.811  20.374  0.00  0.00    +0.000 A 
BRANCH   5  12
ATOM     11  C   UNL     1       0.264  11.844  19.135  0.00  0.00    +0.000 C 
ATOM     12  O   UNL     1      -0.186  10.509  18.894  0.00  0.00    +0.000 OA
ENDBRANCH   5  12
BRANCH  10  13
ATOM     13  O   UNL     1      -0.371   8.963  21.331  0.00  0.00    +0.000 OA
BRANCH  13  14
ATOM     14  C   UNL     1      -0.143   9.905  22.363  0.00  0.00    +0.000 C 
ATOM     15  F   UNL     1       0.010   9.186  23.510  0.00  0.00    +0.000 F 
ATOM     16  F   UNL     1       1.043  10.528  22.150  0.00  0.00    +0.000 F 
ENDBRANCH  13  14
ENDBRANCH  10  13
ENDBRANCH   3   7
ENDBRANCH   1   4
BRANCH   1  17
ATOM     17  O   UNL     1       5.641   4.682  16.864  0.00  0.00    +0.000 OA
BRANCH  17  18
ATOM     18  C   UNL     1       7.069   4.728  16.936  0.00  0.00    +0.000 C 
BRANCH  18  19
ATOM     19  C   UNL     1       7.508   5.710  18.027  0.00  0.00    +0.000 C 
ATOM     20  O   UNL     1       7.547   5.395  19.214  0.00  0.00    +0.000 OA
ATOM     21  N   UNL     1       7.866   6.965  17.577  0.00  0.00    +0.000 N 
ATOM     22  H   UNL     1       7.733   7.204  16.602  0.00  0.00    +0.000 HD
BRANCH  21  23
ATOM     23  C   UNL     1       8.301   8.010  18.492  0.00  0.00    +0.000 C 
BRANCH  23  24
ATOM     24  C   UNL     1       8.255   9.413  17.874  0.00  0.00    +0.000 C 
BRANCH  24  25
ATOM     25  C   UNL     1       9.204  10.371  18.551  0.00  0.00    +0.000 A 
ATOM     26  C   UNL     1      10.049  11.191  17.789  0.00  0.00    +0.000 A 
ATOM     27  C   UNL     1      10.919  12.087  18.413  0.00  0.00    +0.000 A 
ATOM     28  C   UNL     1      10.959  12.166  19.804  0.00  0.00    +0.000 A 
ATOM     29  C   UNL     1      10.129  11.349  20.571  0.00  0.00    +0.000 A 
ATOM     30  C   UNL     1       9.257  10.453  19.949  0.00  0.00    +0.000 A 
ENDBRANCH  24  25
ENDBRANCH  23  24
ENDBRANCH  21  23
ENDBRANCH  18  19
ENDBRANCH  17  18
ENDBRANCH   1  17
TORSDOF 11
ENDMDL
MODEL 5
REMARK VINA RESULT:      -7.4      3.738      5.205
REMARK  Name = 
REMARK  12 active torsions:
REMARK  status: ('A' for Active; 'I' for Inactive)
REMARK    1  A    between atoms: C_1  and  O_2
REMARK    2  A    between atoms: O_2  and  C_3
REMARK    3  A    between atoms: C_5  and  C_6
REMARK    4  A    between atoms: C_7  and  C_8
REMARK    5  A    between atoms: C_8  and  O_10
REMARK    6  A    between atoms: O_10  and  C_11
REMARK    7  A    between atoms: C_11  and  C_12
REMARK    8  A    between atoms: N_14  and  C_15
REMARK    9  A    between atoms: C_15  and  C_16
REMARK   10  A    between atoms: C_16  and  C_17
REMARK   11  A    between atoms: C_25  and  O_26
REMARK   12  A    between atoms: O_26  and  C_27
REMARK                            x       y       z     vdW  Elec       q    Type
REMARK                         _______ _______ _______ _____ _____    ______ ____
ROOT
ATOM      1  C   UNL     1       4.751   6.241  16.757  0.00  0.00    +0.000 C 
ATOM      2  O   UNL     1       4.717   6.679  15.616  0.00  0.00    +0.000 OA
ENDROOT
BRANCH   1   4
ATOM      3  C   UNL     1       3.099   7.781  17.810  0.00  0.00    +0.000 C 
ATOM      4  C   UNL     1       3.723   6.594  17.764  0.00  0.00    +0.000 C 
BRANCH   3   7
ATOM      5  C   UNL     1       0.311   9.566  19.686  0.00  0.00    +0.000 A 
ATOM      6  C   UNL     1       1.318   9.308  18.736  0.00  0.00    +0.000 A 
ATOM      7  C   UNL     1       2.220   8.245  18.899  0.00  0.00    +0.000 A 
ATOM      8  C   UNL     1       2.151   7.490  20.072  0.00  0.00    +0.000 A 
ATOM      9  C   UNL     1       1.198   7.785  21.049  0.00  0.00    +0.000 A 
ATOM     10  C   UNL     1       0.272   8.818  20.870  0.00  0.00    +0.000 A 
BRANCH   5  12
ATOM     11  C   UNL     1      -0.225  11.855  19.383  0.00  0.00    +0.000 C 
ATOM     12  O   UNL     1      -0.667  10.499  19.465  0.00  0.00    +0.000 OA
ENDBRANCH   5  12
BRANCH  10  13
ATOM     13  O   UNL     1      -0.671   8.874  21.858  0.00  0.00    +0.000 OA
BRANCH  13  14
ATOM     14  C   UNL     1      -0.545   9.882  22.844  0.00  0.00    +0.000 C 
ATOM     15  F   UNL     1      -0.009   9.277  23.941  0.00  0.00    +0.000 F 
ATOM     16  F   UNL     1       0.369  10.797  22.437  0.00  0.00    +0.000 F 
ENDBRANCH  13  14
ENDBRANCH  10  13
ENDBRANCH   3   7
ENDBRANCH   1   4
BRANCH   1  17
ATOM     17  O   UNL     1       5.628   5.322  17.224  0.00  0.00    +0.000 OA
BRANCH  17  18
ATOM     18  C   UNL     1       6.994   5.606  16.908  0.00  0.00    +0.000 C 
BRANCH  18  19
ATOM     19  C   UNL     1       7.607   6.504  17.988  0.00  0.00    +0.000 C 
ATOM     20  O   UNL     1       7.854   6.092  19.119  0.00  0.00    +0.000 OA
ATOM     21  N   UNL     1       7.869   7.800  17.592  0.00  0.00    +0.000 N 
ATOM     22  H   UNL     1       7.567   8.116  16.678  0.00  0.00    +0.000 HD
BRANCH  21  23
ATOM     23  C   UNL     1       8.447   8.775  18.504  0.00  0.00    +0.000 C 
BRANCH  23  24
ATOM     24  C   UNL     1       8.682  10.145  17.856  0.00  0.00    +0.000 C 
BRANCH  24  25
ATOM     25  C   UNL     1       9.714  10.961  18.595  0.00  0.00    +0.000 A 
ATOM     26  C   UNL     1       9.661  11.078  19.992  0.00  0.00    +0.000 A 
ATOM     27  C   UNL     1      10.621  11.822  20.679  0.00  0.00    +0.000 A 
ATOM     28  C   UNL     1      11.640  12.463  19.975  0.00  0.00    +0.000 A 
ATOM     29  C   UNL     1      11.698  12.360  18.586  0.00  0.00    +0.000 A 
ATOM     30  C   UNL     1      10.738  11.615  17.897  0.00  0.00    +0.000 A 
ENDBRANCH  24  25
ENDBRANCH  23  24
ENDBRANCH  21  23
ENDBRANCH  18  19
ENDBRANCH  17  18
ENDBRANCH   1  17
TORSDOF 11
ENDMDL
MODEL 6
REMARK VINA RESULT:      -7.4      1.540      1.874
REMARK  Name = 
REMARK  12 active torsions:
REMARK  status: ('A' for Active; 'I' for Inactive)
REMARK    1  A    between atoms: C_1  and  O_2
REMARK    2  A    between atoms: O_2  and  C_3
REMARK    3  A    between atoms: C_5  and  C_6
REMARK    4  A    between atoms: C_7  and  C_8
REMARK    5  A    between atoms: C_8  and  O_10
REMARK    6  A    between atoms: O_10  and  C_11
REMARK    7  A    between atoms: C_11  and  C_12
REMARK    8  A    between atoms: N_14  and  C_15
REMARK    9  A    between atoms: C_15  and  C_16
REMARK   10  A    between atoms: C_16  and  C_17
REMARK   11  A    between atoms: C_25  and  O_26
REMARK   12  A    between atoms: O_26  and  C_27
REMARK                            x       y       z     vdW  Elec       q    Type
REMARK                         _______ _______ _______ _____ _____    ______ ____
ROOT
ATOM      1  C   UNL     1       1.588   3.217  21.061  0.00  0.00    +0.000 C 
ATOM      2  O   UNL     1       2.299   3.093  22.048  0.00  0.00    +0.000 OA
ENDROOT
BRANCH   1   4
ATOM      3  C   UNL     1       1.944   5.646  20.636  0.00  0.00    +0.000 C 
ATOM      4  C   UNL     1       1.180   4.545  20.549  0.00  0.00    +0.000 C 
BRANCH   3   7
ATOM      5  C   UNL     1       0.514   9.153  21.001  0.00  0.00    +0.000 A 
ATOM      6  C   UNL     1       0.702   7.770  21.189  0.00  0.00    +0.000 A 
ATOM      7  C   UNL     1       1.508   7.018  20.321  0.00  0.00    +0.000 A 
ATOM      8  C   UNL     1       2.061   7.657  19.208  0.00  0.00    +0.000 A 
ATOM      9  C   UNL     1       1.822   9.014  18.979  0.00  0.00    +0.000 A 
ATOM     10  C   UNL     1       1.052   9.774  19.866  0.00  0.00    +0.000 A 
BRANCH   5  12
ATOM     11  C   UNL     1       0.028   9.535  23.289  0.00  0.00    +0.000 C 
ATOM     12  O   UNL     1      -0.140   9.924  21.924  0.00  0.00    +0.000 OA
ENDBRANCH   5  12
BRANCH  10  13
ATOM     13  O   UNL     1       1.039  11.107  19.563  0.00  0.00    +0.000 OA
BRANCH  13  14
ATOM     14  C   UNL     1       0.002  11.591  18.731  0.00  0.00    +0.000 C 
ATOM     15  F   UNL     1      -1.112  10.876  19.054  0.00  0.00    +0.000 F 
ATOM     16  F   UNL     1      -0.272  12.879  19.056  0.00  0.00    +0.000 F 
ENDBRANCH  13  14
ENDBRANCH  10  13
ENDBRANCH   3   7
ENDBRANCH   1   4
BRANCH   1  17
ATOM     17  O   UNL     1       1.174   2.210  20.254  0.00  0.00    +0.000 OA
BRANCH  17  18
ATOM     18  C   UNL     1       1.214   2.527  18.860  0.00  0.00    +0.000 C 
BRANCH  18  19
ATOM     19  C   UNL     1       2.661   2.492  18.355  0.00  0.00    +0.000 C 
ATOM     20  O   UNL     1       3.342   1.470  18.394  0.00  0.00    +0.000 OA
ATOM     21  N   UNL     1       3.132   3.684  17.845  0.00  0.00    +0.000 N 
ATOM     22  H   UNL     1       2.564   4.519  17.916  0.00  0.00    +0.000 HD
BRANCH  21  23
ATOM     23  C   UNL     1       4.488   3.812  17.331  0.00  0.00    +0.000 C 
BRANCH  23  24
ATOM     24  C   UNL     1       5.528   4.079  18.426  0.00  0.00    +0.000 C 
BRANCH  24  25
ATOM     25  C   UNL     1       6.297   5.356  18.190  0.00  0.00    +0.000 A 
ATOM     26  C   UNL     1       5.856   6.285  17.235  0.00  0.00    +0.000 A 
ATOM     27  C   UNL     1       6.559   7.472  17.024  0.00  0.00    +0.000 A 
ATOM     28  C   UNL     1       7.713   7.739  17.758  0.00  0.00    +0.000 A 
ATOM     29  C   UNL     1       8.165   6.818  18.704  0.00  0.00    +0.000 A 
ATOM     30  C   UNL     1       7.462   5.631  18.918  0.00  0.00    +0.000 A 
ENDBRANCH  24  25
ENDBRANCH  23  24
ENDBRANCH  21  23
ENDBRANCH  18  19
ENDBRANCH  17  18
ENDBRANCH   1  17
TORSDOF 11
ENDMDL
MODEL 7
REMARK VINA RESULT:      -7.4      5.073      7.654
REMARK  Name = 
REMARK  12 active torsions:
REMARK  status: ('A' for Active; 'I' for Inactive)
REMARK    1  A    between atoms: C_1  and  O_2
REMARK    2  A    between atoms: O_2  and  C_3
REMARK    3  A    between atoms: C_5  and  C_6
REMARK    4  A    between atoms: C_7  and  C_8
REMARK    5  A    between atoms: C_8  and  O_10
REMARK    6  A    between atoms: O_10  and  C_11
REMARK    7  A    between atoms: C_11  and  C_12
REMARK    8  A    between atoms: N_14  and  C_15
REMARK    9  A    between atoms: C_15  and  C_16
REMARK   10  A    between atoms: C_16  and  C_17
REMARK   11  A    between atoms: C_25  and  O_26
REMARK   12  A    between atoms: O_26  and  C_27
REMARK                            x       y       z     vdW  Elec       q    Type
REMARK                         _______ _______ _______ _____ _____    ______ ____
ROOT
ATOM      1  C   UNL     1       7.382   7.455  17.441  0.00  0.00    +0.000 C 
ATOM      2  O   UNL     1       6.690   7.205  16.465  0.00  0.00    +0.000 OA
ENDROOT
BRANCH   1   4
ATOM      3  C   UNL     1       8.696   9.153  18.707  0.00  0.00    +0.000 C 
ATOM      4  C   UNL     1       8.133   8.726  17.565  0.00  0.00    +0.000 C 
BRANCH   3   7
ATOM      5  C   UNL     1       9.272  12.911  18.553  0.00  0.00    +0.000 A 
ATOM      6  C   UNL     1       8.908  11.607  18.165  0.00  0.00    +0.000 A 
ATOM      7  C   UNL     1       9.280  10.488  18.927  0.00  0.00    +0.000 A 
ATOM      8  C   UNL     1      10.094  10.688  20.044  0.00  0.00    +0.000 A 
ATOM      9  C   UNL     1      10.515  11.972  20.395  0.00  0.00    +0.000 A 
ATOM     10  C   UNL     1      10.111  13.092  19.660  0.00  0.00    +0.000 A 
BRANCH   5  12
ATOM     11  C   UNL     1       7.383  14.016  17.643  0.00  0.00    +0.000 C 
ATOM     12  O   UNL     1       8.787  14.018  17.908  0.00  0.00    +0.000 OA
ENDBRANCH   5  12
BRANCH  10  13
ATOM     13  O   UNL     1      10.499  14.275  20.224  0.00  0.00    +0.000 OA
BRANCH  13  14
ATOM     14  C   UNL     1      11.814  14.735  19.972  0.00  0.00    +0.000 C 
ATOM     15  F   UNL     1      11.986  14.678  18.622  0.00  0.00    +0.000 F 
ATOM     16  F   UNL     1      11.904  16.047  20.306  0.00  0.00    +0.000 F 
ENDBRANCH  13  14
ENDBRANCH  10  13
ENDBRANCH   3   7
ENDBRANCH   1   4
BRANCH   1  17
ATOM     17  O   UNL     1       7.476   6.696  18.559  0.00  0.00    +0.000 OA
BRANCH  17  18
ATOM     18  C   UNL     1       7.795   5.325  18.307  0.00  0.00    +0.000 C 
BRANCH  18  19
ATOM     19  C   UNL     1       6.678   4.669  17.487  0.00  0.00    +0.000 C 
ATOM     20  O   UNL     1       6.903   4.060  16.445  0.00  0.00    +0.000 OA
ATOM     21  N   UNL     1       5.409   4.804  18.013  0.00  0.00    +0.000 N 
ATOM     22  H   UNL     1       5.264   5.390  18.827  0.00  0.00    +0.000 HD
BRANCH  21  23
ATOM     23  C   UNL     1       4.243   4.241  17.349  0.00  0.00    +0.000 C 
BRANCH  23  24
ATOM     24  C   UNL     1       3.880   2.838  17.850  0.00  0.00    +0.000 C 
BRANCH  24  25
ATOM     25  C   UNL     1       2.963   2.874  19.047  0.00  0.00    +0.000 A 
ATOM     26  C   UNL     1       1.590   3.112  18.884  0.00  0.00    +0.000 A 
ATOM     27  C   UNL     1       0.737   3.133  19.989  0.00  0.00    +0.000 A 
ATOM     28  C   UNL     1       1.250   2.924  21.269  0.00  0.00    +0.000 A 
ATOM     29  C   UNL     1       2.614   2.695  21.443  0.00  0.00    +0.000 A 
ATOM     30  C   UNL     1       3.468   2.672  20.338  0.00  0.00    +0.000 A 
ENDBRANCH  24  25
ENDBRANCH  23  24
ENDBRANCH  21  23
ENDBRANCH  18  19
ENDBRANCH  17  18
ENDBRANCH   1  17
TORSDOF 11
ENDMDL
MODEL 8
REMARK VINA RESULT:      -7.2      4.974      7.531
REMARK  Name = 
REMARK  12 active torsions:
REMARK  status: ('A' for Active; 'I' for Inactive)
REMARK    1  A    between atoms: C_1  and  O_2
REMARK    2  A    between atoms: O_2  and  C_3
REMARK    3  A    between atoms: C_5  and  C_6
REMARK    4  A    between atoms: C_7  and  C_8
REMARK    5  A    between atoms: C_8  and  O_10
REMARK    6  A    between atoms: O_10  and  C_11
REMARK    7  A    between atoms: C_11  and  C_12
REMARK    8  A    between atoms: N_14  and  C_15
REMARK    9  A    between atoms: C_15  and  C_16
REMARK   10  A    between atoms: C_16  and  C_17
REMARK   11  A    between atoms: C_25  and  O_26
REMARK   12  A    between atoms: O_26  and  C_27
REMARK                            x       y       z     vdW  Elec       q    Type
REMARK                         _______ _______ _______ _____ _____    ______ ____
ROOT
ATOM      1  C   UNL     1       7.584   7.149  17.813  0.00  0.00    +0.000 C 
ATOM      2  O   UNL     1       7.995   6.011  17.988  0.00  0.00    +0.000 OA
ENDROOT
BRANCH   1   4
ATOM      3  C   UNL     1       8.249   9.550  17.851  0.00  0.00    +0.000 C 
ATOM      4  C   UNL     1       8.259   8.327  18.404  0.00  0.00    +0.000 C 
BRANCH   3   7
ATOM      5  C   UNL     1       9.442  13.115  18.435  0.00  0.00    +0.000 A 
ATOM      6  C   UNL     1       8.845  12.000  17.817  0.00  0.00    +0.000 A 
ATOM      7  C   UNL     1       9.060  10.698  18.294  0.00  0.00    +0.000 A 
ATOM      8  C   UNL     1       9.949  10.520  19.356  0.00  0.00    +0.000 A 
ATOM      9  C   UNL     1      10.597  11.615  19.930  0.00  0.00    +0.000 A 
ATOM     10  C   UNL     1      10.353  12.918  19.481  0.00  0.00    +0.000 A 
BRANCH   5  12
ATOM     11  C   UNL     1       7.723  14.692  18.014  0.00  0.00    +0.000 C 
ATOM     12  O   UNL     1       9.120  14.397  18.078  0.00  0.00    +0.000 OA
ENDBRANCH   5  12
BRANCH  10  13
ATOM     13  O   UNL     1      10.962  13.874  20.245  0.00  0.00    +0.000 OA
BRANCH  13  14
ATOM     14  C   UNL     1      10.171  14.587  21.178  0.00  0.00    +0.000 C 
ATOM     15  F   UNL     1       9.818  13.691  22.143  0.00  0.00    +0.000 F 
ATOM     16  F   UNL     1      10.936  15.521  21.795  0.00  0.00    +0.000 F 
ENDBRANCH  13  14
ENDBRANCH  10  13
ENDBRANCH   3   7
ENDBRANCH   1   4
BRANCH   1  17
ATOM     17  O   UNL     1       6.562   7.503  16.998  0.00  0.00    +0.000 OA
BRANCH  17  18
ATOM     18  C   UNL     1       6.030   6.421  16.227  0.00  0.00    +0.000 C 
BRANCH  18  19
ATOM     19  C   UNL     1       4.656   6.015  16.771  0.00  0.00    +0.000 C 
ATOM     20  O   UNL     1       4.195   4.888  16.609  0.00  0.00    +0.000 OA
ATOM     21  N   UNL     1       3.986   7.003  17.464  0.00  0.00    +0.000 N 
ATOM     22  H   UNL     1       4.367   7.941  17.495  0.00  0.00    +0.000 HD
BRANCH  21  23
ATOM     23  C   UNL     1       2.668   6.774  18.038  0.00  0.00    +0.000 C 
BRANCH  23  24
ATOM     24  C   UNL     1       2.693   6.600  19.562  0.00  0.00    +0.000 C 
BRANCH  24  25
ATOM     25  C   UNL     1       2.535   5.159  19.979  0.00  0.00    +0.000 A 
ATOM     26  C   UNL     1       1.334   4.712  20.550  0.00  0.00    +0.000 A 
ATOM     27  C   UNL     1       1.181   3.376  20.925  0.00  0.00    +0.000 A 
ATOM     28  C   UNL     1       2.230   2.476  20.741  0.00  0.00    +0.000 A 
ATOM     29  C   UNL     1       3.431   2.913  20.182  0.00  0.00    +0.000 A 
ATOM     30  C   UNL     1       3.585   4.248  19.804  0.00  0.00    +0.000 A 
ENDBRANCH  24  25
ENDBRANCH  23  24
ENDBRANCH  21  23
ENDBRANCH  18  19
ENDBRANCH  17  18
ENDBRANCH   1  17
TORSDOF 11
ENDMDL
MODEL 9
REMARK VINA RESULT:      -7.2      2.666      4.828
REMARK  Name = 
REMARK  12 active torsions:
REMARK  status: ('A' for Active; 'I' for Inactive)
REMARK    1  A    between atoms: C_1  and  O_2
REMARK    2  A    between atoms: O_2  and  C_3
REMARK    3  A    between atoms: C_5  and  C_6
REMARK    4  A    between atoms: C_7  and  C_8
REMARK    5  A    between atoms: C_8  and  O_10
REMARK    6  A    between atoms: O_10  and  C_11
REMARK    7  A    between atoms: C_11  and  C_12
REMARK    8  A    between atoms: N_14  and  C_15
REMARK    9  A    between atoms: C_15  and  C_16
REMARK   10  A    between atoms: C_16  and  C_17
REMARK   11  A    between atoms: C_25  and  O_26
REMARK   12  A    between atoms: O_26  and  C_27
REMARK                            x       y       z     vdW  Elec       q    Type
REMARK                         _______ _______ _______ _____ _____    ______ ____
ROOT
ATOM      1  C   UNL     1       5.238   6.795  16.703  0.00  0.00    +0.000 C 
ATOM      2  O   UNL     1       5.055   6.935  15.502  0.00  0.00    +0.000 OA
ENDROOT
BRANCH   1   4
ATOM      3  C   UNL     1       3.136   7.935  17.403  0.00  0.00    +0.000 C 
ATOM      4  C   UNL     1       4.240   7.234  17.706  0.00  0.00    +0.000 C 
BRANCH   3   7
ATOM      5  C   UNL     1       0.257   9.930  18.888  0.00  0.00    +0.000 A 
ATOM      6  C   UNL     1       1.289   9.540  18.013  0.00  0.00    +0.000 A 
ATOM      7  C   UNL     1       2.223   8.558  18.378  0.00  0.00    +0.000 A 
ATOM      8  C   UNL     1       2.157   8.027  19.668  0.00  0.00    +0.000 A 
ATOM      9  C   UNL     1       1.177   8.460  20.564  0.00  0.00    +0.000 A 
ATOM     10  C   UNL     1       0.221   9.409  20.188  0.00  0.00    +0.000 A 
BRANCH   5  12
ATOM     11  C   UNL     1      -1.676  10.226  17.548  0.00  0.00    +0.000 C 
ATOM     12  O   UNL     1      -0.748  10.771  18.489  0.00  0.00    +0.000 OA
ENDBRANCH   5  12
BRANCH  10  13
ATOM     13  O   UNL     1      -0.741   9.610  21.138  0.00  0.00    +0.000 OA
BRANCH  13  14
ATOM     14  C   UNL     1      -0.345   9.619  22.497  0.00  0.00    +0.000 C 
ATOM     15  F   UNL     1       0.630  10.565  22.604  0.00  0.00    +0.000 F 
ATOM     16  F   UNL     1      -1.375  10.055  23.264  0.00  0.00    +0.000 F 
ENDBRANCH  13  14
ENDBRANCH  10  13
ENDBRANCH   3   7
ENDBRANCH   1   4
BRANCH   1  17
ATOM     17  O   UNL     1       6.281   6.145  17.273  0.00  0.00    +0.000 OA
BRANCH  17  18
ATOM     18  C   UNL     1       6.899   5.176  16.421  0.00  0.00    +0.000 C 
BRANCH  18  19
ATOM     19  C   UNL     1       5.926   4.025  16.143  0.00  0.00    +0.000 C 
ATOM     20  O   UNL     1       5.914   3.423  15.072  0.00  0.00    +0.000 OA
ATOM     21  N   UNL     1       5.079   3.710  17.186  0.00  0.00    +0.000 N 
ATOM     22  H   UNL     1       5.067   4.292  18.015  0.00  0.00    +0.000 HD
BRANCH  21  23
ATOM     23  C   UNL     1       4.094   2.644  17.075  0.00  0.00    +0.000 C 
BRANCH  23  24
ATOM     24  C   UNL     1       2.648   3.139  17.205  0.00  0.00    +0.000 C 
BRANCH  24  25
ATOM     25  C   UNL     1       2.218   3.286  18.643  0.00  0.00    +0.000 A 
ATOM     26  C   UNL     1       2.073   2.155  19.461  0.00  0.00    +0.000 A 
ATOM     27  C   UNL     1       1.687   2.290  20.795  0.00  0.00    +0.000 A 
ATOM     28  C   UNL     1       1.434   3.555  21.324  0.00  0.00    +0.000 A 
ATOM     29  C   UNL     1       1.567   4.685  20.517  0.00  0.00    +0.000 A 
ATOM     30  C   UNL     1       1.955   4.552  19.183  0.00  0.00    +0.000 A 
ENDBRANCH  24  25
ENDBRANCH  23  24
ENDBRANCH  21  23
ENDBRANCH  18  19
ENDBRANCH  17  18
ENDBRANCH   1  17
TORSDOF 11
ENDMDL
