MODEL 1
REMARK VINA RESULT:      -8.4      0.000      0.000
REMARK  Name = 
REMARK  5 active torsions:
REMARK  status: ('A' for Active; 'I' for Inactive)
REMARK    1  A    between atoms: C_1  and  C_2
REMARK    2  A    between atoms: C_2  and  S_3
REMARK    3  A    between atoms: S_3  and  N_6
REMARK    4  A    between atoms: N_6  and  C_7
REMARK    5  A    between atoms: C_16  and  C_17
REMARK                            x       y       z     vdW  Elec       q    Type
REMARK                         _______ _______ _______ _____ _____    ______ ____
ROOT
ATOM      1  C   UNL     1       4.687   5.961  17.371  0.00  0.00    +0.000 A 
ATOM      2  C   UNL     1       4.141   7.222  17.634  0.00  0.00    +0.000 A 
ATOM      3  C   UNL     1       2.839   7.335  18.111  0.00  0.00    +0.000 A 
ATOM      4  C   UNL     1       2.079   6.188  18.327  0.00  0.00    +0.000 A 
ATOM      5  C   UNL     1       2.605   4.912  18.050  0.00  0.00    +0.000 A 
ATOM      6  C   UNL     1       3.922   4.793  17.548  0.00  0.00    +0.000 A 
ATOM      7  C   UNL     1       4.484   3.447  17.155  0.00  0.00    +0.000 C 
ATOM      8  C   UNL     1       3.713   2.237  17.674  0.00  0.00    +0.000 C 
ATOM      9  C   UNL     1       2.208   2.450  17.567  0.00  0.00    +0.000 C 
ATOM     10  C   UNL     1       1.756   3.687  18.347  0.00  0.00    +0.000 C 
ENDROOT
BRANCH  10  11
ATOM     11  C   UNL     1       1.803   3.492  19.845  0.00  0.00    +0.000 A 
ATOM     12  C   UNL     1       2.555   4.130  20.817  0.00  0.00    +0.000 A 
ATOM     13  N   UNL     1       2.187   3.560  22.002  0.00  0.00    +0.000 N 
ATOM     14  C   UNL     1       1.259   2.601  21.724  0.00  0.00    +0.000 A 
ATOM     15  N   UNL     1       1.007   2.532  20.438  0.00  0.00    +0.000 NA
ATOM     16  H   UNL     1       2.536   3.804  22.919  0.00  0.00    +0.000 HD
ENDBRANCH  10  11
BRANCH   1  17
ATOM     17  N   UNL     1       6.051   5.882  16.934  0.00  0.00    +0.000 N 
ATOM     18  H   UNL     1       6.157   5.301  16.099  0.00  0.00    +0.000 HD
BRANCH  17  19
ATOM     19  S   UNL     1       7.201   5.349  18.063  0.00  0.00    +0.000 S 
ATOM     20  O   UNL     1       8.085   4.483  17.310  0.00  0.00    +0.000 OA
ATOM     21  O   UNL     1       6.558   4.916  19.280  0.00  0.00    +0.000 OA
BRANCH  19  23
ATOM     22  C   UNL     1       7.650   7.975  17.424  0.00  0.00    +0.000 C 
ATOM     23  C   UNL     1       8.071   6.880  18.386  0.00  0.00    +0.000 C 
ENDBRANCH  19  23
ENDBRANCH  17  19
ENDBRANCH   1  17
TORSDOF 4
ENDMDL
MODEL 2
REMARK VINA RESULT:      -7.7      1.129      1.292
REMARK  Name = 
REMARK  5 active torsions:
REMARK  status: ('A' for Active; 'I' for Inactive)
REMARK    1  A    between atoms: C_1  and  C_2
REMARK    2  A    between atoms: C_2  and  S_3
REMARK    3  A    between atoms: S_3  and  N_6
REMARK    4  A    between atoms: N_6  and  C_7
REMARK    5  A    between atoms: C_16  and  C_17
REMARK                            x       y       z     vdW  Elec       q    Type
REMARK                         _______ _______ _______ _____ _____    ______ ____
ROOT
ATOM      1  C   UNL     1       4.499   5.565  16.937  0.00  0.00    +0.000 A 
ATOM      2  C   UNL     1       4.251   6.910  17.233  0.00  0.00    +0.000 A 
ATOM      3  C   UNL     1       3.110   7.271  17.943  0.00  0.00    +0.000 A 
ATOM      4  C   UNL     1       2.214   6.288  18.358  0.00  0.00    +0.000 A 
ATOM      5  C   UNL     1       2.438   4.933  18.052  0.00  0.00    +0.000 A 
ATOM      6  C   UNL     1       3.587   4.563  17.315  0.00  0.00    +0.000 A 
ATOM      7  C   UNL     1       3.809   3.130  16.892  0.00  0.00    +0.000 C 
ATOM      8  C   UNL     1       2.950   2.093  17.610  0.00  0.00    +0.000 C 
ATOM      9  C   UNL     1       1.517   2.581  17.780  0.00  0.00    +0.000 C 
ATOM     10  C   UNL     1       1.457   3.893  18.567  0.00  0.00    +0.000 C 
ENDROOT
BRANCH  10  11
ATOM     11  C   UNL     1       1.761   3.714  20.037  0.00  0.00    +0.000 A 
ATOM     12  C   UNL     1       2.452   4.526  20.922  0.00  0.00    +0.000 A 
ATOM     13  N   UNL     1       2.413   3.877  22.124  0.00  0.00    +0.000 N 
ATOM     14  C   UNL     1       1.733   2.711  21.938  0.00  0.00    +0.000 A 
ATOM     15  N   UNL     1       1.330   2.580  20.695  0.00  0.00    +0.000 NA
ATOM     16  H   UNL     1       2.811   4.203  22.994  0.00  0.00    +0.000 HD
ENDBRANCH  10  11
BRANCH   1  17
ATOM     17  N   UNL     1       5.714   5.227  16.252  0.00  0.00    +0.000 N 
ATOM     18  H   UNL     1       5.704   4.267  15.898  0.00  0.00    +0.000 HD
BRANCH  17  19
ATOM     19  S   UNL     1       7.169   5.432  17.101  0.00  0.00    +0.000 S 
ATOM     20  O   UNL     1       7.633   6.752  16.728  0.00  0.00    +0.000 OA
ATOM     21  O   UNL     1       8.005   4.262  16.971  0.00  0.00    +0.000 OA
BRANCH  19  23
ATOM     22  C   UNL     1       7.691   5.562  19.786  0.00  0.00    +0.000 C 
ATOM     23  C   UNL     1       6.556   5.515  18.781  0.00  0.00    +0.000 C 
ENDBRANCH  19  23
ENDBRANCH  17  19
ENDBRANCH   1  17
TORSDOF 4
ENDMDL
MODEL 3
REMARK VINA RESULT:      -7.7      2.576      5.837
REMARK  Name = 
REMARK  5 active torsions:
REMARK  status: ('A' for Active; 'I' for Inactive)
REMARK    1  A    between atoms: C_1  and  C_2
REMARK    2  A    between atoms: C_2  and  S_3
REMARK    3  A    between atoms: S_3  and  N_6
REMARK    4  A    between atoms: N_6  and  C_7
REMARK    5  A    between atoms: C_16  and  C_17
REMARK                            x       y       z     vdW  Elec       q    Type
REMARK                         _______ _______ _______ _____ _____    ______ ____
ROOT
ATOM      1  C   UNL     1       3.559   5.562  19.431  0.00  0.00    +0.000 A 
ATOM      2  C   UNL     1       2.442   6.188  18.867  0.00  0.00    +0.000 A 
ATOM      3  C   UNL     1       2.576   6.944  17.706  0.00  0.00    +0.000 A 
ATOM      4  C   UNL     1       3.827   7.076  17.108  0.00  0.00    +0.000 A 
ATOM      5  C   UNL     1       4.964   6.469  17.672  0.00  0.00    +0.000 A 
ATOM      6  C   UNL     1       4.836   5.715  18.862  0.00  0.00    +0.000 A 
ATOM      7  C   UNL     1       6.050   5.127  19.542  0.00  0.00    +0.000 C 
ATOM      8  C   UNL     1       7.318   5.076  18.694  0.00  0.00    +0.000 C 
ATOM      9  C   UNL     1       7.493   6.352  17.881  0.00  0.00    +0.000 C 
ATOM     10  C   UNL     1       6.298   6.602  16.956  0.00  0.00    +0.000 C 
ENDROOT
BRANCH  10  11
ATOM     11  C   UNL     1       6.248   5.648  15.785  0.00  0.00    +0.000 A 
ATOM     12  C   UNL     1       5.277   4.738  15.402  0.00  0.00    +0.000 A 
ATOM     13  N   UNL     1       5.750   4.152  14.263  0.00  0.00    +0.000 N 
ATOM     14  C   UNL     1       6.973   4.694  14.001  0.00  0.00    +0.000 A 
ATOM     15  N   UNL     1       7.303   5.594  14.897  0.00  0.00    +0.000 NA
ATOM     16  H   UNL     1       5.280   3.446  13.711  0.00  0.00    +0.000 HD
ENDBRANCH  10  11
BRANCH   1  17
ATOM     17  N   UNL     1       3.371   4.745  20.596  0.00  0.00    +0.000 N 
ATOM     18  H   UNL     1       4.184   4.762  21.216  0.00  0.00    +0.000 HD
BRANCH  17  19
ATOM     19  S   UNL     1       2.966   3.115  20.347  0.00  0.00    +0.000 S 
ATOM     20  O   UNL     1       3.203   2.476  21.625  0.00  0.00    +0.000 OA
ATOM     21  O   UNL     1       3.554   2.624  19.124  0.00  0.00    +0.000 OA
BRANCH  19  23
ATOM     22  C   UNL     1       0.752   2.617  18.815  0.00  0.00    +0.000 C 
ATOM     23  C   UNL     1       1.196   3.252  20.119  0.00  0.00    +0.000 C 
ENDBRANCH  19  23
ENDBRANCH  17  19
ENDBRANCH   1  17
TORSDOF 4
ENDMDL
MODEL 4
REMARK VINA RESULT:      -7.6      1.794      2.330
REMARK  Name = 
REMARK  5 active torsions:
REMARK  status: ('A' for Active; 'I' for Inactive)
REMARK    1  A    between atoms: C_1  and  C_2
REMARK    2  A    between atoms: C_2  and  S_3
REMARK    3  A    between atoms: S_3  and  N_6
REMARK    4  A    between atoms: N_6  and  C_7
REMARK    5  A    between atoms: C_16  and  C_17
REMARK                            x       y       z     vdW  Elec       q    Type
REMARK                         _______ _______ _______ _____ _____    ______ ____
ROOT
ATOM      1  C   UNL     1       4.800   5.464  17.251  0.00  0.00    +0.000 A 
ATOM      2  C   UNL     1       4.425   6.794  17.469  0.00  0.00    +0.000 A 
ATOM      3  C   UNL     1       3.176   7.091  18.005  0.00  0.00    +0.000 A 
ATOM      4  C   UNL     1       2.297   6.058  18.324  0.00  0.00    +0.000 A 
ATOM      5  C   UNL     1       2.649   4.715  18.094  0.00  0.00    +0.000 A 
ATOM      6  C   UNL     1       3.911   4.410  17.532  0.00  0.00    +0.000 A 
ATOM      7  C   UNL     1       4.283   2.987  17.188  0.00  0.00    +0.000 C 
ATOM      8  C   UNL     1       3.403   1.908  17.813  0.00  0.00    +0.000 C 
ATOM      9  C   UNL     1       1.931   2.300  17.771  0.00  0.00    +0.000 C 
ATOM     10  C   UNL     1       1.677   3.621  18.502  0.00  0.00    +0.000 C 
ENDROOT
BRANCH  10  11
ATOM     11  C   UNL     1       1.786   3.496  20.004  0.00  0.00    +0.000 A 
ATOM     12  C   UNL     1       2.501   4.244  20.924  0.00  0.00    +0.000 A 
ATOM     13  N   UNL     1       2.225   3.693  22.142  0.00  0.00    +0.000 N 
ATOM     14  C   UNL     1       1.385   2.640  21.935  0.00  0.00    +0.000 A 
ATOM     15  N   UNL     1       1.103   2.492  20.661  0.00  0.00    +0.000 NA
ATOM     16  H   UNL     1       2.575   4.009  23.037  0.00  0.00    +0.000 HD
ENDBRANCH  10  11
BRANCH   1  17
ATOM     17  N   UNL     1       6.117   5.195  16.750  0.00  0.00    +0.000 N 
ATOM     18  H   UNL     1       6.836   5.729  17.245  0.00  0.00    +0.000 HD
BRANCH  17  19
ATOM     19  S   UNL     1       6.380   5.423  15.089  0.00  0.00    +0.000 S 
ATOM     20  O   UNL     1       7.790   5.732  14.976  0.00  0.00    +0.000 OA
ATOM     21  O   UNL     1       5.361   6.275  14.523  0.00  0.00    +0.000 OA
BRANCH  19  23
ATOM     22  C   UNL     1       6.148   3.698  12.974  0.00  0.00    +0.000 C 
ATOM     23  C   UNL     1       6.131   3.754  14.490  0.00  0.00    +0.000 C 
ENDBRANCH  19  23
ENDBRANCH  17  19
ENDBRANCH   1  17
TORSDOF 4
ENDMDL
MODEL 5
REMARK VINA RESULT:      -7.5      1.251      1.514
REMARK  Name = 
REMARK  5 active torsions:
REMARK  status: ('A' for Active; 'I' for Inactive)
REMARK    1  A    between atoms: C_1  and  C_2
REMARK    2  A    between atoms: C_2  and  S_3
REMARK    3  A    between atoms: S_3  and  N_6
REMARK    4  A    between atoms: N_6  and  C_7
REMARK    5  A    between atoms: C_16  and  C_17
REMARK                            x       y       z     vdW  Elec       q    Type
REMARK                         _______ _______ _______ _____ _____    ______ ____
ROOT
ATOM      1  C   UNL     1       4.161   6.314  17.212  0.00  0.00    +0.000 A 
ATOM      2  C   UNL     1       3.647   7.551  17.618  0.00  0.00    +0.000 A 
ATOM      3  C   UNL     1       2.439   7.615  18.305  0.00  0.00    +0.000 A 
ATOM      4  C   UNL     1       1.741   6.444  18.588  0.00  0.00    +0.000 A 
ATOM      5  C   UNL     1       2.233   5.193  18.171  0.00  0.00    +0.000 A 
ATOM      6  C   UNL     1       3.452   5.124  17.456  0.00  0.00    +0.000 A 
ATOM      7  C   UNL     1       3.961   3.809  16.917  0.00  0.00    +0.000 C 
ATOM      8  C   UNL     1       3.302   2.560  17.497  0.00  0.00    +0.000 C 
ATOM      9  C   UNL     1       1.797   2.746  17.646  0.00  0.00    +0.000 C 
ATOM     10  C   UNL     1       1.460   3.939  18.545  0.00  0.00    +0.000 C 
ENDROOT
BRANCH  10  11
ATOM     11  C   UNL     1       1.754   3.679  20.005  0.00  0.00    +0.000 A 
ATOM     12  C   UNL     1       2.441   4.439  20.938  0.00  0.00    +0.000 A 
ATOM     13  N   UNL     1       2.391   3.726  22.101  0.00  0.00    +0.000 N 
ATOM     14  C   UNL     1       1.709   2.574  21.848  0.00  0.00    +0.000 A 
ATOM     15  N   UNL     1       1.315   2.512  20.597  0.00  0.00    +0.000 NA
ATOM     16  H   UNL     1       2.785   4.003  22.991  0.00  0.00    +0.000 HD
ENDBRANCH  10  11
BRANCH   1  17
ATOM     17  N   UNL     1       5.437   6.283  16.556  0.00  0.00    +0.000 N 
ATOM     18  H   UNL     1       5.496   5.535  15.862  0.00  0.00    +0.000 HD
BRANCH  17  19
ATOM     19  S   UNL     1       6.815   6.166  17.539  0.00  0.00    +0.000 S 
ATOM     20  O   UNL     1       6.303   5.886  18.864  0.00  0.00    +0.000 OA
ATOM     21  O   UNL     1       7.719   7.263  17.283  0.00  0.00    +0.000 OA
BRANCH  19  23
ATOM     22  C   UNL     1       7.130   4.411  15.460  0.00  0.00    +0.000 C 
ATOM     23  C   UNL     1       7.543   4.661  16.898  0.00  0.00    +0.000 C 
ENDBRANCH  19  23
ENDBRANCH  17  19
ENDBRANCH   1  17
TORSDOF 4
ENDMDL
MODEL 6
REMARK VINA RESULT:      -7.5      2.519      3.292
REMARK  Name = 
REMARK  5 active torsions:
REMARK  status: ('A' for Active; 'I' for Inactive)
REMARK    1  A    between atoms: C_1  and  C_2
REMARK    2  A    between atoms: C_2  and  S_3
REMARK    3  A    between atoms: S_3  and  N_6
REMARK    4  A    between atoms: N_6  and  C_7
REMARK    5  A    between atoms: C_16  and  C_17
REMARK                            x       y       z     vdW  Elec       q    Type
REMARK                         _______ _______ _______ _____ _____    ______ ____
ROOT
ATOM      1  C   UNL     1       6.019   4.443  17.107  0.00  0.00    +0.000 A 
ATOM      2  C   UNL     1       7.029   4.987  17.908  0.00  0.00    +0.000 A 
ATOM      3  C   UNL     1       6.716   5.557  19.138  0.00  0.00    +0.000 A 
ATOM      4  C   UNL     1       5.393   5.583  19.571  0.00  0.00    +0.000 A 
ATOM      5  C   UNL     1       4.362   5.057  18.771  0.00  0.00    +0.000 A 
ATOM      6  C   UNL     1       4.672   4.494  17.511  0.00  0.00    +0.000 A 
ATOM      7  C   UNL     1       3.581   4.004  16.590  0.00  0.00    +0.000 C 
ATOM      8  C   UNL     1       2.212   3.811  17.237  0.00  0.00    +0.000 C 
ATOM      9  C   UNL     1       1.889   4.947  18.200  0.00  0.00    +0.000 C 
ATOM     10  C   UNL     1       2.939   5.066  19.307  0.00  0.00    +0.000 C 
ENDROOT
BRANCH  10  11
ATOM     11  C   UNL     1       2.861   3.945  20.319  0.00  0.00    +0.000 A 
ATOM     12  C   UNL     1       2.073   3.800  21.448  0.00  0.00    +0.000 A 
ATOM     13  N   UNL     1       2.412   2.590  21.981  0.00  0.00    +0.000 N 
ATOM     14  C   UNL     1       3.385   2.053  21.193  0.00  0.00    +0.000 A 
ATOM     15  N   UNL     1       3.681   2.842  20.186  0.00  0.00    +0.000 NA
ATOM     16  H   UNL     1       2.012   2.165  22.808  0.00  0.00    +0.000 HD
ENDBRANCH  10  11
BRANCH   1  17
ATOM     17  N   UNL     1       6.388   3.814  15.871  0.00  0.00    +0.000 N 
ATOM     18  H   UNL     1       7.255   3.278  15.953  0.00  0.00    +0.000 HD
BRANCH  17  19
ATOM     19  S   UNL     1       6.542   4.811  14.506  0.00  0.00    +0.000 S 
ATOM     20  O   UNL     1       7.964   5.054  14.384  0.00  0.00    +0.000 OA
ATOM     21  O   UNL     1       5.582   5.888  14.550  0.00  0.00    +0.000 OA
BRANCH  19  23
ATOM     22  C   UNL     1       6.986   3.767  12.013  0.00  0.00    +0.000 C 
ATOM     23  C   UNL     1       6.064   3.668  13.214  0.00  0.00    +0.000 C 
ENDBRANCH  19  23
ENDBRANCH  17  19
ENDBRANCH   1  17
TORSDOF 4
ENDMDL
MODEL 7
REMARK VINA RESULT:      -7.5      2.875      5.713
REMARK  Name = 
REMARK  5 active torsions:
REMARK  status: ('A' for Active; 'I' for Inactive)
REMARK    1  A    between atoms: C_1  and  C_2
REMARK    2  A    between atoms: C_2  and  S_3
REMARK    3  A    between atoms: S_3  and  N_6
REMARK    4  A    between atoms: N_6  and  C_7
REMARK    5  A    between atoms: C_16  and  C_17
REMARK                            x       y       z     vdW  Elec       q    Type
REMARK                         _______ _______ _______ _____ _____    ______ ____
ROOT
ATOM      1  C   UNL     1       3.588   5.525  19.512  0.00  0.00    +0.000 A 
ATOM      2  C   UNL     1       2.434   6.076  18.945  0.00  0.00    +0.000 A 
ATOM      3  C   UNL     1       2.513   6.793  17.756  0.00  0.00    +0.000 A 
ATOM      4  C   UNL     1       3.745   6.962  17.130  0.00  0.00    +0.000 A 
ATOM      5  C   UNL     1       4.920   6.431  17.695  0.00  0.00    +0.000 A 
ATOM      6  C   UNL     1       4.847   5.717  18.914  0.00  0.00    +0.000 A 
ATOM      7  C   UNL     1       6.099   5.213  19.593  0.00  0.00    +0.000 C 
ATOM      8  C   UNL     1       7.354   5.190  18.725  0.00  0.00    +0.000 C 
ATOM      9  C   UNL     1       7.454   6.442  17.862  0.00  0.00    +0.000 C 
ATOM     10  C   UNL     1       6.234   6.600  16.951  0.00  0.00    +0.000 C 
ENDROOT
BRANCH  10  11
ATOM     11  C   UNL     1       6.210   5.601  15.817  0.00  0.00    +0.000 A 
ATOM     12  C   UNL     1       5.289   4.617  15.498  0.00  0.00    +0.000 A 
ATOM     13  N   UNL     1       5.765   4.020  14.366  0.00  0.00    +0.000 N 
ATOM     14  C   UNL     1       6.941   4.629  14.044  0.00  0.00    +0.000 A 
ATOM     15  N   UNL     1       7.239   5.582  14.897  0.00  0.00    +0.000 NA
ATOM     16  H   UNL     1       5.325   3.266  13.855  0.00  0.00    +0.000 HD
ENDBRANCH  10  11
BRANCH   1  17
ATOM     17  N   UNL     1       3.459   4.744  20.709  0.00  0.00    +0.000 N 
ATOM     18  H   UNL     1       4.360   4.584  21.166  0.00  0.00    +0.000 HD
BRANCH  17  19
ATOM     19  S   UNL     1       2.690   3.237  20.577  0.00  0.00    +0.000 S 
ATOM     20  O   UNL     1       1.417   3.524  19.950  0.00  0.00    +0.000 OA
ATOM     21  O   UNL     1       2.786   2.505  21.818  0.00  0.00    +0.000 OA
BRANCH  19  23
ATOM     22  C   UNL     1       3.010   2.244  18.045  0.00  0.00    +0.000 C 
ATOM     23  C   UNL     1       3.738   2.444  19.360  0.00  0.00    +0.000 C 
ENDBRANCH  19  23
ENDBRANCH  17  19
ENDBRANCH   1  17
TORSDOF 4
ENDMDL
MODEL 8
REMARK VINA RESULT:      -7.3      2.855      5.953
REMARK  Name = 
REMARK  5 active torsions:
REMARK  status: ('A' for Active; 'I' for Inactive)
REMARK    1  A    between atoms: C_1  and  C_2
REMARK    2  A    between atoms: C_2  and  S_3
REMARK    3  A    between atoms: S_3  and  N_6
REMARK    4  A    between atoms: N_6  and  C_7
REMARK    5  A    between atoms: C_16  and  C_17
REMARK                            x       y       z     vdW  Elec       q    Type
REMARK                         _______ _______ _______ _____ _____    ______ ____
ROOT
ATOM      1  C   UNL     1       3.557   5.946  19.088  0.00  0.00    +0.000 A 
ATOM      2  C   UNL     1       2.632   6.726  18.385  0.00  0.00    +0.000 A 
ATOM      3  C   UNL     1       3.015   7.385  17.221  0.00  0.00    +0.000 A 
ATOM      4  C   UNL     1       4.322   7.267  16.757  0.00  0.00    +0.000 A 
ATOM      5  C   UNL     1       5.271   6.502  17.461  0.00  0.00    +0.000 A 
ATOM      6  C   UNL     1       4.892   5.845  18.655  0.00  0.00    +0.000 A 
ATOM      7  C   UNL     1       5.906   5.092  19.482  0.00  0.00    +0.000 C 
ATOM      8  C   UNL     1       7.224   4.776  18.778  0.00  0.00    +0.000 C 
ATOM      9  C   UNL     1       7.705   5.958  17.946  0.00  0.00    +0.000 C 
ATOM     10  C   UNL     1       6.672   6.363  16.890  0.00  0.00    +0.000 C 
ENDROOT
BRANCH  10  11
ATOM     11  C   UNL     1       6.570   5.372  15.753  0.00  0.00    +0.000 A 
ATOM     12  C   UNL     1       5.777   4.246  15.603  0.00  0.00    +0.000 A 
ATOM     13  N   UNL     1       6.091   3.735  14.377  0.00  0.00    +0.000 N 
ATOM     14  C   UNL     1       7.054   4.532  13.834  0.00  0.00    +0.000 A 
ATOM     15  N   UNL     1       7.367   5.524  14.636  0.00  0.00    +0.000 NA
ATOM     16  H   UNL     1       5.682   2.917  13.945  0.00  0.00    +0.000 HD
ENDBRANCH  10  11
BRANCH   1  17
ATOM     17  N   UNL     1       3.111   5.237  20.253  0.00  0.00    +0.000 N 
ATOM     18  H   UNL     1       3.890   4.912  20.830  0.00  0.00    +0.000 HD
BRANCH  17  19
ATOM     19  S   UNL     1       2.080   3.910  20.010  0.00  0.00    +0.000 S 
ATOM     20  O   UNL     1       2.573   3.274  18.805  0.00  0.00    +0.000 OA
ATOM     21  O   UNL     1       0.699   4.303  20.158  0.00  0.00    +0.000 OA
BRANCH  19  23
ATOM     22  C   UNL     1       1.318   2.324  22.108  0.00  0.00    +0.000 C 
ATOM     23  C   UNL     1       2.539   2.884  21.403  0.00  0.00    +0.000 C 
ENDBRANCH  19  23
ENDBRANCH  17  19
ENDBRANCH   1  17
TORSDOF 4
ENDMDL
MODEL 9
REMARK VINA RESULT:      -6.7      2.729      5.602
REMARK  Name = 
REMARK  5 active torsions:
REMARK  status: ('A' for Active; 'I' for Inactive)
REMARK    1  A    between atoms: C_1  and  C_2
REMARK    2  A    between atoms: C_2  and  S_3
REMARK    3  A    between atoms: S_3  and  N_6
REMARK    4  A    between atoms: N_6  and  C_7
REMARK    5  A    between atoms: C_16  and  C_17
REMARK                            x       y       z     vdW  Elec       q    Type
REMARK                         _______ _______ _______ _____ _____    ______ ____
ROOT
ATOM      1  C   UNL     1       3.451   5.971  19.209  0.00  0.00    +0.000 A 
ATOM      2  C   UNL     1       2.548   6.837  18.584  0.00  0.00    +0.000 A 
ATOM      3  C   UNL     1       2.927   7.539  17.444  0.00  0.00    +0.000 A 
ATOM      4  C   UNL     1       4.210   7.376  16.926  0.00  0.00    +0.000 A 
ATOM      5  C   UNL     1       5.137   6.524  17.553  0.00  0.00    +0.000 A 
ATOM      6  C   UNL     1       4.763   5.823  18.723  0.00  0.00    +0.000 A 
ATOM      7  C   UNL     1       5.762   4.971  19.470  0.00  0.00    +0.000 C 
ATOM      8  C   UNL     1       7.035   4.626  18.702  0.00  0.00    +0.000 C 
ATOM      9  C   UNL     1       7.552   5.825  17.918  0.00  0.00    +0.000 C 
ATOM     10  C   UNL     1       6.509   6.342  16.924  0.00  0.00    +0.000 C 
ENDROOT
BRANCH  10  11
ATOM     11  C   UNL     1       6.314   5.423  15.740  0.00  0.00    +0.000 A 
ATOM     12  C   UNL     1       7.140   5.149  14.662  0.00  0.00    +0.000 A 
ATOM     13  N   UNL     1       6.464   4.238  13.902  0.00  0.00    +0.000 N 
ATOM     14  C   UNL     1       5.268   4.003  14.512  0.00  0.00    +0.000 A 
ATOM     15  N   UNL     1       5.144   4.701  15.617  0.00  0.00    +0.000 NA
ATOM     16  H   UNL     1       6.790   3.812  13.045  0.00  0.00    +0.000 HD
ENDBRANCH  10  11
BRANCH   1  17
ATOM     17  N   UNL     1       3.006   5.222  20.350  0.00  0.00    +0.000 N 
ATOM     18  H   UNL     1       3.753   5.076  21.032  0.00  0.00    +0.000 HD
BRANCH  17  19
ATOM     19  S   UNL     1       2.291   3.711  20.058  0.00  0.00    +0.000 S 
ATOM     20  O   UNL     1       1.062   3.728  20.825  0.00  0.00    +0.000 OA
ATOM     21  O   UNL     1       3.263   2.652  20.193  0.00  0.00    +0.000 OA
BRANCH  19  23
ATOM     22  C   UNL     1       2.589   2.860  17.472  0.00  0.00    +0.000 C 
ATOM     23  C   UNL     1       1.864   3.882  18.328  0.00  0.00    +0.000 C 
ENDBRANCH  19  23
ENDBRANCH  17  19
ENDBRANCH   1  17
TORSDOF 4
ENDMDL
