MODEL 1
REMARK VINA RESULT:      -8.1      0.000      0.000
REMARK  Name = 
REMARK  10 active torsions:
REMARK  status: ('A' for Active; 'I' for Inactive)
REMARK    1  A    between atoms: C_1  and  C_2
REMARK    2  A    between atoms: C_2  and  O_3
REMARK    3  A    between atoms: C_2  and  C_4
REMARK    4  A    between atoms: C_4  and  N_5
REMARK    5  A    between atoms: C_4  and  C_6
REMARK    6  A    between atoms: N_8  and  S_9
REMARK    7  A    between atoms: S_9  and  C_12
REMARK    8  A    between atoms: C_13  and  C_14
REMARK    9  A    between atoms: C_18  and  C_19
REMARK   10  A    between atoms: C_21  and  N_22
REMARK                            x       y       z     vdW  Elec       q    Type
REMARK                         _______ _______ _______ _____ _____    ______ ____
ROOT
ATOM      1  C   UNL     1       2.485   5.033  18.958  0.00  0.00    +0.000 C 
ATOM      2  C   UNL     1       3.126   6.212  18.974  0.00  0.00    +0.000 C 
ENDROOT
BRANCH   2   3
ATOM      3  C   UNL     1       2.451   7.515  18.874  0.00  0.00    +0.000 A 
ATOM      4  C   UNL     1       2.510   8.298  17.716  0.00  0.00    +0.000 A 
ATOM      5  C   UNL     1       1.846   9.519  17.656  0.00  0.00    +0.000 A 
ATOM      6  C   UNL     1       1.138   9.986  18.764  0.00  0.00    +0.000 A 
ATOM      7  C   UNL     1       1.090   9.254  19.965  0.00  0.00    +0.000 A 
ATOM      8  C   UNL     1       1.755   8.011  19.988  0.00  0.00    +0.000 A 
BRANCH   7   9
ATOM      9  C   UNL     1       0.382   9.766  21.160  0.00  0.00    +0.000 A 
ATOM     10  C   UNL     1      -0.432  10.884  21.119  0.00  0.00    +0.000 A 
ATOM     11  C   UNL     1      -1.028  11.276  22.297  0.00  0.00    +0.000 A 
ATOM     12  N   UNL     1      -0.867  10.613  23.443  0.00  0.00    +0.000 NA
ATOM     13  C   UNL     1      -0.064   9.541  23.392  0.00  0.00    +0.000 A 
ATOM     14  N   UNL     1       0.584   9.086  22.309  0.00  0.00    +0.000 NA
BRANCH  11  15
ATOM     15  N   UNL     1      -1.888  12.373  22.313  0.00  0.00    +0.000 N 
ATOM     16  H   UNL     1      -2.126  12.664  23.254  0.00  0.00    +0.000 HD
ATOM     17  H   UNL     1      -2.712  12.129  21.768  0.00  0.00    +0.000 HD
ENDBRANCH  11  15
ENDBRANCH   7   9
ENDBRANCH   2   3
BRANCH   1  18
ATOM     18  S   UNL     1       3.386   3.569  19.162  0.00  0.00    +0.000 S 
ATOM     19  O   UNL     1       3.154   2.711  18.018  0.00  0.00    +0.000 OA
ATOM     20  O   UNL     1       3.182   3.060  20.499  0.00  0.00    +0.000 OA
BRANCH  18  23
ATOM     21  C   UNL     1       5.614   4.324  17.813  0.00  0.00    +0.000 C 
ATOM     22  O   UNL     1       5.043   4.261  16.730  0.00  0.00    +0.000 OA
ATOM     23  N   UNL     1       4.986   4.008  19.025  0.00  0.00    +0.000 N 
ATOM     24  H   UNL     1       5.485   3.992  19.908  0.00  0.00    +0.000 HD
BRANCH  21  25
ATOM     25  C   UNL     1       7.119   4.623  17.939  0.00  0.00    +0.000 C 
BRANCH  25  26
ATOM     26  N   UNL     1       7.661   4.944  16.595  0.00  0.00    +0.000 NA
ATOM     27  H   UNL     1       7.555   5.958  16.459  0.00  0.00    +0.000 HD
ATOM     28  H   UNL     1       7.109   4.505  15.860  0.00  0.00    +0.000 HD
ENDBRANCH  25  26
BRANCH  25  30
ATOM     29  C   UNL     1       7.876   7.065  18.225  0.00  0.00    +0.000 C 
ATOM     30  C   UNL     1       7.385   5.798  18.913  0.00  0.00    +0.000 C 
BRANCH  30  31
ATOM     31  O   UNL     1       8.315   5.422  19.938  0.00  0.00    +0.000 OA
ATOM     32  H   UNL     1       8.037   5.862  20.767  0.00  0.00    +0.000 HD
ENDBRANCH  30  31
ENDBRANCH  25  30
ENDBRANCH  21  25
ENDBRANCH  18  23
ENDBRANCH   1  18
TORSDOF 9
ENDMDL
MODEL 2
REMARK VINA RESULT:      -8.0      3.731      8.456
REMARK  Name = 
REMARK  10 active torsions:
REMARK  status: ('A' for Active; 'I' for Inactive)
REMARK    1  A    between atoms: C_1  and  C_2
REMARK    2  A    between atoms: C_2  and  O_3
REMARK    3  A    between atoms: C_2  and  C_4
REMARK    4  A    between atoms: C_4  and  N_5
REMARK    5  A    between atoms: C_4  and  C_6
REMARK    6  A    between atoms: N_8  and  S_9
REMARK    7  A    between atoms: S_9  and  C_12
REMARK    8  A    between atoms: C_13  and  C_14
REMARK    9  A    between atoms: C_18  and  C_19
REMARK   10  A    between atoms: C_21  and  N_22
REMARK                            x       y       z     vdW  Elec       q    Type
REMARK                         _______ _______ _______ _____ _____    ______ ____
ROOT
ATOM      1  C   UNL     1       1.919   7.492  20.947  0.00  0.00    +0.000 C 
ATOM      2  C   UNL     1       1.429   6.250  20.804  0.00  0.00    +0.000 C 
ENDROOT
BRANCH   2   3
ATOM      3  C   UNL     1       2.250   5.077  20.470  0.00  0.00    +0.000 A 
ATOM      4  C   UNL     1       2.013   3.817  21.031  0.00  0.00    +0.000 A 
ATOM      5  C   UNL     1       2.804   2.728  20.678  0.00  0.00    +0.000 A 
ATOM      6  C   UNL     1       3.860   2.891  19.782  0.00  0.00    +0.000 A 
ATOM      7  C   UNL     1       4.164   4.150  19.229  0.00  0.00    +0.000 A 
ATOM      8  C   UNL     1       3.333   5.229  19.589  0.00  0.00    +0.000 A 
BRANCH   7   9
ATOM      9  C   UNL     1       5.314   4.340  18.316  0.00  0.00    +0.000 A 
ATOM     10  C   UNL     1       5.240   4.069  16.961  0.00  0.00    +0.000 A 
ATOM     11  C   UNL     1       6.377   4.271  16.212  0.00  0.00    +0.000 A 
ATOM     12  N   UNL     1       7.515   4.731  16.736  0.00  0.00    +0.000 NA
ATOM     13  C   UNL     1       7.497   4.969  18.054  0.00  0.00    +0.000 A 
ATOM     14  N   UNL     1       6.457   4.786  18.881  0.00  0.00    +0.000 NA
BRANCH  11  15
ATOM     15  N   UNL     1       6.356   4.050  14.835  0.00  0.00    +0.000 N 
ATOM     16  H   UNL     1       5.571   3.479  14.547  0.00  0.00    +0.000 HD
ATOM     17  H   UNL     1       7.248   3.635  14.574  0.00  0.00    +0.000 HD
ENDBRANCH  11  15
ENDBRANCH   7   9
ENDBRANCH   2   3
BRANCH   1  18
ATOM     18  S   UNL     1       0.862   8.778  21.420  0.00  0.00    +0.000 S 
ATOM     19  O   UNL     1       1.419   9.442  22.580  0.00  0.00    +0.000 OA
ATOM     20  O   UNL     1      -0.500   8.295  21.449  0.00  0.00    +0.000 OA
BRANCH  18  23
ATOM     21  C   UNL     1       0.166  11.057  20.126  0.00  0.00    +0.000 C 
ATOM     22  O   UNL     1      -0.728  11.301  20.928  0.00  0.00    +0.000 OA
ATOM     23  N   UNL     1       0.971   9.913  20.207  0.00  0.00    +0.000 N 
ATOM     24  H   UNL     1       1.660   9.682  19.499  0.00  0.00    +0.000 HD
BRANCH  21  25
ATOM     25  C   UNL     1       0.407  11.913  18.869  0.00  0.00    +0.000 C 
BRANCH  25  26
ATOM     26  N   UNL     1      -0.063  13.297  19.130  0.00  0.00    +0.000 NA
ATOM     27  H   UNL     1       0.383  13.905  18.432  0.00  0.00    +0.000 HD
ATOM     28  H   UNL     1       0.260  13.630  20.037  0.00  0.00    +0.000 HD
ENDBRANCH  25  26
BRANCH  25  30
ATOM     29  C   UNL     1       2.396  13.287  17.991  0.00  0.00    +0.000 C 
ATOM     30  C   UNL     1       1.902  11.927  18.468  0.00  0.00    +0.000 C 
BRANCH  30  31
ATOM     31  O   UNL     1       2.180  10.941  17.465  0.00  0.00    +0.000 OA
ATOM     32  H   UNL     1       1.561  10.195  17.600  0.00  0.00    +0.000 HD
ENDBRANCH  30  31
ENDBRANCH  25  30
ENDBRANCH  21  25
ENDBRANCH  18  23
ENDBRANCH   1  18
TORSDOF 9
ENDMDL
MODEL 3
REMARK VINA RESULT:      -8.0      3.840      8.626
REMARK  Name = 
REMARK  10 active torsions:
REMARK  status: ('A' for Active; 'I' for Inactive)
REMARK    1  A    between atoms: C_1  and  C_2
REMARK    2  A    between atoms: C_2  and  O_3
REMARK    3  A    between atoms: C_2  and  C_4
REMARK    4  A    between atoms: C_4  and  N_5
REMARK    5  A    between atoms: C_4  and  C_6
REMARK    6  A    between atoms: N_8  and  S_9
REMARK    7  A    between atoms: S_9  and  C_12
REMARK    8  A    between atoms: C_13  and  C_14
REMARK    9  A    between atoms: C_18  and  C_19
REMARK   10  A    between atoms: C_21  and  N_22
REMARK                            x       y       z     vdW  Elec       q    Type
REMARK                         _______ _______ _______ _____ _____    ______ ____
ROOT
ATOM      1  C   UNL     1       1.840   7.518  20.857  0.00  0.00    +0.000 C 
ATOM      2  C   UNL     1       1.364   6.263  20.863  0.00  0.00    +0.000 C 
ENDROOT
BRANCH   2   3
ATOM      3  C   UNL     1       2.151   5.085  20.470  0.00  0.00    +0.000 A 
ATOM      4  C   UNL     1       1.843   3.798  20.924  0.00  0.00    +0.000 A 
ATOM      5  C   UNL     1       2.604   2.706  20.518  0.00  0.00    +0.000 A 
ATOM      6  C   UNL     1       3.699   2.891  19.675  0.00  0.00    +0.000 A 
ATOM      7  C   UNL     1       4.074   4.173  19.231  0.00  0.00    +0.000 A 
ATOM      8  C   UNL     1       3.272   5.256  19.642  0.00  0.00    +0.000 A 
BRANCH   7   9
ATOM      9  C   UNL     1       5.264   4.383  18.376  0.00  0.00    +0.000 A 
ATOM     10  C   UNL     1       5.249   4.157  17.011  0.00  0.00    +0.000 A 
ATOM     11  C   UNL     1       6.420   4.372  16.320  0.00  0.00    +0.000 A 
ATOM     12  N   UNL     1       7.536   4.805  16.909  0.00  0.00    +0.000 NA
ATOM     13  C   UNL     1       7.461   5.001  18.232  0.00  0.00    +0.000 A 
ATOM     14  N   UNL     1       6.384   4.800  19.006  0.00  0.00    +0.000 NA
BRANCH  11  15
ATOM     15  N   UNL     1       6.459   4.197  14.938  0.00  0.00    +0.000 N 
ATOM     16  H   UNL     1       6.021   4.961  14.438  0.00  0.00    +0.000 HD
ATOM     17  H   UNL     1       6.023   3.302  14.727  0.00  0.00    +0.000 HD
ENDBRANCH  11  15
ENDBRANCH   7   9
ENDBRANCH   2   3
BRANCH   1  18
ATOM     18  S   UNL     1       0.839   8.814  21.418  0.00  0.00    +0.000 S 
ATOM     19  O   UNL     1       1.552   9.550  22.441  0.00  0.00    +0.000 OA
ATOM     20  O   UNL     1      -0.492   8.314  21.683  0.00  0.00    +0.000 OA
BRANCH  18  23
ATOM     21  C   UNL     1       0.116  11.135  20.217  0.00  0.00    +0.000 C 
ATOM     22  O   UNL     1      -0.447  11.542  21.227  0.00  0.00    +0.000 OA
ATOM     23  N   UNL     1       0.735   9.880  20.144  0.00  0.00    +0.000 N 
ATOM     24  H   UNL     1       1.135   9.521  19.284  0.00  0.00    +0.000 HD
BRANCH  21  25
ATOM     25  C   UNL     1       0.082  11.903  18.884  0.00  0.00    +0.000 C 
BRANCH  25  26
ATOM     26  N   UNL     1       1.394  11.750  18.206  0.00  0.00    +0.000 NA
ATOM     27  H   UNL     1       2.068  11.438  18.916  0.00  0.00    +0.000 HD
ATOM     28  H   UNL     1       1.741  12.647  17.868  0.00  0.00    +0.000 HD
ENDBRANCH  25  26
BRANCH  25  30
ATOM     29  C   UNL     1      -2.438  11.477  18.593  0.00  0.00    +0.000 C 
ATOM     30  C   UNL     1      -1.053  11.393  17.962  0.00  0.00    +0.000 C 
BRANCH  30  31
ATOM     31  O   UNL     1      -0.807  10.048  17.531  0.00  0.00    +0.000 OA
ATOM     32  H   UNL     1      -1.644   9.549  17.619  0.00  0.00    +0.000 HD
ENDBRANCH  30  31
ENDBRANCH  25  30
ENDBRANCH  21  25
ENDBRANCH  18  23
ENDBRANCH   1  18
TORSDOF 9
ENDMDL
MODEL 4
REMARK VINA RESULT:      -7.9      4.224      8.771
REMARK  Name = 
REMARK  10 active torsions:
REMARK  status: ('A' for Active; 'I' for Inactive)
REMARK    1  A    between atoms: C_1  and  C_2
REMARK    2  A    between atoms: C_2  and  O_3
REMARK    3  A    between atoms: C_2  and  C_4
REMARK    4  A    between atoms: C_4  and  N_5
REMARK    5  A    between atoms: C_4  and  C_6
REMARK    6  A    between atoms: N_8  and  S_9
REMARK    7  A    between atoms: S_9  and  C_12
REMARK    8  A    between atoms: C_13  and  C_14
REMARK    9  A    between atoms: C_18  and  C_19
REMARK   10  A    between atoms: C_21  and  N_22
REMARK                            x       y       z     vdW  Elec       q    Type
REMARK                         _______ _______ _______ _____ _____    ______ ____
ROOT
ATOM      1  C   UNL     1       1.351   8.207  20.303  0.00  0.00    +0.000 C 
ATOM      2  C   UNL     1       1.241   7.008  20.899  0.00  0.00    +0.000 C 
ENDROOT
BRANCH   2   3
ATOM      3  C   UNL     1       2.029   5.827  20.518  0.00  0.00    +0.000 A 
ATOM      4  C   UNL     1       1.732   4.546  20.998  0.00  0.00    +0.000 A 
ATOM      5  C   UNL     1       2.493   3.451  20.603  0.00  0.00    +0.000 A 
ATOM      6  C   UNL     1       3.580   3.626  19.746  0.00  0.00    +0.000 A 
ATOM      7  C   UNL     1       3.944   4.902  19.276  0.00  0.00    +0.000 A 
ATOM      8  C   UNL     1       3.141   5.989  19.676  0.00  0.00    +0.000 A 
BRANCH   7   9
ATOM      9  C   UNL     1       5.125   5.102  18.406  0.00  0.00    +0.000 A 
ATOM     10  C   UNL     1       5.015   5.435  17.067  0.00  0.00    +0.000 A 
ATOM     11  C   UNL     1       6.182   5.582  16.353  0.00  0.00    +0.000 A 
ATOM     12  N   UNL     1       7.389   5.439  16.905  0.00  0.00    +0.000 NA
ATOM     13  C   UNL     1       7.403   5.120  18.206  0.00  0.00    +0.000 A 
ATOM     14  N   UNL     1       6.330   4.929  18.989  0.00  0.00    +0.000 NA
BRANCH  11  15
ATOM     15  N   UNL     1       6.138   5.952  15.010  0.00  0.00    +0.000 N 
ATOM     16  H   UNL     1       5.274   6.420  14.765  0.00  0.00    +0.000 HD
ATOM     17  H   UNL     1       6.291   5.114  14.452  0.00  0.00    +0.000 HD
ENDBRANCH  11  15
ENDBRANCH   7   9
ENDBRANCH   2   3
BRANCH   1  18
ATOM     18  S   UNL     1       0.423   9.542  20.895  0.00  0.00    +0.000 S 
ATOM     19  O   UNL     1       1.320  10.633  21.216  0.00  0.00    +0.000 OA
ATOM     20  O   UNL     1      -0.524   9.071  21.880  0.00  0.00    +0.000 OA
BRANCH  18  23
ATOM     21  C   UNL     1      -1.281  11.220  19.616  0.00  0.00    +0.000 C 
ATOM     22  O   UNL     1      -1.484  11.873  20.634  0.00  0.00    +0.000 OA
ATOM     23  N   UNL     1      -0.442  10.097  19.586  0.00  0.00    +0.000 N 
ATOM     24  H   UNL     1      -0.337   9.521  18.758  0.00  0.00    +0.000 HD
BRANCH  21  25
ATOM     25  C   UNL     1      -2.032  11.485  18.298  0.00  0.00    +0.000 C 
BRANCH  25  26
ATOM     26  N   UNL     1      -1.299  12.519  17.525  0.00  0.00    +0.000 NA
ATOM     27  H   UNL     1      -0.930  13.200  18.201  0.00  0.00    +0.000 HD
ATOM     28  H   UNL     1      -1.928  13.041  16.918  0.00  0.00    +0.000 HD
ENDBRANCH  25  26
BRANCH  25  30
ATOM     29  C   UNL     1      -2.433  10.453  15.977  0.00  0.00    +0.000 C 
ATOM     30  C   UNL     1      -2.175  10.194  17.456  0.00  0.00    +0.000 C 
BRANCH  30  31
ATOM     31  O   UNL     1      -3.206   9.346  17.977  0.00  0.00    +0.000 OA
ATOM     32  H   UNL     1      -3.784   9.894  18.545  0.00  0.00    +0.000 HD
ENDBRANCH  30  31
ENDBRANCH  25  30
ENDBRANCH  21  25
ENDBRANCH  18  23
ENDBRANCH   1  18
TORSDOF 9
ENDMDL
MODEL 5
REMARK VINA RESULT:      -7.9      5.022      8.919
REMARK  Name = 
REMARK  10 active torsions:
REMARK  status: ('A' for Active; 'I' for Inactive)
REMARK    1  A    between atoms: C_1  and  C_2
REMARK    2  A    between atoms: C_2  and  O_3
REMARK    3  A    between atoms: C_2  and  C_4
REMARK    4  A    between atoms: C_4  and  N_5
REMARK    5  A    between atoms: C_4  and  C_6
REMARK    6  A    between atoms: N_8  and  S_9
REMARK    7  A    between atoms: S_9  and  C_12
REMARK    8  A    between atoms: C_13  and  C_14
REMARK    9  A    between atoms: C_18  and  C_19
REMARK   10  A    between atoms: C_21  and  N_22
REMARK                            x       y       z     vdW  Elec       q    Type
REMARK                         _______ _______ _______ _____ _____    ______ ____
ROOT
ATOM      1  C   UNL     1       1.215   9.296  19.409  0.00  0.00    +0.000 C 
ATOM      2  C   UNL     1       1.620   8.980  18.169  0.00  0.00    +0.000 C 
ENDROOT
BRANCH   2   3
ATOM      3  C   UNL     1       2.567   7.896  17.866  0.00  0.00    +0.000 A 
ATOM      4  C   UNL     1       3.781   8.128  17.211  0.00  0.00    +0.000 A 
ATOM      5  C   UNL     1       4.656   7.078  16.955  0.00  0.00    +0.000 A 
ATOM      6  C   UNL     1       4.316   5.777  17.325  0.00  0.00    +0.000 A 
ATOM      7  C   UNL     1       3.084   5.489  17.943  0.00  0.00    +0.000 A 
ATOM      8  C   UNL     1       2.228   6.577  18.209  0.00  0.00    +0.000 A 
BRANCH   7   9
ATOM      9  C   UNL     1       2.695   4.105  18.294  0.00  0.00    +0.000 A 
ATOM     10  C   UNL     1       3.576   3.042  18.214  0.00  0.00    +0.000 A 
ATOM     11  C   UNL     1       3.098   1.796  18.552  0.00  0.00    +0.000 A 
ATOM     12  N   UNL     1       1.847   1.591  18.967  0.00  0.00    +0.000 NA
ATOM     13  C   UNL     1       1.062   2.676  19.017  0.00  0.00    +0.000 A 
ATOM     14  N   UNL     1       1.415   3.928  18.689  0.00  0.00    +0.000 NA
BRANCH  11  15
ATOM     15  N   UNL     1       3.947   0.690  18.527  0.00  0.00    +0.000 N 
ATOM     16  H   UNL     1       4.697   0.793  17.853  0.00  0.00    +0.000 HD
ATOM     17  H   UNL     1       3.379  -0.133  18.343  0.00  0.00    +0.000 HD
ENDBRANCH  11  15
ENDBRANCH   7   9
ENDBRANCH   2   3
BRANCH   1  18
ATOM     18  S   UNL     1       0.036  10.543  19.629  0.00  0.00    +0.000 S 
ATOM     19  O   UNL     1       0.573  11.792  19.129  0.00  0.00    +0.000 OA
ATOM     20  O   UNL     1      -0.496  10.472  20.972  0.00  0.00    +0.000 OA
BRANCH  18  23
ATOM     21  C   UNL     1      -2.406  10.890  18.501  0.00  0.00    +0.000 C 
ATOM     22  O   UNL     1      -2.674  11.827  19.245  0.00  0.00    +0.000 OA
ATOM     23  N   UNL     1      -1.200  10.179  18.576  0.00  0.00    +0.000 N 
ATOM     24  H   UNL     1      -1.017   9.360  18.006  0.00  0.00    +0.000 HD
BRANCH  21  25
ATOM     25  C   UNL     1      -3.422  10.310  17.500  0.00  0.00    +0.000 C 
BRANCH  25  26
ATOM     26  N   UNL     1      -4.795  10.597  17.986  0.00  0.00    +0.000 NA
ATOM     27  H   UNL     1      -4.703  11.129  18.861  0.00  0.00    +0.000 HD
ATOM     28  H   UNL     1      -5.286   9.739  18.233  0.00  0.00    +0.000 HD
ENDBRANCH  25  26
BRANCH  25  30
ATOM     29  C   UNL     1      -3.071   9.851  14.994  0.00  0.00    +0.000 C 
ATOM     30  C   UNL     1      -3.226  10.904  16.084  0.00  0.00    +0.000 C 
BRANCH  30  31
ATOM     31  O   UNL     1      -2.104  11.797  16.046  0.00  0.00    +0.000 OA
ATOM     32  H   UNL     1      -1.626  11.638  15.207  0.00  0.00    +0.000 HD
ENDBRANCH  30  31
ENDBRANCH  25  30
ENDBRANCH  21  25
ENDBRANCH  18  23
ENDBRANCH   1  18
TORSDOF 9
ENDMDL
MODEL 6
REMARK VINA RESULT:      -7.9      4.184      8.714
REMARK  Name = 
REMARK  10 active torsions:
REMARK  status: ('A' for Active; 'I' for Inactive)
REMARK    1  A    between atoms: C_1  and  C_2
REMARK    2  A    between atoms: C_2  and  O_3
REMARK    3  A    between atoms: C_2  and  C_4
REMARK    4  A    between atoms: C_4  and  N_5
REMARK    5  A    between atoms: C_4  and  C_6
REMARK    6  A    between atoms: N_8  and  S_9
REMARK    7  A    between atoms: S_9  and  C_12
REMARK    8  A    between atoms: C_13  and  C_14
REMARK    9  A    between atoms: C_18  and  C_19
REMARK   10  A    between atoms: C_21  and  N_22
REMARK                            x       y       z     vdW  Elec       q    Type
REMARK                         _______ _______ _______ _____ _____    ______ ____
ROOT
ATOM      1  C   UNL     1       1.693   7.636  20.628  0.00  0.00    +0.000 C 
ATOM      2  C   UNL     1       1.486   6.321  20.807  0.00  0.00    +0.000 C 
ENDROOT
BRANCH   2   3
ATOM      3  C   UNL     1       2.373   5.271  20.284  0.00  0.00    +0.000 A 
ATOM      4  C   UNL     1       2.268   3.937  20.691  0.00  0.00    +0.000 A 
ATOM      5  C   UNL     1       3.118   2.970  20.163  0.00  0.00    +0.000 A 
ATOM      6  C   UNL     1       4.101   3.330  19.241  0.00  0.00    +0.000 A 
ATOM      7  C   UNL     1       4.272   4.668  18.838  0.00  0.00    +0.000 A 
ATOM      8  C   UNL     1       3.384   5.621  19.375  0.00  0.00    +0.000 A 
BRANCH   7   9
ATOM      9  C   UNL     1       5.345   5.065  17.898  0.00  0.00    +0.000 A 
ATOM     10  C   UNL     1       6.002   6.279  17.990  0.00  0.00    +0.000 A 
ATOM     11  C   UNL     1       6.974   6.546  17.052  0.00  0.00    +0.000 A 
ATOM     12  N   UNL     1       7.309   5.680  16.093  0.00  0.00    +0.000 NA
ATOM     13  C   UNL     1       6.625   4.529  16.080  0.00  0.00    +0.000 A 
ATOM     14  N   UNL     1       5.646   4.176  16.927  0.00  0.00    +0.000 NA
BRANCH  11  15
ATOM     15  N   UNL     1       7.696   7.737  17.112  0.00  0.00    +0.000 N 
ATOM     16  H   UNL     1       8.227   7.824  17.970  0.00  0.00    +0.000 HD
ATOM     17  H   UNL     1       7.040   8.504  16.988  0.00  0.00    +0.000 HD
ENDBRANCH  11  15
ENDBRANCH   7   9
ENDBRANCH   2   3
BRANCH   1  18
ATOM     18  S   UNL     1       0.619   8.777  21.361  0.00  0.00    +0.000 S 
ATOM     19  O   UNL     1       1.374   9.624  22.260  0.00  0.00    +0.000 OA
ATOM     20  O   UNL     1      -0.562   8.091  21.836  0.00  0.00    +0.000 OA
BRANCH  18  23
ATOM     21  C   UNL     1      -0.684  10.911  20.311  0.00  0.00    +0.000 C 
ATOM     22  O   UNL     1      -1.181  11.205  21.393  0.00  0.00    +0.000 OA
ATOM     23  N   UNL     1       0.150   9.799  20.133  0.00  0.00    +0.000 N 
ATOM     24  H   UNL     1       0.497   9.521  19.222  0.00  0.00    +0.000 HD
BRANCH  21  25
ATOM     25  C   UNL     1      -1.035  11.654  19.009  0.00  0.00    +0.000 C 
BRANCH  25  26
ATOM     26  N   UNL     1       0.083  11.493  18.045  0.00  0.00    +0.000 NA
ATOM     27  H   UNL     1      -0.256  10.889  17.286  0.00  0.00    +0.000 HD
ATOM     28  H   UNL     1       0.865  10.996  18.468  0.00  0.00    +0.000 HD
ENDBRANCH  25  26
BRANCH  25  30
ATOM     29  C   UNL     1      -2.167  10.483  17.018  0.00  0.00    +0.000 C 
ATOM     30  C   UNL     1      -2.351  11.123  18.388  0.00  0.00    +0.000 C 
BRANCH  30  31
ATOM     31  O   UNL     1      -3.339  12.158  18.302  0.00  0.00    +0.000 OA
ATOM     32  H   UNL     1      -4.151  11.764  17.924  0.00  0.00    +0.000 HD
ENDBRANCH  30  31
ENDBRANCH  25  30
ENDBRANCH  21  25
ENDBRANCH  18  23
ENDBRANCH   1  18
TORSDOF 9
ENDMDL
MODEL 7
REMARK VINA RESULT:      -7.8      3.925      8.559
REMARK  Name = 
REMARK  10 active torsions:
REMARK  status: ('A' for Active; 'I' for Inactive)
REMARK    1  A    between atoms: C_1  and  C_2
REMARK    2  A    between atoms: C_2  and  O_3
REMARK    3  A    between atoms: C_2  and  C_4
REMARK    4  A    between atoms: C_4  and  N_5
REMARK    5  A    between atoms: C_4  and  C_6
REMARK    6  A    between atoms: N_8  and  S_9
REMARK    7  A    between atoms: S_9  and  C_12
REMARK    8  A    between atoms: C_13  and  C_14
REMARK    9  A    between atoms: C_18  and  C_19
REMARK   10  A    between atoms: C_21  and  N_22
REMARK                            x       y       z     vdW  Elec       q    Type
REMARK                         _______ _______ _______ _____ _____    ______ ____
ROOT
ATOM      1  C   UNL     1       1.715   7.529  20.516  0.00  0.00    +0.000 C 
ATOM      2  C   UNL     1       1.444   6.263  20.871  0.00  0.00    +0.000 C 
ENDROOT
BRANCH   2   3
ATOM      3  C   UNL     1       2.066   5.085  20.248  0.00  0.00    +0.000 A 
ATOM      4  C   UNL     1       1.531   3.799  20.388  0.00  0.00    +0.000 A 
ATOM      5  C   UNL     1       2.142   2.711  19.772  0.00  0.00    +0.000 A 
ATOM      6  C   UNL     1       3.310   2.891  19.032  0.00  0.00    +0.000 A 
ATOM      7  C   UNL     1       3.908   4.158  18.903  0.00  0.00    +0.000 A 
ATOM      8  C   UNL     1       3.256   5.244  19.521  0.00  0.00    +0.000 A 
BRANCH   7   9
ATOM      9  C   UNL     1       5.175   4.348  18.161  0.00  0.00    +0.000 A 
ATOM     10  C   UNL     1       5.266   4.178  16.791  0.00  0.00    +0.000 A 
ATOM     11  C   UNL     1       6.500   4.368  16.210  0.00  0.00    +0.000 A 
ATOM     12  N   UNL     1       7.579   4.726  16.908  0.00  0.00    +0.000 NA
ATOM     13  C   UNL     1       7.400   4.872  18.228  0.00  0.00    +0.000 A 
ATOM     14  N   UNL     1       6.253   4.689  18.899  0.00  0.00    +0.000 NA
BRANCH  11  15
ATOM     15  N   UNL     1       6.649   4.246  14.829  0.00  0.00    +0.000 N 
ATOM     16  H   UNL     1       6.532   5.129  14.348  0.00  0.00    +0.000 HD
ATOM     17  H   UNL     1       5.988   3.544  14.507  0.00  0.00    +0.000 HD
ENDBRANCH  11  15
ENDBRANCH   7   9
ENDBRANCH   2   3
BRANCH   1  18
ATOM     18  S   UNL     1       0.975   8.834  21.379  0.00  0.00    +0.000 S 
ATOM     19  O   UNL     1       1.826   9.205  22.490  0.00  0.00    +0.000 OA
ATOM     20  O   UNL     1      -0.420   8.532  21.607  0.00  0.00    +0.000 OA
BRANCH  18  23
ATOM     21  C   UNL     1       0.725  11.455  20.728  0.00  0.00    +0.000 C 
ATOM     22  O   UNL     1       0.315  11.747  21.846  0.00  0.00    +0.000 OA
ATOM     23  N   UNL     1       1.048  10.144  20.353  0.00  0.00    +0.000 N 
ATOM     24  H   UNL     1       1.317   9.900  19.406  0.00  0.00    +0.000 HD
BRANCH  21  25
ATOM     25  C   UNL     1       0.797  12.478  19.579  0.00  0.00    +0.000 C 
BRANCH  25  26
ATOM     26  N   UNL     1      -0.528  13.128  19.429  0.00  0.00    +0.000 NA
ATOM     27  H   UNL     1      -0.479  14.033  19.913  0.00  0.00    +0.000 HD
ATOM     28  H   UNL     1      -1.256  12.597  19.904  0.00  0.00    +0.000 HD
ENDBRANCH  25  26
BRANCH  25  30
ATOM     29  C   UNL     1       2.889  13.689  18.699  0.00  0.00    +0.000 C 
ATOM     30  C   UNL     1       1.887  13.547  19.838  0.00  0.00    +0.000 C 
BRANCH  30  31
ATOM     31  O   UNL     1       2.590  13.286  21.060  0.00  0.00    +0.000 OA
ATOM     32  H   UNL     1       3.518  13.570  20.936  0.00  0.00    +0.000 HD
ENDBRANCH  30  31
ENDBRANCH  25  30
ENDBRANCH  21  25
ENDBRANCH  18  23
ENDBRANCH   1  18
TORSDOF 9
ENDMDL
MODEL 8
REMARK VINA RESULT:      -7.8      4.227      8.764
REMARK  Name = 
REMARK  10 active torsions:
REMARK  status: ('A' for Active; 'I' for Inactive)
REMARK    1  A    between atoms: C_1  and  C_2
REMARK    2  A    between atoms: C_2  and  O_3
REMARK    3  A    between atoms: C_2  and  C_4
REMARK    4  A    between atoms: C_4  and  N_5
REMARK    5  A    between atoms: C_4  and  C_6
REMARK    6  A    between atoms: N_8  and  S_9
REMARK    7  A    between atoms: S_9  and  C_12
REMARK    8  A    between atoms: C_13  and  C_14
REMARK    9  A    between atoms: C_18  and  C_19
REMARK   10  A    between atoms: C_21  and  N_22
REMARK                            x       y       z     vdW  Elec       q    Type
REMARK                         _______ _______ _______ _____ _____    ______ ____
ROOT
ATOM      1  C   UNL     1       1.640   7.811  20.855  0.00  0.00    +0.000 C 
ATOM      2  C   UNL     1       1.178   6.553  20.768  0.00  0.00    +0.000 C 
ENDROOT
BRANCH   2   3
ATOM      3  C   UNL     1       2.013   5.394  20.419  0.00  0.00    +0.000 A 
ATOM      4  C   UNL     1       1.628   4.082  20.716  0.00  0.00    +0.000 A 
ATOM      5  C   UNL     1       2.440   3.011  20.357  0.00  0.00    +0.000 A 
ATOM      6  C   UNL     1       3.661   3.240  19.722  0.00  0.00    +0.000 A 
ATOM      7  C   UNL     1       4.110   4.545  19.445  0.00  0.00    +0.000 A 
ATOM      8  C   UNL     1       3.256   5.608  19.802  0.00  0.00    +0.000 A 
BRANCH   7   9
ATOM      9  C   UNL     1       5.426   4.798  18.817  0.00  0.00    +0.000 A 
ATOM     10  C   UNL     1       5.678   4.526  17.483  0.00  0.00    +0.000 A 
ATOM     11  C   UNL     1       6.944   4.789  17.012  0.00  0.00    +0.000 A 
ATOM     12  N   UNL     1       7.907   5.307  17.777  0.00  0.00    +0.000 NA
ATOM     13  C   UNL     1       7.576   5.541  19.054  0.00  0.00    +0.000 A 
ATOM     14  N   UNL     1       6.385   5.301  19.623  0.00  0.00    +0.000 NA
BRANCH  11  15
ATOM     15  N   UNL     1       7.249   4.571  15.669  0.00  0.00    +0.000 N 
ATOM     16  H   UNL     1       6.447   4.259  15.135  0.00  0.00    +0.000 HD
ATOM     17  H   UNL     1       8.017   3.904  15.630  0.00  0.00    +0.000 HD
ENDBRANCH  11  15
ENDBRANCH   7   9
ENDBRANCH   2   3
BRANCH   1  18
ATOM     18  S   UNL     1       0.573   9.080  21.351  0.00  0.00    +0.000 S 
ATOM     19  O   UNL     1       1.331  10.069  22.089  0.00  0.00    +0.000 OA
ATOM     20  O   UNL     1      -0.621   8.506  21.929  0.00  0.00    +0.000 OA
BRANCH  18  23
ATOM     21  C   UNL     1      -0.694  10.996  19.910  0.00  0.00    +0.000 C 
ATOM     22  O   UNL     1      -1.202  11.486  20.912  0.00  0.00    +0.000 OA
ATOM     23  N   UNL     1       0.132   9.864  19.951  0.00  0.00    +0.000 N 
ATOM     24  H   UNL     1       0.489   9.422  19.111  0.00  0.00    +0.000 HD
BRANCH  21  25
ATOM     25  C   UNL     1      -1.019  11.491  18.489  0.00  0.00    +0.000 C 
BRANCH  25  26
ATOM     26  N   UNL     1      -2.475  11.332  18.244  0.00  0.00    +0.000 NA
ATOM     27  H   UNL     1      -2.711  10.352  18.445  0.00  0.00    +0.000 HD
ATOM     28  H   UNL     1      -2.702  11.478  17.262  0.00  0.00    +0.000 HD
ENDBRANCH  25  26
BRANCH  25  30
ATOM     29  C   UNL     1       0.884  13.222  18.482  0.00  0.00    +0.000 C 
ATOM     30  C   UNL     1      -0.607  12.971  18.294  0.00  0.00    +0.000 C 
BRANCH  30  31
ATOM     31  O   UNL     1      -1.348  13.835  19.166  0.00  0.00    +0.000 OA
ATOM     32  H   UNL     1      -0.767  14.070  19.918  0.00  0.00    +0.000 HD
ENDBRANCH  30  31
ENDBRANCH  25  30
ENDBRANCH  21  25
ENDBRANCH  18  23
ENDBRANCH   1  18
TORSDOF 9
ENDMDL
MODEL 9
REMARK VINA RESULT:      -7.8      3.890      8.561
REMARK  Name = 
REMARK  10 active torsions:
REMARK  status: ('A' for Active; 'I' for Inactive)
REMARK    1  A    between atoms: C_1  and  C_2
REMARK    2  A    between atoms: C_2  and  O_3
REMARK    3  A    between atoms: C_2  and  C_4
REMARK    4  A    between atoms: C_4  and  N_5
REMARK    5  A    between atoms: C_4  and  C_6
REMARK    6  A    between atoms: N_8  and  S_9
REMARK    7  A    between atoms: S_9  and  C_12
REMARK    8  A    between atoms: C_13  and  C_14
REMARK    9  A    between atoms: C_18  and  C_19
REMARK   10  A    between atoms: C_21  and  N_22
REMARK                            x       y       z     vdW  Elec       q    Type
REMARK                         _______ _______ _______ _____ _____    ______ ____
ROOT
ATOM      1  C   UNL     1       1.595   7.895  20.455  0.00  0.00    +0.000 C 
ATOM      2  C   UNL     1       1.522   6.589  20.758  0.00  0.00    +0.000 C 
ENDROOT
BRANCH   2   3
ATOM      3  C   UNL     1       2.134   5.523  19.951  0.00  0.00    +0.000 A 
ATOM      4  C   UNL     1       1.636   4.215  19.943  0.00  0.00    +0.000 A 
ATOM      5  C   UNL     1       2.236   3.238  19.155  0.00  0.00    +0.000 A 
ATOM      6  C   UNL     1       3.358   3.549  18.387  0.00  0.00    +0.000 A 
ATOM      7  C   UNL     1       3.921   4.839  18.401  0.00  0.00    +0.000 A 
ATOM      8  C   UNL     1       3.279   5.812  19.192  0.00  0.00    +0.000 A 
BRANCH   7   9
ATOM      9  C   UNL     1       5.141   5.163  17.628  0.00  0.00    +0.000 A 
ATOM     10  C   UNL     1       5.807   6.369  17.760  0.00  0.00    +0.000 A 
ATOM     11  C   UNL     1       6.923   6.564  16.978  0.00  0.00    +0.000 A 
ATOM     12  N   UNL     1       7.385   5.639  16.134  0.00  0.00    +0.000 NA
ATOM     13  C   UNL     1       6.681   4.501  16.072  0.00  0.00    +0.000 A 
ATOM     14  N   UNL     1       5.570   4.215  16.767  0.00  0.00    +0.000 NA
BRANCH  11  15
ATOM     15  N   UNL     1       7.658   7.744  17.091  0.00  0.00    +0.000 N 
ATOM     16  H   UNL     1       7.921   7.946  18.048  0.00  0.00    +0.000 HD
ATOM     17  H   UNL     1       7.107   8.493  16.679  0.00  0.00    +0.000 HD
ENDBRANCH  11  15
ENDBRANCH   7   9
ENDBRANCH   2   3
BRANCH   1  18
ATOM     18  S   UNL     1       0.898   9.060  21.527  0.00  0.00    +0.000 S 
ATOM     19  O   UNL     1       1.840   9.343  22.591  0.00  0.00    +0.000 OA
ATOM     20  O   UNL     1      -0.457   8.671  21.848  0.00  0.00    +0.000 OA
BRANCH  18  23
ATOM     21  C   UNL     1       0.324  11.685  21.163  0.00  0.00    +0.000 C 
ATOM     22  O   UNL     1      -0.149  11.792  22.289  0.00  0.00    +0.000 OA
ATOM     23  N   UNL     1       0.825  10.478  20.658  0.00  0.00    +0.000 N 
ATOM     24  H   UNL     1       1.148  10.382  19.701  0.00  0.00    +0.000 HD
BRANCH  21  25
ATOM     25  C   UNL     1       0.292  12.835  20.139  0.00  0.00    +0.000 C 
BRANCH  25  26
ATOM     26  N   UNL     1       1.663  13.052  19.614  0.00  0.00    +0.000 NA
ATOM     27  H   UNL     1       2.257  12.307  19.999  0.00  0.00    +0.000 HD
ATOM     28  H   UNL     1       2.056  13.927  19.958  0.00  0.00    +0.000 HD
ENDBRANCH  25  26
BRANCH  25  30
ATOM     29  C   UNL     1      -2.095  12.192  19.428  0.00  0.00    +0.000 C 
ATOM     30  C   UNL     1      -0.681  12.530  18.973  0.00  0.00    +0.000 C 
BRANCH  30  31
ATOM     31  O   UNL     1      -0.181  11.472  18.144  0.00  0.00    +0.000 OA
ATOM     32  H   UNL     1       0.773  11.634  17.998  0.00  0.00    +0.000 HD
ENDBRANCH  30  31
ENDBRANCH  25  30
ENDBRANCH  21  25
ENDBRANCH  18  23
ENDBRANCH   1  18
TORSDOF 9
ENDMDL
