MODEL 1
REMARK VINA RESULT:      -8.1      0.000      0.000
REMARK  Name = 
REMARK  2 active torsions:
REMARK  status: ('A' for Active; 'I' for Inactive)
REMARK    1  A    between atoms: C_2  and  C_3
REMARK    2  A    between atoms: C_7  and  C_8
REMARK                            x       y       z     vdW  Elec       q    Type
REMARK                         _______ _______ _______ _____ _____    ______ ____
ROOT
ATOM      1  C   UNL     1       5.673   4.408  18.502  0.00  0.00    +0.000 A 
ATOM      2  C   UNL     1       6.455   5.378  19.115  0.00  0.00    +0.000 A 
ATOM      3  C   UNL     1       7.324   6.096  18.315  0.00  0.00    +0.000 A 
ATOM      4  N   UNL     1       7.460   5.892  16.979  0.00  0.00    +0.000 NA
ATOM      5  C   UNL     1       6.651   4.981  16.384  0.00  0.00    +0.000 A 
ATOM      6  C   UNL     1       5.722   4.258  17.119  0.00  0.00    +0.000 A 
ENDROOT
BRANCH   1   8
ATOM      7  O   UNL     1       5.230   2.643  19.943  0.00  0.00    +0.000 OA
ATOM      8  C   UNL     1       4.743   3.578  19.310  0.00  0.00    +0.000 C 
ATOM      9  N   UNL     1       3.384   3.887  19.337  0.00  0.00    +0.000 N 
ATOM     10  C   UNL     1       2.526   3.251  20.340  0.00  0.00    +0.000 C 
ATOM     11  C   UNL     1       1.287   2.629  19.689  0.00  0.00    +0.000 C 
ATOM     12  O   UNL     1       0.573   3.601  18.907  0.00  0.00    +0.000 OA
ATOM     13  C   UNL     1       1.407   4.108  17.857  0.00  0.00    +0.000 C 
ATOM     14  C   UNL     1       2.659   4.783  18.422  0.00  0.00    +0.000 C 
ENDBRANCH   1   8
BRANCH   5  15
ATOM     15  C   UNL     1       6.847   4.749  14.937  0.00  0.00    +0.000 A 
ATOM     16  C   UNL     1       7.804   5.477  14.193  0.00  0.00    +0.000 A 
ATOM     17  C   UNL     1       7.952   5.300  12.815  0.00  0.00    +0.000 A 
ATOM     18  C   UNL     1       7.147   4.382  12.160  0.00  0.00    +0.000 A 
ATOM     19  F   UNL     1       7.283   4.216  10.836  0.00  0.00    +0.000 F 
ATOM     20  C   UNL     1       6.206   3.644  12.866  0.00  0.00    +0.000 A 
ATOM     21  F   UNL     1       5.425   2.765  12.224  0.00  0.00    +0.000 F 
ATOM     22  C   UNL     1       6.051   3.822  14.239  0.00  0.00    +0.000 A 
ENDBRANCH   5  15
TORSDOF 2
ENDMDL
MODEL 2
REMARK VINA RESULT:      -8.1      1.273      1.694
REMARK  Name = 
REMARK  2 active torsions:
REMARK  status: ('A' for Active; 'I' for Inactive)
REMARK    1  A    between atoms: C_2  and  C_3
REMARK    2  A    between atoms: C_7  and  C_8
REMARK                            x       y       z     vdW  Elec       q    Type
REMARK                         _______ _______ _______ _____ _____    ______ ____
ROOT
ATOM      1  C   UNL     1       4.977   5.303  18.139  0.00  0.00    +0.000 A 
ATOM      2  C   UNL     1       6.071   5.389  18.989  0.00  0.00    +0.000 A 
ATOM      3  C   UNL     1       7.327   5.261  18.426  0.00  0.00    +0.000 A 
ATOM      4  N   UNL     1       7.541   5.043  17.103  0.00  0.00    +0.000 NA
ATOM      5  C   UNL     1       6.467   5.016  16.276  0.00  0.00    +0.000 A 
ATOM      6  C   UNL     1       5.180   5.186  16.766  0.00  0.00    +0.000 A 
ENDROOT
BRANCH   1   8
ATOM      7  O   UNL     1       3.077   6.513  18.701  0.00  0.00    +0.000 OA
ATOM      8  C   UNL     1       3.599   5.399  18.683  0.00  0.00    +0.000 C 
ATOM      9  N   UNL     1       2.950   4.250  19.133  0.00  0.00    +0.000 N 
ATOM     10  C   UNL     1       1.511   4.301  19.404  0.00  0.00    +0.000 C 
ATOM     11  C   UNL     1       1.193   3.740  20.794  0.00  0.00    +0.000 C 
ATOM     12  O   UNL     1       1.724   2.415  20.950  0.00  0.00    +0.000 OA
ATOM     13  C   UNL     1       3.150   2.427  20.803  0.00  0.00    +0.000 C 
ATOM     14  C   UNL     1       3.559   2.941  19.420  0.00  0.00    +0.000 C 
ENDBRANCH   1   8
BRANCH   5  15
ATOM     15  C   UNL     1       6.724   4.738  14.847  0.00  0.00    +0.000 A 
ATOM     16  C   UNL     1       7.713   5.440  14.121  0.00  0.00    +0.000 A 
ATOM     17  C   UNL     1       7.919   5.218  12.757  0.00  0.00    +0.000 A 
ATOM     18  C   UNL     1       7.141   4.280  12.098  0.00  0.00    +0.000 A 
ATOM     19  F   UNL     1       7.332   4.070  10.788  0.00  0.00    +0.000 F 
ATOM     20  C   UNL     1       6.169   3.566  12.787  0.00  0.00    +0.000 A 
ATOM     21  F   UNL     1       5.414   2.667  12.142  0.00  0.00    +0.000 F 
ATOM     22  C   UNL     1       5.956   3.788  14.146  0.00  0.00    +0.000 A 
ENDBRANCH   5  15
TORSDOF 2
ENDMDL
MODEL 3
REMARK VINA RESULT:      -8.0      0.617      1.438
REMARK  Name = 
REMARK  2 active torsions:
REMARK  status: ('A' for Active; 'I' for Inactive)
REMARK    1  A    between atoms: C_2  and  C_3
REMARK    2  A    between atoms: C_7  and  C_8
REMARK                            x       y       z     vdW  Elec       q    Type
REMARK                         _______ _______ _______ _____ _____    ______ ____
ROOT
ATOM      1  C   UNL     1       5.609   4.329  18.660  0.00  0.00    +0.000 A 
ATOM      2  C   UNL     1       6.412   5.279  19.277  0.00  0.00    +0.000 A 
ATOM      3  C   UNL     1       7.263   6.013  18.474  0.00  0.00    +0.000 A 
ATOM      4  N   UNL     1       7.363   5.844  17.130  0.00  0.00    +0.000 NA
ATOM      5  C   UNL     1       6.535   4.951  16.533  0.00  0.00    +0.000 A 
ATOM      6  C   UNL     1       5.622   4.214  17.273  0.00  0.00    +0.000 A 
ENDROOT
BRANCH   1   8
ATOM      7  O   UNL     1       5.197   2.537  20.077  0.00  0.00    +0.000 OA
ATOM      8  C   UNL     1       4.696   3.482  19.470  0.00  0.00    +0.000 C 
ATOM      9  N   UNL     1       3.337   3.788  19.528  0.00  0.00    +0.000 N 
ATOM     10  C   UNL     1       2.499   3.131  20.535  0.00  0.00    +0.000 C 
ATOM     11  C   UNL     1       1.249   2.519  19.896  0.00  0.00    +0.000 C 
ATOM     12  O   UNL     1       0.519   3.502  19.145  0.00  0.00    +0.000 OA
ATOM     13  C   UNL     1       1.332   4.029  18.089  0.00  0.00    +0.000 C 
ATOM     14  C   UNL     1       2.593   4.698  18.642  0.00  0.00    +0.000 C 
ENDBRANCH   1   8
BRANCH   5  15
ATOM     15  C   UNL     1       6.693   4.756  15.076  0.00  0.00    +0.000 A 
ATOM     16  C   UNL     1       5.958   3.772  14.376  0.00  0.00    +0.000 A 
ATOM     17  C   UNL     1       6.145   3.548  13.010  0.00  0.00    +0.000 A 
ATOM     18  C   UNL     1       7.070   4.315  12.319  0.00  0.00    +0.000 A 
ATOM     19  F   UNL     1       7.257   4.097  11.009  0.00  0.00    +0.000 F 
ATOM     20  C   UNL     1       7.799   5.297  12.976  0.00  0.00    +0.000 A 
ATOM     21  F   UNL     1       8.697   6.029  12.304  0.00  0.00    +0.000 F 
ATOM     22  C   UNL     1       7.619   5.520  14.340  0.00  0.00    +0.000 A 
ENDBRANCH   5  15
TORSDOF 2
ENDMDL
MODEL 4
REMARK VINA RESULT:      -7.9      1.350      1.400
REMARK  Name = 
REMARK  2 active torsions:
REMARK  status: ('A' for Active; 'I' for Inactive)
REMARK    1  A    between atoms: C_2  and  C_3
REMARK    2  A    between atoms: C_7  and  C_8
REMARK                            x       y       z     vdW  Elec       q    Type
REMARK                         _______ _______ _______ _____ _____    ______ ____
ROOT
ATOM      1  C   UNL     1       4.653   5.076  17.815  0.00  0.00    +0.000 A 
ATOM      2  C   UNL     1       4.458   6.450  17.861  0.00  0.00    +0.000 A 
ATOM      3  C   UNL     1       4.782   7.178  16.731  0.00  0.00    +0.000 A 
ATOM      4  N   UNL     1       5.288   6.625  15.599  0.00  0.00    +0.000 NA
ATOM      5  C   UNL     1       5.422   5.277  15.548  0.00  0.00    +0.000 A 
ATOM      6  C   UNL     1       5.072   4.480  16.629  0.00  0.00    +0.000 A 
ENDROOT
BRANCH   1   8
ATOM      7  O   UNL     1       5.317   3.757  19.606  0.00  0.00    +0.000 OA
ATOM      8  C   UNL     1       4.358   4.240  19.007  0.00  0.00    +0.000 C 
ATOM      9  N   UNL     1       3.036   4.046  19.406  0.00  0.00    +0.000 N 
ATOM     10  C   UNL     1       2.766   3.463  20.723  0.00  0.00    +0.000 C 
ATOM     11  C   UNL     1       1.789   2.288  20.614  0.00  0.00    +0.000 C 
ATOM     12  O   UNL     1       0.583   2.681  19.941  0.00  0.00    +0.000 OA
ATOM     13  C   UNL     1       0.876   3.126  18.610  0.00  0.00    +0.000 C 
ATOM     14  C   UNL     1       1.822   4.330  18.625  0.00  0.00    +0.000 C 
ENDBRANCH   1   8
BRANCH   5  15
ATOM     15  C   UNL     1       6.014   4.705  14.320  0.00  0.00    +0.000 A 
ATOM     16  C   UNL     1       7.264   5.142  13.826  0.00  0.00    +0.000 A 
ATOM     17  C   UNL     1       7.799   4.643  12.636  0.00  0.00    +0.000 A 
ATOM     18  C   UNL     1       7.091   3.688  11.923  0.00  0.00    +0.000 A 
ATOM     19  F   UNL     1       7.599   3.213  10.777  0.00  0.00    +0.000 F 
ATOM     20  C   UNL     1       5.865   3.231  12.389  0.00  0.00    +0.000 A 
ATOM     21  F   UNL     1       5.182   2.315  11.690  0.00  0.00    +0.000 F 
ATOM     22  C   UNL     1       5.326   3.730  13.572  0.00  0.00    +0.000 A 
ENDBRANCH   5  15
TORSDOF 2
ENDMDL
MODEL 5
REMARK VINA RESULT:      -7.8      1.446      2.227
REMARK  Name = 
REMARK  2 active torsions:
REMARK  status: ('A' for Active; 'I' for Inactive)
REMARK    1  A    between atoms: C_2  and  C_3
REMARK    2  A    between atoms: C_7  and  C_8
REMARK                            x       y       z     vdW  Elec       q    Type
REMARK                         _______ _______ _______ _____ _____    ______ ____
ROOT
ATOM      1  C   UNL     1       5.029   5.361  18.450  0.00  0.00    +0.000 A 
ATOM      2  C   UNL     1       6.163   5.450  19.246  0.00  0.00    +0.000 A 
ATOM      3  C   UNL     1       7.390   5.334  18.622  0.00  0.00    +0.000 A 
ATOM      4  N   UNL     1       7.540   5.126  17.288  0.00  0.00    +0.000 NA
ATOM      5  C   UNL     1       6.427   5.096  16.515  0.00  0.00    +0.000 A 
ATOM      6  C   UNL     1       5.164   5.254  17.069  0.00  0.00    +0.000 A 
ENDROOT
BRANCH   1   8
ATOM      7  O   UNL     1       3.191   6.565  19.201  0.00  0.00    +0.000 OA
ATOM      8  C   UNL     1       3.678   5.444  19.063  0.00  0.00    +0.000 C 
ATOM      9  N   UNL     1       3.016   4.276  19.439  0.00  0.00    +0.000 N 
ATOM     10  C   UNL     1       1.591   4.340  19.778  0.00  0.00    +0.000 C 
ATOM     11  C   UNL     1       1.316   3.667  21.126  0.00  0.00    +0.000 C 
ATOM     12  O   UNL     1       1.814   2.320  21.141  0.00  0.00    +0.000 OA
ATOM     13  C   UNL     1       3.232   2.308  20.932  0.00  0.00    +0.000 C 
ATOM     14  C   UNL     1       3.597   2.932  19.582  0.00  0.00    +0.000 C 
ENDBRANCH   1   8
BRANCH   5  15
ATOM     15  C   UNL     1       6.615   4.827  15.073  0.00  0.00    +0.000 A 
ATOM     16  C   UNL     1       5.891   3.811  14.408  0.00  0.00    +0.000 A 
ATOM     17  C   UNL     1       6.107   3.518  13.059  0.00  0.00    +0.000 A 
ATOM     18  C   UNL     1       7.049   4.246  12.350  0.00  0.00    +0.000 A 
ATOM     19  F   UNL     1       7.263   3.962  11.058  0.00  0.00    +0.000 F 
ATOM     20  C   UNL     1       7.768   5.258  12.974  0.00  0.00    +0.000 A 
ATOM     21  F   UNL     1       8.684   5.952  12.285  0.00  0.00    +0.000 F 
ATOM     22  C   UNL     1       7.560   5.550  14.320  0.00  0.00    +0.000 A 
ENDBRANCH   5  15
TORSDOF 2
ENDMDL
MODEL 6
REMARK VINA RESULT:      -7.8      6.271      8.640
REMARK  Name = 
REMARK  2 active torsions:
REMARK  status: ('A' for Active; 'I' for Inactive)
REMARK    1  A    between atoms: C_2  and  C_3
REMARK    2  A    between atoms: C_7  and  C_8
REMARK                            x       y       z     vdW  Elec       q    Type
REMARK                         _______ _______ _______ _____ _____    ______ ____
ROOT
ATOM      1  C   UNL     1       2.898   6.756  19.076  0.00  0.00    +0.000 A 
ATOM      2  C   UNL     1       2.994   7.306  17.805  0.00  0.00    +0.000 A 
ATOM      3  C   UNL     1       2.329   8.495  17.574  0.00  0.00    +0.000 A 
ATOM      4  N   UNL     1       1.583   9.135  18.510  0.00  0.00    +0.000 NA
ATOM      5  C   UNL     1       1.543   8.616  19.762  0.00  0.00    +0.000 A 
ATOM      6  C   UNL     1       2.227   7.451  20.078  0.00  0.00    +0.000 A 
ENDROOT
BRANCH   1   8
ATOM      7  O   UNL     1       4.789   5.464  19.455  0.00  0.00    +0.000 OA
ATOM      8  C   UNL     1       3.562   5.463  19.382  0.00  0.00    +0.000 C 
ATOM      9  N   UNL     1       2.790   4.319  19.586  0.00  0.00    +0.000 N 
ATOM     10  C   UNL     1       3.419   3.125  20.156  0.00  0.00    +0.000 C 
ATOM     11  C   UNL     1       3.117   1.886  19.307  0.00  0.00    +0.000 C 
ATOM     12  O   UNL     1       1.702   1.716  19.127  0.00  0.00    +0.000 OA
ATOM     13  C   UNL     1       1.145   2.852  18.452  0.00  0.00    +0.000 C 
ATOM     14  C   UNL     1       1.368   4.137  19.254  0.00  0.00    +0.000 C 
ENDBRANCH   1   8
BRANCH   5  15
ATOM     15  C   UNL     1       0.692   9.310  20.752  0.00  0.00    +0.000 A 
ATOM     16  C   UNL     1      -0.155  10.380  20.381  0.00  0.00    +0.000 A 
ATOM     17  C   UNL     1      -0.918  11.074  21.324  0.00  0.00    +0.000 A 
ATOM     18  C   UNL     1      -0.851  10.701  22.657  0.00  0.00    +0.000 A 
ATOM     19  F   UNL     1      -1.576  11.370  23.564  0.00  0.00    +0.000 F 
ATOM     20  C   UNL     1      -0.036   9.647  23.050  0.00  0.00    +0.000 A 
ATOM     21  F   UNL     1       0.031   9.297  24.342  0.00  0.00    +0.000 F 
ATOM     22  C   UNL     1       0.731   8.956  22.114  0.00  0.00    +0.000 A 
ENDBRANCH   5  15
TORSDOF 2
ENDMDL
MODEL 7
REMARK VINA RESULT:      -7.8      6.314      8.720
REMARK  Name = 
REMARK  2 active torsions:
REMARK  status: ('A' for Active; 'I' for Inactive)
REMARK    1  A    between atoms: C_2  and  C_3
REMARK    2  A    between atoms: C_7  and  C_8
REMARK                            x       y       z     vdW  Elec       q    Type
REMARK                         _______ _______ _______ _____ _____    ______ ____
ROOT
ATOM      1  C   UNL     1       2.843   6.822  19.144  0.00  0.00    +0.000 A 
ATOM      2  C   UNL     1       2.914   7.368  17.870  0.00  0.00    +0.000 A 
ATOM      3  C   UNL     1       2.246   8.557  17.648  0.00  0.00    +0.000 A 
ATOM      4  N   UNL     1       1.521   9.202  18.597  0.00  0.00    +0.000 NA
ATOM      5  C   UNL     1       1.506   8.687  19.852  0.00  0.00    +0.000 A 
ATOM      6  C   UNL     1       2.193   7.522  20.157  0.00  0.00    +0.000 A 
ENDROOT
BRANCH   1   8
ATOM      7  O   UNL     1       4.738   5.533  19.517  0.00  0.00    +0.000 OA
ATOM      8  C   UNL     1       3.510   5.528  19.441  0.00  0.00    +0.000 C 
ATOM      9  N   UNL     1       2.742   4.381  19.634  0.00  0.00    +0.000 N 
ATOM     10  C   UNL     1       3.373   3.184  20.195  0.00  0.00    +0.000 C 
ATOM     11  C   UNL     1       3.078   1.951  19.335  0.00  0.00    +0.000 C 
ATOM     12  O   UNL     1       1.664   1.778  19.150  0.00  0.00    +0.000 OA
ATOM     13  C   UNL     1       1.104   2.917  18.483  0.00  0.00    +0.000 C 
ATOM     14  C   UNL     1       1.321   4.196  19.296  0.00  0.00    +0.000 C 
ENDBRANCH   1   8
BRANCH   5  15
ATOM     15  C   UNL     1       0.676   9.386  20.856  0.00  0.00    +0.000 A 
ATOM     16  C   UNL     1       0.614   8.949  22.200  0.00  0.00    +0.000 A 
ATOM     17  C   UNL     1      -0.211   9.574  23.138  0.00  0.00    +0.000 A 
ATOM     18  C   UNL     1      -0.985  10.655  22.746  0.00  0.00    +0.000 A 
ATOM     19  F   UNL     1      -1.783  11.252  23.643  0.00  0.00    +0.000 F 
ATOM     20  C   UNL     1      -0.937  11.114  21.436  0.00  0.00    +0.000 A 
ATOM     21  F   UNL     1      -1.694  12.154  21.062  0.00  0.00    +0.000 F 
ATOM     22  C   UNL     1      -0.119  10.491  20.496  0.00  0.00    +0.000 A 
ENDBRANCH   5  15
TORSDOF 2
ENDMDL
MODEL 8
REMARK VINA RESULT:      -7.5      5.153      7.732
REMARK  Name = 
REMARK  2 active torsions:
REMARK  status: ('A' for Active; 'I' for Inactive)
REMARK    1  A    between atoms: C_2  and  C_3
REMARK    2  A    between atoms: C_7  and  C_8
REMARK                            x       y       z     vdW  Elec       q    Type
REMARK                         _______ _______ _______ _____ _____    ______ ____
ROOT
ATOM      1  C   UNL     1       3.316   4.787  18.647  0.00  0.00    +0.000 A 
ATOM      2  C   UNL     1       3.079   4.035  19.790  0.00  0.00    +0.000 A 
ATOM      3  C   UNL     1       2.387   4.643  20.820  0.00  0.00    +0.000 A 
ATOM      4  N   UNL     1       1.946   5.926  20.776  0.00  0.00    +0.000 NA
ATOM      5  C   UNL     1       2.136   6.631  19.634  0.00  0.00    +0.000 A 
ATOM      6  C   UNL     1       2.781   6.068  18.542  0.00  0.00    +0.000 A 
ENDROOT
BRANCH   1   8
ATOM      7  O   UNL     1       3.863   3.028  17.233  0.00  0.00    +0.000 OA
ATOM      8  C   UNL     1       4.084   4.205  17.516  0.00  0.00    +0.000 C 
ATOM      9  N   UNL     1       4.997   4.995  16.819  0.00  0.00    +0.000 N 
ATOM     10  C   UNL     1       5.538   4.508  15.546  0.00  0.00    +0.000 C 
ATOM     11  C   UNL     1       7.067   4.594  15.530  0.00  0.00    +0.000 C 
ATOM     12  O   UNL     1       7.512   5.927  15.831  0.00  0.00    +0.000 OA
ATOM     13  C   UNL     1       7.069   6.318  17.137  0.00  0.00    +0.000 C 
ATOM     14  C   UNL     1       5.541   6.298  17.233  0.00  0.00    +0.000 C 
ENDBRANCH   1   8
BRANCH   5  15
ATOM     15  C   UNL     1       1.683   8.038  19.627  0.00  0.00    +0.000 A 
ATOM     16  C   UNL     1       1.784   8.844  18.469  0.00  0.00    +0.000 A 
ATOM     17  C   UNL     1       1.408  10.190  18.475  0.00  0.00    +0.000 A 
ATOM     18  C   UNL     1       0.917  10.750  19.644  0.00  0.00    +0.000 A 
ATOM     19  F   UNL     1       0.563  12.043  19.654  0.00  0.00    +0.000 F 
ATOM     20  C   UNL     1       0.796   9.981  20.794  0.00  0.00    +0.000 A 
ATOM     21  F   UNL     1       0.329  10.532  21.922  0.00  0.00    +0.000 F 
ATOM     22  C   UNL     1       1.175   8.640  20.794  0.00  0.00    +0.000 A 
ENDBRANCH   5  15
TORSDOF 2
ENDMDL
MODEL 9
REMARK VINA RESULT:      -7.4      1.173      1.223
REMARK  Name = 
REMARK  2 active torsions:
REMARK  status: ('A' for Active; 'I' for Inactive)
REMARK    1  A    between atoms: C_2  and  C_3
REMARK    2  A    between atoms: C_7  and  C_8
REMARK                            x       y       z     vdW  Elec       q    Type
REMARK                         _______ _______ _______ _____ _____    ______ ____
ROOT
ATOM      1  C   UNL     1       5.281   3.975  18.044  0.00  0.00    +0.000 A 
ATOM      2  C   UNL     1       6.256   4.558  18.843  0.00  0.00    +0.000 A 
ATOM      3  C   UNL     1       7.358   5.100  18.211  0.00  0.00    +0.000 A 
ATOM      4  N   UNL     1       7.541   5.079  16.865  0.00  0.00    +0.000 NA
ATOM      5  C   UNL     1       6.556   4.557  16.093  0.00  0.00    +0.000 A 
ATOM      6  C   UNL     1       5.400   4.038  16.658  0.00  0.00    +0.000 A 
ENDROOT
BRANCH   1   8
ATOM      7  O   UNL     1       3.802   2.204  18.298  0.00  0.00    +0.000 OA
ATOM      8  C   UNL     1       4.087   3.344  18.662  0.00  0.00    +0.000 C 
ATOM      9  N   UNL     1       3.354   4.041  19.622  0.00  0.00    +0.000 N 
ATOM     10  C   UNL     1       2.359   3.321  20.422  0.00  0.00    +0.000 C 
ATOM     11  C   UNL     1       1.010   4.046  20.402  0.00  0.00    +0.000 C 
ATOM     12  O   UNL     1       1.152   5.413  20.821  0.00  0.00    +0.000 OA
ATOM     13  C   UNL     1       2.035   6.116  19.937  0.00  0.00    +0.000 C 
ATOM     14  C   UNL     1       3.427   5.479  19.923  0.00  0.00    +0.000 C 
ENDBRANCH   1   8
BRANCH   5  15
ATOM     15  C   UNL     1       6.798   4.509  14.635  0.00  0.00    +0.000 A 
ATOM     16  C   UNL     1       7.713   5.384  14.006  0.00  0.00    +0.000 A 
ATOM     17  C   UNL     1       7.901   5.380  12.622  0.00  0.00    +0.000 A 
ATOM     18  C   UNL     1       7.179   4.489  11.843  0.00  0.00    +0.000 A 
ATOM     19  F   UNL     1       7.353   4.487  10.514  0.00  0.00    +0.000 F 
ATOM     20  C   UNL     1       6.281   3.609  12.433  0.00  0.00    +0.000 A 
ATOM     21  F   UNL     1       5.580   2.758  11.674  0.00  0.00    +0.000 F 
ATOM     22  C   UNL     1       6.086   3.615  13.813  0.00  0.00    +0.000 A 
ENDBRANCH   5  15
TORSDOF 2
ENDMDL
