MODEL 1
REMARK VINA RESULT:      -9.0      0.000      0.000
REMARK  Name = 
REMARK  9 active torsions:
REMARK  status: ('A' for Active; 'I' for Inactive)
REMARK    1  A    between atoms: C_1  and  C_2
REMARK    2  A    between atoms: C_4  and  C_5
REMARK    3  A    between atoms: C_6  and  C_7
REMARK    4  A    between atoms: C_7  and  C_9
REMARK    5  A    between atoms: C_9  and  C_10
REMARK    6  A    between atoms: C_10  and  C_12
REMARK    7  A    between atoms: C_13  and  C_14
REMARK    8  A    between atoms: C_17  and  O_18
REMARK    9  A    between atoms: C_23  and  O_24
REMARK                            x       y       z     vdW  Elec       q    Type
REMARK                         _______ _______ _______ _____ _____    ______ ____
ROOT
ATOM      1  C   UNL     1       7.403   5.144  18.186  0.00  0.00    +0.000 C 
ATOM      2  O   UNL     1       8.054   4.443  17.414  0.00  0.00    +0.000 OA
ENDROOT
BRANCH   1   4
ATOM      3  C   UNL     1       4.978   4.746  18.037  0.00  0.00    +0.000 C 
ATOM      4  C   UNL     1       6.108   4.674  18.757  0.00  0.00    +0.000 C 
BRANCH   3   8
ATOM      5  C   UNL     1       2.011   2.915  21.671  0.00  0.00    +0.000 C 
ATOM      6  C   UNL     1       2.209   3.364  20.253  0.00  0.00    +0.000 A 
ATOM      7  C   UNL     1       3.459   3.843  19.831  0.00  0.00    +0.000 A 
ATOM      8  C   UNL     1       3.667   4.276  18.512  0.00  0.00    +0.000 A 
ATOM      9  C   UNL     1       2.603   4.193  17.604  0.00  0.00    +0.000 A 
ATOM     10  C   UNL     1       1.354   3.714  18.008  0.00  0.00    +0.000 A 
ATOM     11  C   UNL     1       1.166   3.306  19.326  0.00  0.00    +0.000 A 
BRANCH  11  12
ATOM     12  O   UNL     1      -0.049   2.831  19.736  0.00  0.00    +0.000 OA
ATOM     13  H   UNL     1      -0.562   3.566  20.108  0.00  0.00    +0.000 HD
ENDBRANCH  11  12
ENDBRANCH   3   8
ENDBRANCH   1   4
BRANCH   1  14
ATOM     14  C   UNL     1       7.877   6.518  18.573  0.00  0.00    +0.000 C 
BRANCH  14  15
ATOM     15  C   UNL     1       7.535   7.571  17.554  0.00  0.00    +0.000 C 
ATOM     16  O   UNL     1       6.771   7.330  16.620  0.00  0.00    +0.000 OA
BRANCH  15  17
ATOM     17  C   UNL     1       8.125   8.926  17.747  0.00  0.00    +0.000 C 
ATOM     18  C   UNL     1       8.829   9.208  18.855  0.00  0.00    +0.000 C 
BRANCH  18  19
ATOM     19  C   UNL     1       9.441  10.516  19.132  0.00  0.00    +0.000 A 
ATOM     20  C   UNL     1       9.527  10.956  20.462  0.00  0.00    +0.000 A 
ATOM     21  C   UNL     1      10.111  12.189  20.772  0.00  0.00    +0.000 A 
ATOM     22  C   UNL     1      10.623  12.979  19.749  0.00  0.00    +0.000 A 
ATOM     23  C   UNL     1      10.572  12.551  18.430  0.00  0.00    +0.000 A 
ATOM     24  C   UNL     1       9.988  11.319  18.122  0.00  0.00    +0.000 A 
BRANCH  22  25
ATOM     25  O   UNL     1      11.192  14.191  20.001  0.00  0.00    +0.000 OA
ATOM     26  H   UNL     1      10.666  14.649  20.677  0.00  0.00    +0.000 HD
ENDBRANCH  22  25
ENDBRANCH  18  19
ENDBRANCH  15  17
ENDBRANCH  14  15
ENDBRANCH   1  14
TORSDOF 8
ENDMDL
MODEL 2
REMARK VINA RESULT:      -8.7      4.879      7.638
REMARK  Name = 
REMARK  9 active torsions:
REMARK  status: ('A' for Active; 'I' for Inactive)
REMARK    1  A    between atoms: C_1  and  C_2
REMARK    2  A    between atoms: C_4  and  C_5
REMARK    3  A    between atoms: C_6  and  C_7
REMARK    4  A    between atoms: C_7  and  C_9
REMARK    5  A    between atoms: C_9  and  C_10
REMARK    6  A    between atoms: C_10  and  C_12
REMARK    7  A    between atoms: C_13  and  C_14
REMARK    8  A    between atoms: C_17  and  O_18
REMARK    9  A    between atoms: C_23  and  O_24
REMARK                            x       y       z     vdW  Elec       q    Type
REMARK                         _______ _______ _______ _____ _____    ______ ____
ROOT
ATOM      1  C   UNL     1       1.851   2.555  18.732  0.00  0.00    +0.000 C 
ATOM      2  O   UNL     1       0.756   2.540  18.171  0.00  0.00    +0.000 OA
ENDROOT
BRANCH   1   4
ATOM      3  C   UNL     1       3.210   4.002  17.276  0.00  0.00    +0.000 C 
ATOM      4  C   UNL     1       3.103   2.867  17.984  0.00  0.00    +0.000 C 
BRANCH   3   8
ATOM      5  C   UNL     1       6.203   3.691  13.237  0.00  0.00    +0.000 C 
ATOM      6  C   UNL     1       5.903   4.252  14.597  0.00  0.00    +0.000 A 
ATOM      7  C   UNL     1       4.725   3.885  15.269  0.00  0.00    +0.000 A 
ATOM      8  C   UNL     1       4.419   4.402  16.537  0.00  0.00    +0.000 A 
ATOM      9  C   UNL     1       5.330   5.276  17.143  0.00  0.00    +0.000 A 
ATOM     10  C   UNL     1       6.508   5.648  16.488  0.00  0.00    +0.000 A 
ATOM     11  C   UNL     1       6.784   5.135  15.223  0.00  0.00    +0.000 A 
BRANCH  11  12
ATOM     12  O   UNL     1       7.933   5.485  14.571  0.00  0.00    +0.000 OA
ATOM     13  H   UNL     1       8.466   6.046  15.157  0.00  0.00    +0.000 HD
ENDBRANCH  11  12
ENDBRANCH   3   8
ENDBRANCH   1   4
BRANCH   1  14
ATOM     14  C   UNL     1       1.976   2.237  20.197  0.00  0.00    +0.000 C 
BRANCH  14  15
ATOM     15  C   UNL     1       1.923   3.457  21.074  0.00  0.00    +0.000 C 
ATOM     16  O   UNL     1       2.233   3.401  22.264  0.00  0.00    +0.000 OA
BRANCH  15  17
ATOM     17  C   UNL     1       1.522   4.742  20.435  0.00  0.00    +0.000 C 
ATOM     18  C   UNL     1       2.377   5.775  20.394  0.00  0.00    +0.000 C 
BRANCH  18  19
ATOM     19  C   UNL     1       2.067   7.080  19.791  0.00  0.00    +0.000 A 
ATOM     20  C   UNL     1       2.389   7.299  18.443  0.00  0.00    +0.000 A 
ATOM     21  C   UNL     1       2.101   8.522  17.827  0.00  0.00    +0.000 A 
ATOM     22  C   UNL     1       1.476   9.525  18.558  0.00  0.00    +0.000 A 
ATOM     23  C   UNL     1       1.125   9.320  19.886  0.00  0.00    +0.000 A 
ATOM     24  C   UNL     1       1.413   8.098  20.500  0.00  0.00    +0.000 A 
BRANCH  22  25
ATOM     25  O   UNL     1       1.186  10.735  18.005  0.00  0.00    +0.000 OA
ATOM     26  H   UNL     1       1.685  11.422  18.476  0.00  0.00    +0.000 HD
ENDBRANCH  22  25
ENDBRANCH  18  19
ENDBRANCH  15  17
ENDBRANCH  14  15
ENDBRANCH   1  14
TORSDOF 8
ENDMDL
MODEL 3
REMARK VINA RESULT:      -8.6      0.590      1.067
REMARK  Name = 
REMARK  9 active torsions:
REMARK  status: ('A' for Active; 'I' for Inactive)
REMARK    1  A    between atoms: C_1  and  C_2
REMARK    2  A    between atoms: C_4  and  C_5
REMARK    3  A    between atoms: C_6  and  C_7
REMARK    4  A    between atoms: C_7  and  C_9
REMARK    5  A    between atoms: C_9  and  C_10
REMARK    6  A    between atoms: C_10  and  C_12
REMARK    7  A    between atoms: C_13  and  C_14
REMARK    8  A    between atoms: C_17  and  O_18
REMARK    9  A    between atoms: C_23  and  O_24
REMARK                            x       y       z     vdW  Elec       q    Type
REMARK                         _______ _______ _______ _____ _____    ______ ____
ROOT
ATOM      1  C   UNL     1       7.247   4.928  17.737  0.00  0.00    +0.000 C 
ATOM      2  O   UNL     1       7.949   4.535  16.807  0.00  0.00    +0.000 OA
ENDROOT
BRANCH   1   4
ATOM      3  C   UNL     1       4.881   4.966  18.419  0.00  0.00    +0.000 C 
ATOM      4  C   UNL     1       5.965   4.249  18.083  0.00  0.00    +0.000 C 
BRANCH   3   8
ATOM      5  C   UNL     1       1.741   2.725  21.656  0.00  0.00    +0.000 C 
ATOM      6  C   UNL     1       2.033   3.268  20.287  0.00  0.00    +0.000 A 
ATOM      7  C   UNL     1       3.278   3.857  20.011  0.00  0.00    +0.000 A 
ATOM      8  C   UNL     1       3.571   4.379  18.741  0.00  0.00    +0.000 A 
ATOM      9  C   UNL     1       2.605   4.273  17.733  0.00  0.00    +0.000 A 
ATOM     10  C   UNL     1       1.363   3.686  17.992  0.00  0.00    +0.000 A 
ATOM     11  C   UNL     1       1.087   3.190  19.264  0.00  0.00    +0.000 A 
BRANCH  11  12
ATOM     12  O   UNL     1      -0.121   2.609  19.532  0.00  0.00    +0.000 OA
ATOM     13  H   UNL     1      -0.032   2.055  20.324  0.00  0.00    +0.000 HD
ENDBRANCH  11  12
ENDBRANCH   3   8
ENDBRANCH   1   4
BRANCH   1  14
ATOM     14  C   UNL     1       7.643   6.126  18.556  0.00  0.00    +0.000 C 
BRANCH  14  15
ATOM     15  C   UNL     1       7.647   7.407  17.767  0.00  0.00    +0.000 C 
ATOM     16  O   UNL     1       6.858   7.588  16.840  0.00  0.00    +0.000 OA
BRANCH  15  17
ATOM     17  C   UNL     1       8.616   8.462  18.180  0.00  0.00    +0.000 C 
ATOM     18  C   UNL     1       8.238   9.748  18.229  0.00  0.00    +0.000 C 
BRANCH  18  19
ATOM     19  C   UNL     1       9.125  10.855  18.618  0.00  0.00    +0.000 A 
ATOM     20  C   UNL     1       9.174  12.001  17.811  0.00  0.00    +0.000 A 
ATOM     21  C   UNL     1       9.996  13.082  18.150  0.00  0.00    +0.000 A 
ATOM     22  C   UNL     1      10.762  13.020  19.308  0.00  0.00    +0.000 A 
ATOM     23  C   UNL     1      10.708  11.906  20.135  0.00  0.00    +0.000 A 
ATOM     24  C   UNL     1       9.886  10.828  19.795  0.00  0.00    +0.000 A 
BRANCH  22  25
ATOM     25  O   UNL     1      11.584  14.042  19.675  0.00  0.00    +0.000 OA
ATOM     26  H   UNL     1      11.102  14.880  19.582  0.00  0.00    +0.000 HD
ENDBRANCH  22  25
ENDBRANCH  18  19
ENDBRANCH  15  17
ENDBRANCH  14  15
ENDBRANCH   1  14
TORSDOF 8
ENDMDL
MODEL 4
REMARK VINA RESULT:      -8.6      4.042      7.594
REMARK  Name = 
REMARK  9 active torsions:
REMARK  status: ('A' for Active; 'I' for Inactive)
REMARK    1  A    between atoms: C_1  and  C_2
REMARK    2  A    between atoms: C_4  and  C_5
REMARK    3  A    between atoms: C_6  and  C_7
REMARK    4  A    between atoms: C_7  and  C_9
REMARK    5  A    between atoms: C_9  and  C_10
REMARK    6  A    between atoms: C_10  and  C_12
REMARK    7  A    between atoms: C_13  and  C_14
REMARK    8  A    between atoms: C_17  and  O_18
REMARK    9  A    between atoms: C_23  and  O_24
REMARK                            x       y       z     vdW  Elec       q    Type
REMARK                         _______ _______ _______ _____ _____    ______ ____
ROOT
ATOM      1  C   UNL     1       1.593   2.637  18.800  0.00  0.00    +0.000 C 
ATOM      2  O   UNL     1       0.524   2.736  18.200  0.00  0.00    +0.000 OA
ENDROOT
BRANCH   1   4
ATOM      3  C   UNL     1       3.114   4.106  17.539  0.00  0.00    +0.000 C 
ATOM      4  C   UNL     1       2.892   2.919  18.124  0.00  0.00    +0.000 C 
BRANCH   3   8
ATOM      5  C   UNL     1       7.164   7.072  17.140  0.00  0.00    +0.000 C 
ATOM      6  C   UNL     1       6.341   5.917  16.649  0.00  0.00    +0.000 A 
ATOM      7  C   UNL     1       5.158   5.558  17.315  0.00  0.00    +0.000 A 
ATOM      8  C   UNL     1       4.376   4.477  16.880  0.00  0.00    +0.000 A 
ATOM      9  C   UNL     1       4.781   3.772  15.739  0.00  0.00    +0.000 A 
ATOM     10  C   UNL     1       5.954   4.121  15.062  0.00  0.00    +0.000 A 
ATOM     11  C   UNL     1       6.724   5.187  15.522  0.00  0.00    +0.000 A 
BRANCH  11  12
ATOM     12  O   UNL     1       7.871   5.543  14.870  0.00  0.00    +0.000 OA
ATOM     13  H   UNL     1       8.096   6.456  15.110  0.00  0.00    +0.000 HD
ENDBRANCH  11  12
ENDBRANCH   3   8
ENDBRANCH   1   4
BRANCH   1  14
ATOM     14  C   UNL     1       1.636   2.205  20.240  0.00  0.00    +0.000 C 
BRANCH  14  15
ATOM     15  C   UNL     1       1.820   3.351  21.197  0.00  0.00    +0.000 C 
ATOM     16  O   UNL     1       2.349   3.187  22.296  0.00  0.00    +0.000 OA
BRANCH  15  17
ATOM     17  C   UNL     1       1.374   4.699  20.742  0.00  0.00    +0.000 C 
ATOM     18  C   UNL     1       2.272   5.673  20.524  0.00  0.00    +0.000 C 
BRANCH  18  19
ATOM     19  C   UNL     1       1.924   7.031  20.082  0.00  0.00    +0.000 A 
ATOM     20  C   UNL     1       2.271   7.431  18.782  0.00  0.00    +0.000 A 
ATOM     21  C   UNL     1       1.950   8.711  18.317  0.00  0.00    +0.000 A 
ATOM     22  C   UNL     1       1.268   9.590  19.151  0.00  0.00    +0.000 A 
ATOM     23  C   UNL     1       0.893   9.205  20.430  0.00  0.00    +0.000 A 
ATOM     24  C   UNL     1       1.214   7.927  20.894  0.00  0.00    +0.000 A 
BRANCH  22  25
ATOM     25  O   UNL     1       0.942  10.849  18.746  0.00  0.00    +0.000 OA
ATOM     26  H   UNL     1      -0.011  10.882  18.563  0.00  0.00    +0.000 HD
ENDBRANCH  22  25
ENDBRANCH  18  19
ENDBRANCH  15  17
ENDBRANCH  14  15
ENDBRANCH   1  14
TORSDOF 8
ENDMDL
MODEL 5
REMARK VINA RESULT:      -8.5      3.986      7.501
REMARK  Name = 
REMARK  9 active torsions:
REMARK  status: ('A' for Active; 'I' for Inactive)
REMARK    1  A    between atoms: C_1  and  C_2
REMARK    2  A    between atoms: C_4  and  C_5
REMARK    3  A    between atoms: C_6  and  C_7
REMARK    4  A    between atoms: C_7  and  C_9
REMARK    5  A    between atoms: C_9  and  C_10
REMARK    6  A    between atoms: C_10  and  C_12
REMARK    7  A    between atoms: C_13  and  C_14
REMARK    8  A    between atoms: C_17  and  O_18
REMARK    9  A    between atoms: C_23  and  O_24
REMARK                            x       y       z     vdW  Elec       q    Type
REMARK                         _______ _______ _______ _____ _____    ______ ____
ROOT
ATOM      1  C   UNL     1       1.946   2.374  18.741  0.00  0.00    +0.000 C 
ATOM      2  O   UNL     1       0.839   1.981  18.378  0.00  0.00    +0.000 OA
ENDROOT
BRANCH   1   4
ATOM      3  C   UNL     1       4.005   3.604  18.186  0.00  0.00    +0.000 C 
ATOM      4  C   UNL     1       2.940   2.906  17.764  0.00  0.00    +0.000 C 
BRANCH   3   8
ATOM      5  C   UNL     1       7.586   6.983  17.127  0.00  0.00    +0.000 C 
ATOM      6  C   UNL     1       6.776   5.779  16.744  0.00  0.00    +0.000 A 
ATOM      7  C   UNL     1       5.812   5.266  17.626  0.00  0.00    +0.000 A 
ATOM      8  C   UNL     1       5.048   4.136  17.294  0.00  0.00    +0.000 A 
ATOM      9  C   UNL     1       5.243   3.539  16.042  0.00  0.00    +0.000 A 
ATOM     10  C   UNL     1       6.197   4.041  15.151  0.00  0.00    +0.000 A 
ATOM     11  C   UNL     1       6.955   5.153  15.509  0.00  0.00    +0.000 A 
BRANCH  11  12
ATOM     12  O   UNL     1       7.889   5.658  14.648  0.00  0.00    +0.000 OA
ATOM     13  H   UNL     1       7.569   5.544  13.738  0.00  0.00    +0.000 HD
ENDBRANCH  11  12
ENDBRANCH   3   8
ENDBRANCH   1   4
BRANCH   1  14
ATOM     14  C   UNL     1       2.355   2.314  20.188  0.00  0.00    +0.000 C 
BRANCH  14  15
ATOM     15  C   UNL     1       1.588   3.271  21.059  0.00  0.00    +0.000 C 
ATOM     16  O   UNL     1       1.257   2.965  22.205  0.00  0.00    +0.000 OA
BRANCH  15  17
ATOM     17  C   UNL     1       1.285   4.617  20.495  0.00  0.00    +0.000 C 
ATOM     18  C   UNL     1       2.280   5.451  20.156  0.00  0.00    +0.000 C 
BRANCH  18  19
ATOM     19  C   UNL     1       2.075   6.796  19.600  0.00  0.00    +0.000 A 
ATOM     20  C   UNL     1       1.492   7.784  20.408  0.00  0.00    +0.000 A 
ATOM     21  C   UNL     1       1.289   9.080  19.922  0.00  0.00    +0.000 A 
ATOM     22  C   UNL     1       1.684   9.393  18.627  0.00  0.00    +0.000 A 
ATOM     23  C   UNL     1       2.286   8.439  17.819  0.00  0.00    +0.000 A 
ATOM     24  C   UNL     1       2.488   7.145  18.306  0.00  0.00    +0.000 A 
BRANCH  22  25
ATOM     25  O   UNL     1       1.498  10.639  18.106  0.00  0.00    +0.000 OA
ATOM     26  H   UNL     1       2.301  11.164  18.257  0.00  0.00    +0.000 HD
ENDBRANCH  22  25
ENDBRANCH  18  19
ENDBRANCH  15  17
ENDBRANCH  14  15
ENDBRANCH   1  14
TORSDOF 8
ENDMDL
MODEL 6
REMARK VINA RESULT:      -8.5      4.579      7.468
REMARK  Name = 
REMARK  9 active torsions:
REMARK  status: ('A' for Active; 'I' for Inactive)
REMARK    1  A    between atoms: C_1  and  C_2
REMARK    2  A    between atoms: C_4  and  C_5
REMARK    3  A    between atoms: C_6  and  C_7
REMARK    4  A    between atoms: C_7  and  C_9
REMARK    5  A    between atoms: C_9  and  C_10
REMARK    6  A    between atoms: C_10  and  C_12
REMARK    7  A    between atoms: C_13  and  C_14
REMARK    8  A    between atoms: C_17  and  O_18
REMARK    9  A    between atoms: C_23  and  O_24
REMARK                            x       y       z     vdW  Elec       q    Type
REMARK                         _______ _______ _______ _____ _____    ______ ____
ROOT
ATOM      1  C   UNL     1       1.493   2.515  19.053  0.00  0.00    +0.000 C 
ATOM      2  O   UNL     1       0.713   1.968  18.274  0.00  0.00    +0.000 OA
ENDROOT
BRANCH   1   4
ATOM      3  C   UNL     1       2.872   3.886  17.543  0.00  0.00    +0.000 C 
ATOM      4  C   UNL     1       2.806   3.049  18.590  0.00  0.00    +0.000 C 
BRANCH   3   8
ATOM      5  C   UNL     1       6.474   4.266  14.044  0.00  0.00    +0.000 C 
ATOM      6  C   UNL     1       5.897   4.670  15.370  0.00  0.00    +0.000 A 
ATOM      7  C   UNL     1       4.685   4.115  15.811  0.00  0.00    +0.000 A 
ATOM      8  C   UNL     1       4.121   4.483  17.043  0.00  0.00    +0.000 A 
ATOM      9  C   UNL     1       4.808   5.400  17.848  0.00  0.00    +0.000 A 
ATOM     10  C   UNL     1       6.017   5.959  17.423  0.00  0.00    +0.000 A 
ATOM     11  C   UNL     1       6.550   5.592  16.190  0.00  0.00    +0.000 A 
BRANCH  11  12
ATOM     12  O   UNL     1       7.734   6.125  15.762  0.00  0.00    +0.000 OA
ATOM     13  H   UNL     1       8.244   6.413  16.536  0.00  0.00    +0.000 HD
ENDBRANCH  11  12
ENDBRANCH   3   8
ENDBRANCH   1   4
BRANCH   1  14
ATOM     14  C   UNL     1       1.161   2.651  20.514  0.00  0.00    +0.000 C 
BRANCH  14  15
ATOM     15  C   UNL     1       1.709   3.908  21.131  0.00  0.00    +0.000 C 
ATOM     16  O   UNL     1       2.492   3.864  22.080  0.00  0.00    +0.000 OA
BRANCH  15  17
ATOM     17  C   UNL     1       1.298   5.204  20.521  0.00  0.00    +0.000 C 
ATOM     18  C   UNL     1       2.199   6.181  20.334  0.00  0.00    +0.000 C 
BRANCH  18  19
ATOM     19  C   UNL     1       1.884   7.492  19.747  0.00  0.00    +0.000 A 
ATOM     20  C   UNL     1       1.224   8.448  20.534  0.00  0.00    +0.000 A 
ATOM     21  C   UNL     1       0.915   9.711  20.019  0.00  0.00    +0.000 A 
ATOM     22  C   UNL     1       1.279  10.025  18.714  0.00  0.00    +0.000 A 
ATOM     23  C   UNL     1       1.956   9.104  17.927  0.00  0.00    +0.000 A 
ATOM     24  C   UNL     1       2.264   7.842  18.444  0.00  0.00    +0.000 A 
BRANCH  22  25
ATOM     25  O   UNL     1       0.991  11.238  18.165  0.00  0.00    +0.000 OA
ATOM     26  H   UNL     1       0.557  11.098  17.308  0.00  0.00    +0.000 HD
ENDBRANCH  22  25
ENDBRANCH  18  19
ENDBRANCH  15  17
ENDBRANCH  14  15
ENDBRANCH   1  14
TORSDOF 8
ENDMDL
MODEL 7
REMARK VINA RESULT:      -8.5      0.860     10.031
REMARK  Name = 
REMARK  9 active torsions:
REMARK  status: ('A' for Active; 'I' for Inactive)
REMARK    1  A    between atoms: C_1  and  C_2
REMARK    2  A    between atoms: C_4  and  C_5
REMARK    3  A    between atoms: C_6  and  C_7
REMARK    4  A    between atoms: C_7  and  C_9
REMARK    5  A    between atoms: C_9  and  C_10
REMARK    6  A    between atoms: C_10  and  C_12
REMARK    7  A    between atoms: C_13  and  C_14
REMARK    8  A    between atoms: C_17  and  O_18
REMARK    9  A    between atoms: C_23  and  O_24
REMARK                            x       y       z     vdW  Elec       q    Type
REMARK                         _______ _______ _______ _____ _____    ______ ____
ROOT
ATOM      1  C   UNL     1       7.495   7.476  17.546  0.00  0.00    +0.000 C 
ATOM      2  O   UNL     1       6.875   7.201  16.520  0.00  0.00    +0.000 OA
ENDROOT
BRANCH   1   4
ATOM      3  C   UNL     1       8.863   9.099  18.794  0.00  0.00    +0.000 C 
ATOM      4  C   UNL     1       7.975   8.862  17.816  0.00  0.00    +0.000 C 
BRANCH   3   8
ATOM      5  C   UNL     1      10.880  13.478  17.340  0.00  0.00    +0.000 C 
ATOM      6  C   UNL     1      10.414  12.555  18.428  0.00  0.00    +0.000 A 
ATOM      7  C   UNL     1       9.860  11.305  18.106  0.00  0.00    +0.000 A 
ATOM      8  C   UNL     1       9.410  10.428  19.106  0.00  0.00    +0.000 A 
ATOM      9  C   UNL     1       9.551  10.810  20.446  0.00  0.00    +0.000 A 
ATOM     10  C   UNL     1      10.103  12.050  20.782  0.00  0.00    +0.000 A 
ATOM     11  C   UNL     1      10.528  12.911  19.774  0.00  0.00    +0.000 A 
BRANCH  11  12
ATOM     12  O   UNL     1      11.074  14.125  20.086  0.00  0.00    +0.000 OA
ATOM     13  H   UNL     1      12.015  14.001  20.290  0.00  0.00    +0.000 HD
ENDBRANCH  11  12
ENDBRANCH   3   8
ENDBRANCH   1   4
BRANCH   1  14
ATOM     14  C   UNL     1       7.816   6.416  18.564  0.00  0.00    +0.000 C 
BRANCH  14  15
ATOM     15  C   UNL     1       7.409   5.035  18.131  0.00  0.00    +0.000 C 
ATOM     16  O   UNL     1       8.248   4.192  17.814  0.00  0.00    +0.000 OA
BRANCH  15  17
ATOM     17  C   UNL     1       5.953   4.717  18.141  0.00  0.00    +0.000 C 
ATOM     18  C   UNL     1       5.394   4.131  19.211  0.00  0.00    +0.000 C 
BRANCH  18  19
ATOM     19  C   UNL     1       3.971   3.775  19.308  0.00  0.00    +0.000 A 
ATOM     20  C   UNL     1       3.584   2.449  19.059  0.00  0.00    +0.000 A 
ATOM     21  C   UNL     1       2.241   2.065  19.150  0.00  0.00    +0.000 A 
ATOM     22  C   UNL     1       1.284   3.008  19.506  0.00  0.00    +0.000 A 
ATOM     23  C   UNL     1       1.648   4.318  19.782  0.00  0.00    +0.000 A 
ATOM     24  C   UNL     1       2.989   4.700  19.690  0.00  0.00    +0.000 A 
BRANCH  22  25
ATOM     25  O   UNL     1      -0.036   2.684  19.598  0.00  0.00    +0.000 OA
ATOM     26  H   UNL     1      -0.474   3.320  20.186  0.00  0.00    +0.000 HD
ENDBRANCH  22  25
ENDBRANCH  18  19
ENDBRANCH  15  17
ENDBRANCH  14  15
ENDBRANCH   1  14
TORSDOF 8
ENDMDL
MODEL 8
REMARK VINA RESULT:      -8.4      0.889      9.837
REMARK  Name = 
REMARK  9 active torsions:
REMARK  status: ('A' for Active; 'I' for Inactive)
REMARK    1  A    between atoms: C_1  and  C_2
REMARK    2  A    between atoms: C_4  and  C_5
REMARK    3  A    between atoms: C_6  and  C_7
REMARK    4  A    between atoms: C_7  and  C_9
REMARK    5  A    between atoms: C_9  and  C_10
REMARK    6  A    between atoms: C_10  and  C_12
REMARK    7  A    between atoms: C_13  and  C_14
REMARK    8  A    between atoms: C_17  and  O_18
REMARK    9  A    between atoms: C_23  and  O_24
REMARK                            x       y       z     vdW  Elec       q    Type
REMARK                         _______ _______ _______ _____ _____    ______ ____
ROOT
ATOM      1  C   UNL     1       7.413   7.426  17.446  0.00  0.00    +0.000 C 
ATOM      2  O   UNL     1       6.684   7.164  16.491  0.00  0.00    +0.000 OA
ENDROOT
BRANCH   1   4
ATOM      3  C   UNL     1       8.684   9.092  18.737  0.00  0.00    +0.000 C 
ATOM      4  C   UNL     1       7.999   8.785  17.625  0.00  0.00    +0.000 C 
BRANCH   3   8
ATOM      5  C   UNL     1       9.773  12.962  21.771  0.00  0.00    +0.000 C 
ATOM      6  C   UNL     1       9.844  12.301  20.426  0.00  0.00    +0.000 A 
ATOM      7  C   UNL     1       9.261  11.039  20.226  0.00  0.00    +0.000 A 
ATOM      8  C   UNL     1       9.321  10.397  18.979  0.00  0.00    +0.000 A 
ATOM      9  C   UNL     1       9.953  11.055  17.916  0.00  0.00    +0.000 A 
ATOM     10  C   UNL     1      10.534  12.313  18.098  0.00  0.00    +0.000 A 
ATOM     11  C   UNL     1      10.477  12.924  19.348  0.00  0.00    +0.000 A 
BRANCH  11  12
ATOM     12  O   UNL     1      11.037  14.156  19.542  0.00  0.00    +0.000 OA
ATOM     13  H   UNL     1      10.381  14.835  19.322  0.00  0.00    +0.000 HD
ENDBRANCH  11  12
ENDBRANCH   3   8
ENDBRANCH   1   4
BRANCH   1  14
ATOM     14  C   UNL     1       7.763   6.376  18.465  0.00  0.00    +0.000 C 
BRANCH  14  15
ATOM     15  C   UNL     1       7.406   4.983  18.027  0.00  0.00    +0.000 C 
ATOM     16  O   UNL     1       8.273   4.178  17.686  0.00  0.00    +0.000 OA
BRANCH  15  17
ATOM     17  C   UNL     1       5.965   4.603  18.063  0.00  0.00    +0.000 C 
ATOM     18  C   UNL     1       5.397   4.205  19.212  0.00  0.00    +0.000 C 
BRANCH  18  19
ATOM     19  C   UNL     1       3.987   3.807  19.341  0.00  0.00    +0.000 A 
ATOM     20  C   UNL     1       3.045   4.766  19.741  0.00  0.00    +0.000 A 
ATOM     21  C   UNL     1       1.692   4.433  19.866  0.00  0.00    +0.000 A 
ATOM     22  C   UNL     1       1.278   3.138  19.577  0.00  0.00    +0.000 A 
ATOM     23  C   UNL     1       2.189   2.181  19.154  0.00  0.00    +0.000 A 
ATOM     24  C   UNL     1       3.540   2.515  19.030  0.00  0.00    +0.000 A 
BRANCH  22  25
ATOM     25  O   UNL     1      -0.027   2.764  19.694  0.00  0.00    +0.000 OA
ATOM     26  H   UNL     1      -0.062   1.823  19.934  0.00  0.00    +0.000 HD
ENDBRANCH  22  25
ENDBRANCH  18  19
ENDBRANCH  15  17
ENDBRANCH  14  15
ENDBRANCH   1  14
TORSDOF 8
ENDMDL
MODEL 9
REMARK VINA RESULT:      -8.4      0.934      9.982
REMARK  Name = 
REMARK  9 active torsions:
REMARK  status: ('A' for Active; 'I' for Inactive)
REMARK    1  A    between atoms: C_1  and  C_2
REMARK    2  A    between atoms: C_4  and  C_5
REMARK    3  A    between atoms: C_6  and  C_7
REMARK    4  A    between atoms: C_7  and  C_9
REMARK    5  A    between atoms: C_9  and  C_10
REMARK    6  A    between atoms: C_10  and  C_12
REMARK    7  A    between atoms: C_13  and  C_14
REMARK    8  A    between atoms: C_17  and  O_18
REMARK    9  A    between atoms: C_23  and  O_24
REMARK                            x       y       z     vdW  Elec       q    Type
REMARK                         _______ _______ _______ _____ _____    ______ ____
ROOT
ATOM      1  C   UNL     1       7.751   7.313  17.970  0.00  0.00    +0.000 C 
ATOM      2  O   UNL     1       7.174   7.486  16.898  0.00  0.00    +0.000 OA
ENDROOT
BRANCH   1   4
ATOM      3  C   UNL     1       8.633   9.610  18.035  0.00  0.00    +0.000 C 
ATOM      4  C   UNL     1       8.545   8.401  18.609  0.00  0.00    +0.000 C 
BRANCH   3   8
ATOM      5  C   UNL     1       9.657  12.684  21.890  0.00  0.00    +0.000 C 
ATOM      6  C   UNL     1       9.867  12.269  20.463  0.00  0.00    +0.000 A 
ATOM      7  C   UNL     1       9.183  11.159  19.942  0.00  0.00    +0.000 A 
ATOM      8  C   UNL     1       9.368  10.747  18.613  0.00  0.00    +0.000 A 
ATOM      9  C   UNL     1      10.232  11.486  17.796  0.00  0.00    +0.000 A 
ATOM     10  C   UNL     1      10.918  12.596  18.299  0.00  0.00    +0.000 A 
ATOM     11  C   UNL     1      10.731  12.977  19.626  0.00  0.00    +0.000 A 
BRANCH  11  12
ATOM     12  O   UNL     1      11.391  14.062  20.133  0.00  0.00    +0.000 OA
ATOM     13  H   UNL     1      10.790  14.545  20.721  0.00  0.00    +0.000 HD
ENDBRANCH  11  12
ENDBRANCH   3   8
ENDBRANCH   1   4
BRANCH   1  14
ATOM     14  C   UNL     1       7.697   5.984  18.674  0.00  0.00    +0.000 C 
BRANCH  14  15
ATOM     15  C   UNL     1       7.227   4.864  17.787  0.00  0.00    +0.000 C 
ATOM     16  O   UNL     1       8.011   4.251  17.063  0.00  0.00    +0.000 OA
BRANCH  15  17
ATOM     17  C   UNL     1       5.783   4.498  17.855  0.00  0.00    +0.000 C 
ATOM     18  C   UNL     1       5.217   4.182  19.030  0.00  0.00    +0.000 C 
BRANCH  18  19
ATOM     19  C   UNL     1       3.806   3.804  19.190  0.00  0.00    +0.000 A 
ATOM     20  C   UNL     1       3.404   2.509  18.827  0.00  0.00    +0.000 A 
ATOM     21  C   UNL     1       2.073   2.104  18.974  0.00  0.00    +0.000 A 
ATOM     22  C   UNL     1       1.142   2.993  19.499  0.00  0.00    +0.000 A 
ATOM     23  C   UNL     1       1.523   4.270  19.889  0.00  0.00    +0.000 A 
ATOM     24  C   UNL     1       2.853   4.673  19.742  0.00  0.00    +0.000 A 
BRANCH  22  25
ATOM     25  O   UNL     1      -0.167   2.648  19.651  0.00  0.00    +0.000 OA
ATOM     26  H   UNL     1      -0.704   3.185  19.045  0.00  0.00    +0.000 HD
ENDBRANCH  22  25
ENDBRANCH  18  19
ENDBRANCH  15  17
ENDBRANCH  14  15
ENDBRANCH   1  14
TORSDOF 8
ENDMDL
