MODEL 1
REMARK VINA RESULT:      -8.5      0.000      0.000
REMARK  Name = 
REMARK  4 active torsions:
REMARK  status: ('A' for Active; 'I' for Inactive)
REMARK    1  A    between atoms: C_4  and  C_5
REMARK    2  A    between atoms: C_9  and  C_10
REMARK    3  A    between atoms: C_11  and  C_12
REMARK    4  A    between atoms: C_19  and  C_20
REMARK                            x       y       z     vdW  Elec       q    Type
REMARK                         _______ _______ _______ _____ _____    ______ ____
ROOT
ATOM      1  O   UNL     1       5.444   4.256  13.800  0.00  0.00    +0.000 OA
ATOM      2  C   UNL     1       5.330   4.366  15.006  0.00  0.00    +0.000 C 
ATOM      3  N   UNL     1       5.226   5.547  15.674  0.00  0.00    +0.000 N 
ATOM      4  C   UNL     1       5.162   5.355  17.088  0.00  0.00    +0.000 C 
ATOM      5  C   UNL     1       4.982   3.828  17.206  0.00  0.00    +0.000 C 
ATOM      6  O   UNL     1       5.273   3.324  15.881  0.00  0.00    +0.000 OA
ATOM      7  H   UNL     1       5.236   6.430  15.184  0.00  0.00    +0.000 HD
ENDROOT
BRANCH   5   8
ATOM      8  C   UNL     1       3.557   3.462  17.617  0.00  0.00    +0.000 A 
ATOM      9  C   UNL     1       2.527   4.425  17.560  0.00  0.00    +0.000 A 
ATOM     10  C   UNL     1       1.255   4.151  18.066  0.00  0.00    +0.000 A 
ATOM     11  C   UNL     1       0.989   2.904  18.609  0.00  0.00    +0.000 A 
ATOM     12  F   UNL     1      -0.222   2.652  19.121  0.00  0.00    +0.000 F 
ATOM     13  C   UNL     1       1.964   1.919  18.641  0.00  0.00    +0.000 A 
ATOM     14  C   UNL     1       3.245   2.197  18.154  0.00  0.00    +0.000 A 
ATOM     15 CL   UNL     1       4.422   0.941  18.273  0.00  0.00    +0.000 Cl
ENDBRANCH   5   8
BRANCH   4  16
ATOM     16  C   UNL     1       6.362   5.933  17.803  0.00  0.00    +0.000 A 
ATOM     17  C   UNL     1       7.058   5.148  18.724  0.00  0.00    +0.000 A 
ATOM     18  N   UNL     1       8.129   5.566  19.438  0.00  0.00    +0.000 NA
ATOM     19  C   UNL     1       8.541   6.839  19.230  0.00  0.00    +0.000 A 
ATOM     20  C   UNL     1       7.928   7.711  18.341  0.00  0.00    +0.000 A 
ATOM     21  C   UNL     1       6.826   7.244  17.620  0.00  0.00    +0.000 A 
BRANCH  20  22
ATOM     22  C   UNL     1       8.400   9.048  18.164  0.00  0.00    +0.000 C 
ATOM     23  C   UNL     1       8.792  10.178  18.023  0.00  0.00    +0.000 C 
BRANCH  23  24
ATOM     24  C   UNL     1       9.287  11.524  17.842  0.00  0.00    +0.000 C 
ATOM     25  C   UNL     1       8.245  12.597  17.442  0.00  0.00    +0.000 C 
ATOM     26  C   UNL     1       9.049  13.584  18.321  0.00  0.00    +0.000 C 
ATOM     27  F   UNL     1       8.324  14.500  18.998  0.00  0.00    +0.000 F 
ATOM     28  F   UNL     1      10.035  14.256  17.681  0.00  0.00    +0.000 F 
ATOM     29  C   UNL     1       9.510  12.349  19.130  0.00  0.00    +0.000 C 
ENDBRANCH  23  24
ENDBRANCH  20  22
ENDBRANCH   4  16
TORSDOF 4
ENDMDL
MODEL 2
REMARK VINA RESULT:      -8.3      8.417     10.652
REMARK  Name = 
REMARK  4 active torsions:
REMARK  status: ('A' for Active; 'I' for Inactive)
REMARK    1  A    between atoms: C_4  and  C_5
REMARK    2  A    between atoms: C_9  and  C_10
REMARK    3  A    between atoms: C_11  and  C_12
REMARK    4  A    between atoms: C_19  and  C_20
REMARK                            x       y       z     vdW  Elec       q    Type
REMARK                         _______ _______ _______ _____ _____    ______ ____
ROOT
ATOM      1  O   UNL     1       0.010  14.152  18.096  0.00  0.00    +0.000 OA
ATOM      2  C   UNL     1      -0.651  13.288  18.642  0.00  0.00    +0.000 C 
ATOM      3  N   UNL     1      -0.832  13.178  19.985  0.00  0.00    +0.000 N 
ATOM      4  C   UNL     1      -1.610  12.030  20.326  0.00  0.00    +0.000 C 
ATOM      5  C   UNL     1      -2.119  11.557  18.949  0.00  0.00    +0.000 C 
ATOM      6  O   UNL     1      -1.327  12.301  17.993  0.00  0.00    +0.000 OA
ATOM      7  H   UNL     1      -0.413  13.836  20.628  0.00  0.00    +0.000 HD
ENDROOT
BRANCH   5   8
ATOM      8  C   UNL     1      -3.605  11.863  18.766  0.00  0.00    +0.000 A 
ATOM      9  C   UNL     1      -4.318  12.564  19.762  0.00  0.00    +0.000 A 
ATOM     10  C   UNL     1      -5.703  12.726  19.679  0.00  0.00    +0.000 A 
ATOM     11  C   UNL     1      -6.386  12.212  18.588  0.00  0.00    +0.000 A 
ATOM     12  F   UNL     1      -7.717  12.341  18.524  0.00  0.00    +0.000 F 
ATOM     13  C   UNL     1      -5.712  11.556  17.570  0.00  0.00    +0.000 A 
ATOM     14  C   UNL     1      -4.329  11.375  17.660  0.00  0.00    +0.000 A 
ATOM     15 CL   UNL     1      -3.565  10.503  16.382  0.00  0.00    +0.000 Cl
ENDBRANCH   5   8
BRANCH   4  16
ATOM     16  C   UNL     1      -0.821  11.013  21.119  0.00  0.00    +0.000 A 
ATOM     17  C   UNL     1      -0.748  11.129  22.508  0.00  0.00    +0.000 A 
ATOM     18  N   UNL     1      -0.055  10.294  23.315  0.00  0.00    +0.000 NA
ATOM     19  C   UNL     1       0.610   9.278  22.715  0.00  0.00    +0.000 A 
ATOM     20  C   UNL     1       0.611   9.064  21.344  0.00  0.00    +0.000 A 
ATOM     21  C   UNL     1      -0.118   9.945  20.542  0.00  0.00    +0.000 A 
BRANCH  20  22
ATOM     22  C   UNL     1       1.336   7.979  20.761  0.00  0.00    +0.000 C 
ATOM     23  C   UNL     1       1.949   7.061  20.279  0.00  0.00    +0.000 C 
BRANCH  23  24
ATOM     24  C   UNL     1       2.669   5.962  19.676  0.00  0.00    +0.000 C 
ATOM     25  C   UNL     1       1.897   4.629  19.522  0.00  0.00    +0.000 C 
ATOM     26  C   UNL     1       2.665   4.436  18.193  0.00  0.00    +0.000 C 
ATOM     27  F   UNL     1       1.976   3.850  17.190  0.00  0.00    +0.000 F 
ATOM     28  F   UNL     1       3.844   3.778  18.297  0.00  0.00    +0.000 F 
ATOM     29  C   UNL     1       2.773   5.977  18.134  0.00  0.00    +0.000 C 
ENDBRANCH  23  24
ENDBRANCH  20  22
ENDBRANCH   4  16
TORSDOF 4
ENDMDL
MODEL 3
REMARK VINA RESULT:      -8.2      6.755      8.210
REMARK  Name = 
REMARK  4 active torsions:
REMARK  status: ('A' for Active; 'I' for Inactive)
REMARK    1  A    between atoms: C_4  and  C_5
REMARK    2  A    between atoms: C_9  and  C_10
REMARK    3  A    between atoms: C_11  and  C_12
REMARK    4  A    between atoms: C_19  and  C_20
REMARK                            x       y       z     vdW  Elec       q    Type
REMARK                         _______ _______ _______ _____ _____    ______ ____
ROOT
ATOM      1  O   UNL     1       1.420   4.255  21.178  0.00  0.00    +0.000 OA
ATOM      2  C   UNL     1       1.830   5.035  20.339  0.00  0.00    +0.000 C 
ATOM      3  N   UNL     1       2.365   6.257  20.608  0.00  0.00    +0.000 N 
ATOM      4  C   UNL     1       2.704   6.964  19.415  0.00  0.00    +0.000 C 
ATOM      5  C   UNL     1       2.534   5.881  18.330  0.00  0.00    +0.000 C 
ATOM      6  O   UNL     1       1.835   4.804  18.998  0.00  0.00    +0.000 OA
ATOM      7  H   UNL     1       2.455   6.594  21.557  0.00  0.00    +0.000 HD
ENDROOT
BRANCH   5   8
ATOM      8  C   UNL     1       3.885   5.397  17.805  0.00  0.00    +0.000 A 
ATOM      9  C   UNL     1       5.028   6.219  17.908  0.00  0.00    +0.000 A 
ATOM     10  C   UNL     1       6.235   5.855  17.307  0.00  0.00    +0.000 A 
ATOM     11  C   UNL     1       6.321   4.655  16.620  0.00  0.00    +0.000 A 
ATOM     12  F   UNL     1       7.469   4.321  16.018  0.00  0.00    +0.000 F 
ATOM     13  C   UNL     1       5.230   3.802  16.535  0.00  0.00    +0.000 A 
ATOM     14  C   UNL     1       4.016   4.174  17.118  0.00  0.00    +0.000 A 
ATOM     15 CL   UNL     1       2.688   3.087  16.929  0.00  0.00    +0.000 Cl
ENDBRANCH   5   8
BRANCH   4  16
ATOM     16  C   UNL     1       1.875   8.215  19.230  0.00  0.00    +0.000 A 
ATOM     17  C   UNL     1       1.816   8.822  17.975  0.00  0.00    +0.000 A 
ATOM     18  N   UNL     1       1.126   9.953  17.699  0.00  0.00    +0.000 NA
ATOM     19  C   UNL     1       0.452  10.522  18.726  0.00  0.00    +0.000 A 
ATOM     20  C   UNL     1       0.437  10.009  20.015  0.00  0.00    +0.000 A 
ATOM     21  C   UNL     1       1.159   8.838  20.262  0.00  0.00    +0.000 A 
BRANCH  20  22
ATOM     22  C   UNL     1      -0.287  10.653  21.065  0.00  0.00    +0.000 C 
ATOM     23  C   UNL     1      -0.900  11.187  21.954  0.00  0.00    +0.000 C 
BRANCH  23  24
ATOM     24  C   UNL     1      -1.620  11.852  23.017  0.00  0.00    +0.000 C 
ATOM     25  C   UNL     1      -1.291  13.347  23.245  0.00  0.00    +0.000 C 
ATOM     26  C   UNL     1      -2.787  13.537  23.588  0.00  0.00    +0.000 C 
ATOM     27  F   UNL     1      -3.344  14.701  23.190  0.00  0.00    +0.000 F 
ATOM     28  F   UNL     1      -3.106  13.374  24.894  0.00  0.00    +0.000 F 
ATOM     29  C   UNL     1      -3.058  12.311  22.685  0.00  0.00    +0.000 C 
ENDBRANCH  23  24
ENDBRANCH  20  22
ENDBRANCH   4  16
TORSDOF 4
ENDMDL
MODEL 4
REMARK VINA RESULT:      -8.1      8.183     10.275
REMARK  Name = 
REMARK  4 active torsions:
REMARK  status: ('A' for Active; 'I' for Inactive)
REMARK    1  A    between atoms: C_4  and  C_5
REMARK    2  A    between atoms: C_9  and  C_10
REMARK    3  A    between atoms: C_11  and  C_12
REMARK    4  A    between atoms: C_19  and  C_20
REMARK                            x       y       z     vdW  Elec       q    Type
REMARK                         _______ _______ _______ _____ _____    ______ ____
ROOT
ATOM      1  O   UNL     1       0.187  14.215  18.213  0.00  0.00    +0.000 OA
ATOM      2  C   UNL     1      -0.420  13.271  18.682  0.00  0.00    +0.000 C 
ATOM      3  N   UNL     1      -0.563  13.020  20.011  0.00  0.00    +0.000 N 
ATOM      4  C   UNL     1      -1.281  11.808  20.250  0.00  0.00    +0.000 C 
ATOM      5  C   UNL     1      -1.802  11.452  18.843  0.00  0.00    +0.000 C 
ATOM      6  O   UNL     1      -1.068  12.323  17.951  0.00  0.00    +0.000 OA
ATOM      7  H   UNL     1      -0.157  13.629  20.708  0.00  0.00    +0.000 HD
ENDROOT
BRANCH   5   8
ATOM      8  C   UNL     1      -3.305  11.705  18.722  0.00  0.00    +0.000 A 
ATOM      9  C   UNL     1      -3.998  12.393  19.741  0.00  0.00    +0.000 A 
ATOM     10  C   UNL     1      -5.389  12.506  19.717  0.00  0.00    +0.000 A 
ATOM     11  C   UNL     1      -6.101  11.958  18.662  0.00  0.00    +0.000 A 
ATOM     12  F   UNL     1      -7.437  12.041  18.655  0.00  0.00    +0.000 F 
ATOM     13  C   UNL     1      -5.450  11.313  17.622  0.00  0.00    +0.000 A 
ATOM     14  C   UNL     1      -4.059  11.180  17.654  0.00  0.00    +0.000 A 
ATOM     15 CL   UNL     1      -3.321  10.321  16.352  0.00  0.00    +0.000 Cl
ENDBRANCH   5   8
BRANCH   4  16
ATOM     16  C   UNL     1      -0.427  10.755  20.920  0.00  0.00    +0.000 A 
ATOM     17  C   UNL     1      -0.266  10.780  22.306  0.00  0.00    +0.000 A 
ATOM     18  N   UNL     1       0.489   9.905  23.009  0.00  0.00    +0.000 NA
ATOM     19  C   UNL     1       1.128   8.944  22.301  0.00  0.00    +0.000 A 
ATOM     20  C   UNL     1       1.042   8.821  20.921  0.00  0.00    +0.000 A 
ATOM     21  C   UNL     1       0.251   9.740  20.229  0.00  0.00    +0.000 A 
BRANCH  20  22
ATOM     22  C   UNL     1       1.742   7.790  20.221  0.00  0.00    +0.000 C 
ATOM     23  C   UNL     1       2.327   6.914  19.637  0.00  0.00    +0.000 C 
BRANCH  23  24
ATOM     24  C   UNL     1       3.033   5.881  18.912  0.00  0.00    +0.000 C 
ATOM     25  C   UNL     1       4.457   5.536  19.411  0.00  0.00    +0.000 C 
ATOM     26  C   UNL     1       4.143   4.070  19.032  0.00  0.00    +0.000 C 
ATOM     27  F   UNL     1       4.659   3.124  19.846  0.00  0.00    +0.000 F 
ATOM     28  F   UNL     1       4.466   3.718  17.765  0.00  0.00    +0.000 F 
ATOM     29  C   UNL     1       2.655   4.423  19.259  0.00  0.00    +0.000 C 
ENDBRANCH  23  24
ENDBRANCH  20  22
ENDBRANCH   4  16
TORSDOF 4
ENDMDL
MODEL 5
REMARK VINA RESULT:      -8.1      8.683     10.447
REMARK  Name = 
REMARK  4 active torsions:
REMARK  status: ('A' for Active; 'I' for Inactive)
REMARK    1  A    between atoms: C_4  and  C_5
REMARK    2  A    between atoms: C_9  and  C_10
REMARK    3  A    between atoms: C_11  and  C_12
REMARK    4  A    between atoms: C_19  and  C_20
REMARK                            x       y       z     vdW  Elec       q    Type
REMARK                         _______ _______ _______ _____ _____    ______ ____
ROOT
ATOM      1  O   UNL     1      -3.305  10.062  14.558  0.00  0.00    +0.000 OA
ATOM      2  C   UNL     1      -3.170  10.472  15.695  0.00  0.00    +0.000 C 
ATOM      3  N   UNL     1      -2.350  11.493  16.063  0.00  0.00    +0.000 N 
ATOM      4  C   UNL     1      -2.364  11.706  17.475  0.00  0.00    +0.000 C 
ATOM      5  C   UNL     1      -3.535  10.812  17.931  0.00  0.00    +0.000 C 
ATOM      6  O   UNL     1      -3.830   9.984  16.781  0.00  0.00    +0.000 OA
ATOM      7  H   UNL     1      -1.788  11.987  15.383  0.00  0.00    +0.000 HD
ENDROOT
BRANCH   5   8
ATOM      8  C   UNL     1      -4.757  11.643  18.319  0.00  0.00    +0.000 A 
ATOM      9  C   UNL     1      -5.878  11.707  17.465  0.00  0.00    +0.000 A 
ATOM     10  C   UNL     1      -6.941  12.572  17.732  0.00  0.00    +0.000 A 
ATOM     11  C   UNL     1      -6.908  13.364  18.870  0.00  0.00    +0.000 A 
ATOM     12  F   UNL     1      -7.912  14.215  19.110  0.00  0.00    +0.000 F 
ATOM     13  C   UNL     1      -5.842  13.295  19.754  0.00  0.00    +0.000 A 
ATOM     14  C   UNL     1      -4.768  12.445  19.478  0.00  0.00    +0.000 A 
ATOM     15 CL   UNL     1      -3.453  12.450  20.596  0.00  0.00    +0.000 Cl
ENDBRANCH   5   8
BRANCH   4  16
ATOM     16  C   UNL     1      -1.026  11.414  18.116  0.00  0.00    +0.000 A 
ATOM     17  C   UNL     1      -0.411  12.390  18.900  0.00  0.00    +0.000 A 
ATOM     18  N   UNL     1       0.792  12.249  19.502  0.00  0.00    +0.000 NA
ATOM     19  C   UNL     1       1.431  11.069  19.319  0.00  0.00    +0.000 A 
ATOM     20  C   UNL     1       0.917  10.026  18.561  0.00  0.00    +0.000 A 
ATOM     21  C   UNL     1      -0.329  10.207  17.957  0.00  0.00    +0.000 A 
BRANCH  20  22
ATOM     22  C   UNL     1       1.636   8.802  18.395  0.00  0.00    +0.000 C 
ATOM     23  C   UNL     1       2.245   7.771  18.265  0.00  0.00    +0.000 C 
BRANCH  23  24
ATOM     24  C   UNL     1       2.958   6.526  18.087  0.00  0.00    +0.000 C 
ATOM     25  C   UNL     1       4.442   6.634  17.658  0.00  0.00    +0.000 C 
ATOM     26  C   UNL     1       4.701   5.395  18.548  0.00  0.00    +0.000 C 
ATOM     27  F   UNL     1       5.881   5.373  19.204  0.00  0.00    +0.000 F 
ATOM     28  F   UNL     1       4.574   4.200  17.926  0.00  0.00    +0.000 F 
ATOM     29  C   UNL     1       3.473   5.843  19.375  0.00  0.00    +0.000 C 
ENDBRANCH  23  24
ENDBRANCH  20  22
ENDBRANCH   4  16
TORSDOF 4
ENDMDL
MODEL 6
REMARK VINA RESULT:      -8.0      8.798     10.989
REMARK  Name = 
REMARK  4 active torsions:
REMARK  status: ('A' for Active; 'I' for Inactive)
REMARK    1  A    between atoms: C_4  and  C_5
REMARK    2  A    between atoms: C_9  and  C_10
REMARK    3  A    between atoms: C_11  and  C_12
REMARK    4  A    between atoms: C_19  and  C_20
REMARK                            x       y       z     vdW  Elec       q    Type
REMARK                         _______ _______ _______ _____ _____    ______ ____
ROOT
ATOM      1  O   UNL     1      -2.786  10.100  14.850  0.00  0.00    +0.000 OA
ATOM      2  C   UNL     1      -2.845  10.564  15.973  0.00  0.00    +0.000 C 
ATOM      3  N   UNL     1      -2.056  11.567  16.443  0.00  0.00    +0.000 N 
ATOM      4  C   UNL     1      -2.324  11.856  17.816  0.00  0.00    +0.000 C 
ATOM      5  C   UNL     1      -3.604  11.039  18.081  0.00  0.00    +0.000 C 
ATOM      6  O   UNL     1      -3.721  10.164  16.935  0.00  0.00    +0.000 OA
ATOM      7  H   UNL     1      -1.352  11.999  15.861  0.00  0.00    +0.000 HD
ENDROOT
BRANCH   5   8
ATOM      8  C   UNL     1      -4.832  11.942  18.193  0.00  0.00    +0.000 A 
ATOM      9  C   UNL     1      -5.654  12.173  17.069  0.00  0.00    +0.000 A 
ATOM     10  C   UNL     1      -6.692  13.105  17.114  0.00  0.00    +0.000 A 
ATOM     11  C   UNL     1      -6.939  13.797  18.289  0.00  0.00    +0.000 A 
ATOM     12  F   UNL     1      -7.915  14.712  18.323  0.00  0.00    +0.000 F 
ATOM     13  C   UNL     1      -6.180  13.564  19.426  0.00  0.00    +0.000 A 
ATOM     14  C   UNL     1      -5.127  12.646  19.377  0.00  0.00    +0.000 A 
ATOM     15 CL   UNL     1      -4.192  12.445  20.815  0.00  0.00    +0.000 Cl
ENDBRANCH   5   8
BRANCH   4  16
ATOM     16  C   UNL     1      -1.147  11.542  18.712  0.00  0.00    +0.000 A 
ATOM     17  C   UNL     1      -0.660  12.522  19.578  0.00  0.00    +0.000 A 
ATOM     18  N   UNL     1       0.398  12.361  20.405  0.00  0.00    +0.000 NA
ATOM     19  C   UNL     1       1.017  11.157  20.378  0.00  0.00    +0.000 A 
ATOM     20  C   UNL     1       0.622  10.108  19.559  0.00  0.00    +0.000 A 
ATOM     21  C   UNL     1      -0.476  10.310  18.719  0.00  0.00    +0.000 A 
BRANCH  20  22
ATOM     22  C   UNL     1       1.314   8.858  19.565  0.00  0.00    +0.000 C 
ATOM     23  C   UNL     1       1.894   7.802  19.560  0.00  0.00    +0.000 C 
BRANCH  23  24
ATOM     24  C   UNL     1       2.609   6.546  19.573  0.00  0.00    +0.000 C 
ATOM     25  C   UNL     1       1.966   5.391  20.379  0.00  0.00    +0.000 C 
ATOM     26  C   UNL     1       2.506   4.440  19.285  0.00  0.00    +0.000 C 
ATOM     27  F   UNL     1       1.718   3.390  18.971  0.00  0.00    +0.000 F 
ATOM     28  F   UNL     1       3.747   3.948  19.509  0.00  0.00    +0.000 F 
ATOM     29  C   UNL     1       2.440   5.650  18.325  0.00  0.00    +0.000 C 
ENDBRANCH  23  24
ENDBRANCH  20  22
ENDBRANCH   4  16
TORSDOF 4
ENDMDL
MODEL 7
REMARK VINA RESULT:      -7.9      4.038      4.788
REMARK  Name = 
REMARK  4 active torsions:
REMARK  status: ('A' for Active; 'I' for Inactive)
REMARK    1  A    between atoms: C_4  and  C_5
REMARK    2  A    between atoms: C_9  and  C_10
REMARK    3  A    between atoms: C_11  and  C_12
REMARK    4  A    between atoms: C_19  and  C_20
REMARK                            x       y       z     vdW  Elec       q    Type
REMARK                         _______ _______ _______ _____ _____    ______ ____
ROOT
ATOM      1  O   UNL     1       1.582   3.999  19.721  0.00  0.00    +0.000 OA
ATOM      2  C   UNL     1       2.052   5.046  19.318  0.00  0.00    +0.000 C 
ATOM      3  N   UNL     1       2.420   5.290  18.031  0.00  0.00    +0.000 N 
ATOM      4  C   UNL     1       2.992   6.590  17.879  0.00  0.00    +0.000 C 
ATOM      5  C   UNL     1       2.693   7.244  19.243  0.00  0.00    +0.000 C 
ATOM      6  O   UNL     1       2.273   6.147  20.088  0.00  0.00    +0.000 OA
ATOM      7  H   UNL     1       2.316   4.588  17.312  0.00  0.00    +0.000 HD
ENDROOT
BRANCH   5   8
ATOM      8  C   UNL     1       1.584   8.290  19.133  0.00  0.00    +0.000 A 
ATOM      9  C   UNL     1       1.149   8.739  17.868  0.00  0.00    +0.000 A 
ATOM     10  C   UNL     1       0.243   9.795  17.750  0.00  0.00    +0.000 A 
ATOM     11  C   UNL     1      -0.260  10.395  18.893  0.00  0.00    +0.000 A 
ATOM     12  F   UNL     1      -1.105  11.426  18.779  0.00  0.00    +0.000 F 
ATOM     13  C   UNL     1       0.112   9.951  20.153  0.00  0.00    +0.000 A 
ATOM     14  C   UNL     1       1.035   8.908  20.274  0.00  0.00    +0.000 A 
ATOM     15 CL   UNL     1       1.491   8.442  21.872  0.00  0.00    +0.000 Cl
ENDBRANCH   5   8
BRANCH   4  16
ATOM     16  C   UNL     1       4.450   6.537  17.481  0.00  0.00    +0.000 A 
ATOM     17  C   UNL     1       4.921   5.453  16.738  0.00  0.00    +0.000 A 
ATOM     18  N   UNL     1       6.205   5.288  16.347  0.00  0.00    +0.000 NA
ATOM     19  C   UNL     1       7.082   6.253  16.711  0.00  0.00    +0.000 A 
ATOM     20  C   UNL     1       6.729   7.375  17.448  0.00  0.00    +0.000 A 
ATOM     21  C   UNL     1       5.393   7.513  17.833  0.00  0.00    +0.000 A 
BRANCH  20  22
ATOM     22  C   UNL     1       7.697   8.362  17.812  0.00  0.00    +0.000 C 
ATOM     23  C   UNL     1       8.510   9.192  18.128  0.00  0.00    +0.000 C 
BRANCH  23  24
ATOM     24  C   UNL     1       9.500  10.185  18.481  0.00  0.00    +0.000 C 
ATOM     25  C   UNL     1       9.219  11.636  18.025  0.00  0.00    +0.000 C 
ATOM     26  C   UNL     1       9.873  12.091  19.351  0.00  0.00    +0.000 C 
ATOM     27  F   UNL     1       9.332  13.180  19.936  0.00  0.00    +0.000 F 
ATOM     28  F   UNL     1      11.210  12.297  19.295  0.00  0.00    +0.000 F 
ATOM     29  C   UNL     1       9.441  10.723  19.929  0.00  0.00    +0.000 C 
ENDBRANCH  23  24
ENDBRANCH  20  22
ENDBRANCH   4  16
TORSDOF 4
ENDMDL
MODEL 8
REMARK VINA RESULT:      -7.9      6.868      8.336
REMARK  Name = 
REMARK  4 active torsions:
REMARK  status: ('A' for Active; 'I' for Inactive)
REMARK    1  A    between atoms: C_4  and  C_5
REMARK    2  A    between atoms: C_9  and  C_10
REMARK    3  A    between atoms: C_11  and  C_12
REMARK    4  A    between atoms: C_19  and  C_20
REMARK                            x       y       z     vdW  Elec       q    Type
REMARK                         _______ _______ _______ _____ _____    ______ ____
ROOT
ATOM      1  O   UNL     1       1.008   3.979  20.808  0.00  0.00    +0.000 OA
ATOM      2  C   UNL     1       1.602   4.834  20.178  0.00  0.00    +0.000 C 
ATOM      3  N   UNL     1       2.058   6.007  20.694  0.00  0.00    +0.000 N 
ATOM      4  C   UNL     1       2.664   6.828  19.696  0.00  0.00    +0.000 C 
ATOM      5  C   UNL     1       2.752   5.871  18.490  0.00  0.00    +0.000 C 
ATOM      6  O   UNL     1       1.918   4.747  18.857  0.00  0.00    +0.000 OA
ATOM      7  H   UNL     1       1.924   6.239  21.669  0.00  0.00    +0.000 HD
ENDROOT
BRANCH   5   8
ATOM      8  C   UNL     1       4.189   5.413  18.242  0.00  0.00    +0.000 A 
ATOM      9  C   UNL     1       4.797   4.472  19.100  0.00  0.00    +0.000 A 
ATOM     10  C   UNL     1       6.150   4.151  18.976  0.00  0.00    +0.000 A 
ATOM     11  C   UNL     1       6.905   4.746  17.977  0.00  0.00    +0.000 A 
ATOM     12  F   UNL     1       8.209   4.462  17.878  0.00  0.00    +0.000 F 
ATOM     13  C   UNL     1       6.330   5.643  17.089  0.00  0.00    +0.000 A 
ATOM     14  C   UNL     1       4.981   5.981  17.224  0.00  0.00    +0.000 A 
ATOM     15 CL   UNL     1       4.346   7.142  16.116  0.00  0.00    +0.000 Cl
ENDBRANCH   5   8
BRANCH   4  16
ATOM     16  C   UNL     1       1.899   8.111  19.462  0.00  0.00    +0.000 A 
ATOM     17  C   UNL     1       1.938   8.717  18.205  0.00  0.00    +0.000 A 
ATOM     18  N   UNL     1       1.313   9.874  17.888  0.00  0.00    +0.000 NA
ATOM     19  C   UNL     1       0.603  10.473  18.873  0.00  0.00    +0.000 A 
ATOM     20  C   UNL     1       0.493   9.965  20.160  0.00  0.00    +0.000 A 
ATOM     21  C   UNL     1       1.150   8.767  20.450  0.00  0.00    +0.000 A 
BRANCH  20  22
ATOM     22  C   UNL     1      -0.264  10.642  21.165  0.00  0.00    +0.000 C 
ATOM     23  C   UNL     1      -0.895  11.212  22.019  0.00  0.00    +0.000 C 
BRANCH  23  24
ATOM     24  C   UNL     1      -1.667  11.909  23.023  0.00  0.00    +0.000 C 
ATOM     25  C   UNL     1      -1.316  13.398  23.256  0.00  0.00    +0.000 C 
ATOM     26  C   UNL     1      -2.827  13.630  23.494  0.00  0.00    +0.000 C 
ATOM     27  F   UNL     1      -3.324  14.802  23.046  0.00  0.00    +0.000 F 
ATOM     28  F   UNL     1      -3.237  13.492  24.777  0.00  0.00    +0.000 F 
ATOM     29  C   UNL     1      -3.068  12.400  22.589  0.00  0.00    +0.000 C 
ENDBRANCH  23  24
ENDBRANCH  20  22
ENDBRANCH   4  16
TORSDOF 4
ENDMDL
MODEL 9
REMARK VINA RESULT:      -7.8      5.272      7.362
REMARK  Name = 
REMARK  4 active torsions:
REMARK  status: ('A' for Active; 'I' for Inactive)
REMARK    1  A    between atoms: C_4  and  C_5
REMARK    2  A    between atoms: C_9  and  C_10
REMARK    3  A    between atoms: C_11  and  C_12
REMARK    4  A    between atoms: C_19  and  C_20
REMARK                            x       y       z     vdW  Elec       q    Type
REMARK                         _______ _______ _______ _____ _____    ______ ____
ROOT
ATOM      1  O   UNL     1       1.941   8.522  18.272  0.00  0.00    +0.000 OA
ATOM      2  C   UNL     1       2.537   7.465  18.198  0.00  0.00    +0.000 C 
ATOM      3  N   UNL     1       3.809   7.255  18.633  0.00  0.00    +0.000 N 
ATOM      4  C   UNL     1       4.254   5.926  18.358  0.00  0.00    +0.000 C 
ATOM      5  C   UNL     1       2.956   5.232  17.898  0.00  0.00    +0.000 C 
ATOM      6  O   UNL     1       2.022   6.316  17.680  0.00  0.00    +0.000 OA
ATOM      7  H   UNL     1       4.347   7.996  19.061  0.00  0.00    +0.000 HD
ENDROOT
BRANCH   5   8
ATOM      8  C   UNL     1       2.425   4.274  18.964  0.00  0.00    +0.000 A 
ATOM      9  C   UNL     1       1.686   4.765  20.061  0.00  0.00    +0.000 A 
ATOM     10  C   UNL     1       1.318   3.927  21.116  0.00  0.00    +0.000 A 
ATOM     11  C   UNL     1       1.661   2.586  21.074  0.00  0.00    +0.000 A 
ATOM     12  F   UNL     1       1.335   1.789  22.100  0.00  0.00    +0.000 F 
ATOM     13  C   UNL     1       2.350   2.060  19.992  0.00  0.00    +0.000 A 
ATOM     14  C   UNL     1       2.737   2.900  18.944  0.00  0.00    +0.000 A 
ATOM     15 CL   UNL     1       3.636   2.188  17.655  0.00  0.00    +0.000 Cl
ENDBRANCH   5   8
BRANCH   4  16
ATOM     16  C   UNL     1       5.401   5.895  17.372  0.00  0.00    +0.000 A 
ATOM     17  C   UNL     1       6.553   6.638  17.632  0.00  0.00    +0.000 A 
ATOM     18  N   UNL     1       7.628   6.704  16.814  0.00  0.00    +0.000 NA
ATOM     19  C   UNL     1       7.563   5.991  15.664  0.00  0.00    +0.000 A 
ATOM     20  C   UNL     1       6.471   5.216  15.300  0.00  0.00    +0.000 A 
ATOM     21  C   UNL     1       5.380   5.170  16.171  0.00  0.00    +0.000 A 
BRANCH  20  22
ATOM     22  C   UNL     1       6.452   4.487  14.071  0.00  0.00    +0.000 C 
ATOM     23  C   UNL     1       6.447   3.871  13.036  0.00  0.00    +0.000 C 
BRANCH  23  24
ATOM     24  C   UNL     1       6.412   3.125  11.798  0.00  0.00    +0.000 C 
ATOM     25  C   UNL     1       7.420   1.958  11.665  0.00  0.00    +0.000 C 
ATOM     26  C   UNL     1       6.318   1.206  10.883  0.00  0.00    +0.000 C 
ATOM     27  F   UNL     1       6.254  -0.128  11.082  0.00  0.00    +0.000 F 
ATOM     28  F   UNL     1       6.321   1.405   9.544  0.00  0.00    +0.000 F 
ATOM     29  C   UNL     1       5.299   2.059  11.674  0.00  0.00    +0.000 C 
ENDBRANCH  23  24
ENDBRANCH  20  22
ENDBRANCH   4  16
TORSDOF 4
ENDMDL
