MODEL 1
REMARK VINA RESULT:      -8.2      0.000      0.000
REMARK  Name = 
REMARK  5 active torsions:
REMARK  status: ('A' for Active; 'I' for Inactive)
REMARK    1  A    between atoms: C_2  and  C_3
REMARK    2  A    between atoms: C_3  and  C_4
REMARK    3  A    between atoms: C_5  and  O_6
REMARK    4  A    between atoms: N_13  and  C_14
REMARK    5  A    between atoms: C_18  and  C_19
REMARK                            x       y       z     vdW  Elec       q    Type
REMARK                         _______ _______ _______ _____ _____    ______ ____
ROOT
ATOM      1  C   UNL     1       5.186   4.800  18.394  0.00  0.00    +0.000 A 
ATOM      2  C   UNL     1       4.633   3.702  18.935  0.00  0.00    +0.000 A 
ATOM      3  C   UNL     1       3.292   3.751  19.525  0.00  0.00    +0.000 A 
ATOM      4  C   UNL     1       2.685   2.607  20.066  0.00  0.00    +0.000 A 
ATOM      5  C   UNL     1       1.427   2.693  20.648  0.00  0.00    +0.000 A 
ATOM      6  C   UNL     1       0.807   3.925  20.665  0.00  0.00    +0.000 A 
ATOM      7  N   UNL     1       1.355   5.045  20.148  0.00  0.00    +0.000 NA
ATOM      8  C   UNL     1       2.591   4.960  19.585  0.00  0.00    +0.000 A 
ATOM      9  N   UNL     1       3.174   6.111  18.981  0.00  0.00    +0.000 N 
ATOM     10  C   UNL     1       4.399   6.073  18.330  0.00  0.00    +0.000 A 
ATOM     11  O   UNL     1       4.901   7.038  17.747  0.00  0.00    +0.000 OA
ENDROOT
BRANCH   9  12
ATOM     12  C   UNL     1       2.456   7.340  19.034  0.00  0.00    +0.000 A 
ATOM     13  C   UNL     1       2.186   8.061  17.864  0.00  0.00    +0.000 A 
ATOM     14  C   UNL     1       1.353   9.179  17.900  0.00  0.00    +0.000 A 
ATOM     15  C   UNL     1       0.819   9.616  19.113  0.00  0.00    +0.000 A 
ATOM     16  C   UNL     1       1.114   8.940  20.305  0.00  0.00    +0.000 A 
ATOM     17  C   UNL     1       1.910   7.785  20.248  0.00  0.00    +0.000 A 
BRANCH  16  18
ATOM     18  C   UNL     1       0.607   9.440  21.633  0.00  0.00    +0.000 C 
ATOM     19  F   UNL     1      -0.502   8.780  22.073  0.00  0.00    +0.000 F 
ATOM     20  F   UNL     1       1.525   9.329  22.632  0.00  0.00    +0.000 F 
ATOM     21  F   UNL     1       0.257  10.756  21.591  0.00  0.00    +0.000 F 
ENDBRANCH  16  18
ENDBRANCH   9  12
BRANCH   2  22
ATOM     22  O   UNL     1       5.267   2.477  19.012  0.00  0.00    +0.000 OA
ATOM     23  H   UNL     1       5.969   2.512  19.682  0.00  0.00    +0.000 HD
ENDBRANCH   2  22
BRANCH   1  24
ATOM     24  C   UNL     1       6.601   4.903  17.883  0.00  0.00    +0.000 C 
BRANCH  24  26
ATOM     25  C   UNL     1       6.736   5.062  15.379  0.00  0.00    +0.000 C 
ATOM     26  C   UNL     1       6.741   4.332  16.502  0.00  0.00    +0.000 C 
ENDBRANCH  24  26
ENDBRANCH   1  24
TORSDOF 5
ENDMDL
MODEL 2
REMARK VINA RESULT:      -8.2      0.542      1.190
REMARK  Name = 
REMARK  5 active torsions:
REMARK  status: ('A' for Active; 'I' for Inactive)
REMARK    1  A    between atoms: C_2  and  C_3
REMARK    2  A    between atoms: C_3  and  C_4
REMARK    3  A    between atoms: C_5  and  O_6
REMARK    4  A    between atoms: N_13  and  C_14
REMARK    5  A    between atoms: C_18  and  C_19
REMARK                            x       y       z     vdW  Elec       q    Type
REMARK                         _______ _______ _______ _____ _____    ______ ____
ROOT
ATOM      1  C   UNL     1       5.057   4.902  18.007  0.00  0.00    +0.000 A 
ATOM      2  C   UNL     1       4.580   3.796  18.602  0.00  0.00    +0.000 A 
ATOM      3  C   UNL     1       3.316   3.830  19.344  0.00  0.00    +0.000 A 
ATOM      4  C   UNL     1       2.786   2.678  19.944  0.00  0.00    +0.000 A 
ATOM      5  C   UNL     1       1.604   2.749  20.669  0.00  0.00    +0.000 A 
ATOM      6  C   UNL     1       0.980   3.976  20.767  0.00  0.00    +0.000 A 
ATOM      7  N   UNL     1       1.455   5.104  20.197  0.00  0.00    +0.000 NA
ATOM      8  C   UNL     1       2.618   5.033  19.493  0.00  0.00    +0.000 A 
ATOM      9  N   UNL     1       3.117   6.192  18.833  0.00  0.00    +0.000 N 
ATOM     10  C   UNL     1       4.259   6.169  18.044  0.00  0.00    +0.000 A 
ATOM     11  O   UNL     1       4.681   7.140  17.413  0.00  0.00    +0.000 OA
ENDROOT
BRANCH   9  12
ATOM     12  C   UNL     1       2.400   7.414  18.978  0.00  0.00    +0.000 A 
ATOM     13  C   UNL     1       2.078   8.190  17.857  0.00  0.00    +0.000 A 
ATOM     14  C   UNL     1       1.245   9.302  17.985  0.00  0.00    +0.000 A 
ATOM     15  C   UNL     1       0.766   9.678  19.240  0.00  0.00    +0.000 A 
ATOM     16  C   UNL     1       1.115   8.946  20.384  0.00  0.00    +0.000 A 
ATOM     17  C   UNL     1       1.910   7.798  20.235  0.00  0.00    +0.000 A 
BRANCH  16  18
ATOM     18  C   UNL     1       0.668   9.380  21.755  0.00  0.00    +0.000 C 
ATOM     19  F   UNL     1       1.617   9.200  22.717  0.00  0.00    +0.000 F 
ATOM     20  F   UNL     1       0.326  10.697  21.815  0.00  0.00    +0.000 F 
ATOM     21  F   UNL     1      -0.426   8.691  22.186  0.00  0.00    +0.000 F 
ENDBRANCH  16  18
ENDBRANCH   9  12
BRANCH   2  22
ATOM     22  O   UNL     1       5.228   2.576  18.595  0.00  0.00    +0.000 OA
ATOM     23  H   UNL     1       5.326   2.252  19.506  0.00  0.00    +0.000 HD
ENDBRANCH   2  22
BRANCH   1  24
ATOM     24  C   UNL     1       6.403   5.020  17.335  0.00  0.00    +0.000 C 
BRANCH  24  26
ATOM     25  C   UNL     1       7.904   6.308  18.884  0.00  0.00    +0.000 C 
ATOM     26  C   UNL     1       7.517   5.150  18.332  0.00  0.00    +0.000 C 
ENDBRANCH  24  26
ENDBRANCH   1  24
TORSDOF 5
ENDMDL
MODEL 3
REMARK VINA RESULT:      -8.2      1.310      3.619
REMARK  Name = 
REMARK  5 active torsions:
REMARK  status: ('A' for Active; 'I' for Inactive)
REMARK    1  A    between atoms: C_2  and  C_3
REMARK    2  A    between atoms: C_3  and  C_4
REMARK    3  A    between atoms: C_5  and  O_6
REMARK    4  A    between atoms: N_13  and  C_14
REMARK    5  A    between atoms: C_18  and  C_19
REMARK                            x       y       z     vdW  Elec       q    Type
REMARK                         _______ _______ _______ _____ _____    ______ ____
ROOT
ATOM      1  C   UNL     1       3.201   3.828  19.915  0.00  0.00    +0.000 A 
ATOM      2  C   UNL     1       4.382   3.690  19.291  0.00  0.00    +0.000 A 
ATOM      3  C   UNL     1       4.990   4.819  18.579  0.00  0.00    +0.000 A 
ATOM      4  C   UNL     1       6.238   4.704  17.948  0.00  0.00    +0.000 A 
ATOM      5  C   UNL     1       6.771   5.781  17.253  0.00  0.00    +0.000 A 
ATOM      6  C   UNL     1       6.039   6.950  17.214  0.00  0.00    +0.000 A 
ATOM      7  N   UNL     1       4.840   7.101  17.815  0.00  0.00    +0.000 NA
ATOM      8  C   UNL     1       4.316   6.042  18.490  0.00  0.00    +0.000 A 
ATOM      9  N   UNL     1       3.079   6.185  19.181  0.00  0.00    +0.000 N 
ATOM     10  C   UNL     1       2.527   5.165  19.943  0.00  0.00    +0.000 A 
ATOM     11  O   UNL     1       1.489   5.279  20.600  0.00  0.00    +0.000 OA
ENDROOT
BRANCH   9  12
ATOM     12  C   UNL     1       2.398   7.434  19.097  0.00  0.00    +0.000 A 
ATOM     13  C   UNL     1       2.149   8.028  17.853  0.00  0.00    +0.000 A 
ATOM     14  C   UNL     1       1.348   9.167  17.764  0.00  0.00    +0.000 A 
ATOM     15  C   UNL     1       0.829   9.752  18.920  0.00  0.00    +0.000 A 
ATOM     16  C   UNL     1       1.106   9.203  20.180  0.00  0.00    +0.000 A 
ATOM     17  C   UNL     1       1.868   8.026  20.253  0.00  0.00    +0.000 A 
BRANCH  16  18
ATOM     18  C   UNL     1       0.615   9.863  21.443  0.00  0.00    +0.000 C 
ATOM     19  F   UNL     1       1.311   9.488  22.555  0.00  0.00    +0.000 F 
ATOM     20  F   UNL     1       0.690  11.221  21.401  0.00  0.00    +0.000 F 
ATOM     21  F   UNL     1      -0.688   9.568  21.709  0.00  0.00    +0.000 F 
ENDBRANCH  16  18
ENDBRANCH   9  12
BRANCH   2  22
ATOM     22  O   UNL     1       5.094   2.507  19.238  0.00  0.00    +0.000 OA
ATOM     23  H   UNL     1       4.624   1.867  18.679  0.00  0.00    +0.000 HD
ENDBRANCH   2  22
BRANCH   1  24
ATOM     24  C   UNL     1       2.420   2.711  20.561  0.00  0.00    +0.000 C 
BRANCH  24  26
ATOM     25  C   UNL     1       0.692   2.332  18.777  0.00  0.00    +0.000 C 
ATOM     26  C   UNL     1       1.690   1.878  19.548  0.00  0.00    +0.000 C 
ENDBRANCH  24  26
ENDBRANCH   1  24
TORSDOF 5
ENDMDL
MODEL 4
REMARK VINA RESULT:      -8.1      0.782      1.233
REMARK  Name = 
REMARK  5 active torsions:
REMARK  status: ('A' for Active; 'I' for Inactive)
REMARK    1  A    between atoms: C_2  and  C_3
REMARK    2  A    between atoms: C_3  and  C_4
REMARK    3  A    between atoms: C_5  and  O_6
REMARK    4  A    between atoms: N_13  and  C_14
REMARK    5  A    between atoms: C_18  and  C_19
REMARK                            x       y       z     vdW  Elec       q    Type
REMARK                         _______ _______ _______ _____ _____    ______ ____
ROOT
ATOM      1  C   UNL     1       4.650   4.726  17.263  0.00  0.00    +0.000 A 
ATOM      2  C   UNL     1       4.124   3.622  17.818  0.00  0.00    +0.000 A 
ATOM      3  C   UNL     1       2.948   3.710  18.690  0.00  0.00    +0.000 A 
ATOM      4  C   UNL     1       2.365   2.564  19.254  0.00  0.00    +0.000 A 
ATOM      5  C   UNL     1       1.273   2.683  20.103  0.00  0.00    +0.000 A 
ATOM      6  C   UNL     1       0.789   3.949  20.360  0.00  0.00    +0.000 A 
ATOM      7  N   UNL     1       1.318   5.073  19.830  0.00  0.00    +0.000 NA
ATOM      8  C   UNL     1       2.393   4.955  19.004  0.00  0.00    +0.000 A 
ATOM      9  N   UNL     1       2.940   6.115  18.385  0.00  0.00    +0.000 N 
ATOM     10  C   UNL     1       3.991   6.054  17.480  0.00  0.00    +0.000 A 
ATOM     11  O   UNL     1       4.446   7.033  16.884  0.00  0.00    +0.000 OA
ENDROOT
BRANCH   9  12
ATOM     12  C   UNL     1       2.369   7.382  18.698  0.00  0.00    +0.000 A 
ATOM     13  C   UNL     1       2.087   8.308  17.685  0.00  0.00    +0.000 A 
ATOM     14  C   UNL     1       1.388   9.479  17.975  0.00  0.00    +0.000 A 
ATOM     15  C   UNL     1       1.005   9.761  19.287  0.00  0.00    +0.000 A 
ATOM     16  C   UNL     1       1.319   8.873  20.325  0.00  0.00    +0.000 A 
ATOM     17  C   UNL     1       1.976   7.671  20.013  0.00  0.00    +0.000 A 
BRANCH  16  18
ATOM     18  C   UNL     1       0.979   9.195  21.757  0.00  0.00    +0.000 C 
ATOM     19  F   UNL     1       0.584  10.487  21.943  0.00  0.00    +0.000 F 
ATOM     20  F   UNL     1      -0.028   8.426  22.255  0.00  0.00    +0.000 F 
ATOM     21  F   UNL     1       2.038   9.012  22.595  0.00  0.00    +0.000 F 
ENDBRANCH  16  18
ENDBRANCH   9  12
BRANCH   2  22
ATOM     22  O   UNL     1       4.641   2.353  17.650  0.00  0.00    +0.000 OA
ATOM     23  H   UNL     1       4.413   1.802  18.418  0.00  0.00    +0.000 HD
ENDBRANCH   2  22
BRANCH   1  24
ATOM     24  C   UNL     1       5.928   4.776  16.463  0.00  0.00    +0.000 C 
BRANCH  24  26
ATOM     25  C   UNL     1       7.517   5.600  18.226  0.00  0.00    +0.000 C 
ATOM     26  C   UNL     1       7.142   4.669  17.340  0.00  0.00    +0.000 C 
ENDBRANCH  24  26
ENDBRANCH   1  24
TORSDOF 5
ENDMDL
MODEL 5
REMARK VINA RESULT:      -8.1      0.844      1.187
REMARK  Name = 
REMARK  5 active torsions:
REMARK  status: ('A' for Active; 'I' for Inactive)
REMARK    1  A    between atoms: C_2  and  C_3
REMARK    2  A    between atoms: C_3  and  C_4
REMARK    3  A    between atoms: C_5  and  O_6
REMARK    4  A    between atoms: N_13  and  C_14
REMARK    5  A    between atoms: C_18  and  C_19
REMARK                            x       y       z     vdW  Elec       q    Type
REMARK                         _______ _______ _______ _____ _____    ______ ____
ROOT
ATOM      1  C   UNL     1       4.617   5.134  17.320  0.00  0.00    +0.000 A 
ATOM      2  C   UNL     1       4.166   3.987  17.852  0.00  0.00    +0.000 A 
ATOM      3  C   UNL     1       2.994   3.979  18.732  0.00  0.00    +0.000 A 
ATOM      4  C   UNL     1       2.488   2.786  19.272  0.00  0.00    +0.000 A 
ATOM      5  C   UNL     1       1.397   2.815  20.130  0.00  0.00    +0.000 A 
ATOM      6  C   UNL     1       0.836   4.042  20.420  0.00  0.00    +0.000 A 
ATOM      7  N   UNL     1       1.289   5.209  19.914  0.00  0.00    +0.000 NA
ATOM      8  C   UNL     1       2.363   5.179  19.079  0.00  0.00    +0.000 A 
ATOM      9  N   UNL     1       2.831   6.385  18.484  0.00  0.00    +0.000 N 
ATOM     10  C   UNL     1       3.877   6.412  17.572  0.00  0.00    +0.000 A 
ATOM     11  O   UNL     1       4.265   7.432  16.997  0.00  0.00    +0.000 OA
ENDROOT
BRANCH   9  12
ATOM     12  C   UNL     1       2.183   7.606  18.831  0.00  0.00    +0.000 A 
ATOM     13  C   UNL     1       1.786   8.510  17.837  0.00  0.00    +0.000 A 
ATOM     14  C   UNL     1       1.016   9.626  18.166  0.00  0.00    +0.000 A 
ATOM     15  C   UNL     1       0.676   9.876  19.496  0.00  0.00    +0.000 A 
ATOM     16  C   UNL     1       1.103   9.011  20.514  0.00  0.00    +0.000 A 
ATOM     17  C   UNL     1       1.832   7.863  20.165  0.00  0.00    +0.000 A 
BRANCH  16  18
ATOM     18  C   UNL     1       0.809   9.305  21.962  0.00  0.00    +0.000 C 
ATOM     19  F   UNL     1       1.869   9.073  22.789  0.00  0.00    +0.000 F 
ATOM     20  F   UNL     1       0.444  10.598  22.183  0.00  0.00    +0.000 F 
ATOM     21  F   UNL     1      -0.209   8.542  22.449  0.00  0.00    +0.000 F 
ENDBRANCH  16  18
ENDBRANCH   9  12
BRANCH   2  22
ATOM     22  O   UNL     1       4.761   2.757  17.651  0.00  0.00    +0.000 OA
ATOM     23  H   UNL     1       4.296   2.079  18.168  0.00  0.00    +0.000 HD
ENDBRANCH   2  22
BRANCH   1  24
ATOM     24  C   UNL     1       5.884   5.285  16.514  0.00  0.00    +0.000 C 
BRANCH  24  26
ATOM     25  C   UNL     1       6.168   3.917  14.426  0.00  0.00    +0.000 C 
ATOM     26  C   UNL     1       5.662   4.983  15.061  0.00  0.00    +0.000 C 
ENDBRANCH  24  26
ENDBRANCH   1  24
TORSDOF 5
ENDMDL
MODEL 6
REMARK VINA RESULT:      -8.0      4.201      6.893
REMARK  Name = 
REMARK  5 active torsions:
REMARK  status: ('A' for Active; 'I' for Inactive)
REMARK    1  A    between atoms: C_2  and  C_3
REMARK    2  A    between atoms: C_3  and  C_4
REMARK    3  A    between atoms: C_5  and  O_6
REMARK    4  A    between atoms: N_13  and  C_14
REMARK    5  A    between atoms: C_18  and  C_19
REMARK                            x       y       z     vdW  Elec       q    Type
REMARK                         _______ _______ _______ _____ _____    ______ ____
ROOT
ATOM      1  C   UNL     1       2.592   4.757  20.484  0.00  0.00    +0.000 A 
ATOM      2  C   UNL     1       1.925   5.913  20.325  0.00  0.00    +0.000 A 
ATOM      3  C   UNL     1       2.337   6.881  19.304  0.00  0.00    +0.000 A 
ATOM      4  C   UNL     1       1.634   8.079  19.101  0.00  0.00    +0.000 A 
ATOM      5  C   UNL     1       2.069   8.991  18.150  0.00  0.00    +0.000 A 
ATOM      6  C   UNL     1       3.196   8.675  17.420  0.00  0.00    +0.000 A 
ATOM      7  N   UNL     1       3.893   7.530  17.580  0.00  0.00    +0.000 NA
ATOM      8  C   UNL     1       3.469   6.640  18.519  0.00  0.00    +0.000 A 
ATOM      9  N   UNL     1       4.149   5.399  18.674  0.00  0.00    +0.000 N 
ATOM     10  C   UNL     1       3.726   4.421  19.565  0.00  0.00    +0.000 A 
ATOM     11  O   UNL     1       4.259   3.315  19.679  0.00  0.00    +0.000 OA
ENDROOT
BRANCH   9  12
ATOM     12  C   UNL     1       5.297   5.150  17.868  0.00  0.00    +0.000 A 
ATOM     13  C   UNL     1       6.574   5.097  18.442  0.00  0.00    +0.000 A 
ATOM     14  C   UNL     1       7.674   4.701  17.680  0.00  0.00    +0.000 A 
ATOM     15  C   UNL     1       7.517   4.401  16.326  0.00  0.00    +0.000 A 
ATOM     16  C   UNL     1       6.258   4.495  15.718  0.00  0.00    +0.000 A 
ATOM     17  C   UNL     1       5.149   4.842  16.507  0.00  0.00    +0.000 A 
BRANCH  16  18
ATOM     18  C   UNL     1       6.083   4.247  14.242  0.00  0.00    +0.000 C 
ATOM     19  F   UNL     1       6.340   2.959  13.875  0.00  0.00    +0.000 F 
ATOM     20  F   UNL     1       4.823   4.513  13.800  0.00  0.00    +0.000 F 
ATOM     21  F   UNL     1       6.915   5.017  13.486  0.00  0.00    +0.000 F 
ENDBRANCH  16  18
ENDBRANCH   9  12
BRANCH   2  22
ATOM     22  O   UNL     1       0.849   6.295  21.101  0.00  0.00    +0.000 OA
ATOM     23  H   UNL     1       0.911   5.878  21.976  0.00  0.00    +0.000 HD
ENDBRANCH   2  22
BRANCH   1  24
ATOM     24  C   UNL     1       2.346   3.752  21.581  0.00  0.00    +0.000 C 
BRANCH  24  26
ATOM     25  C   UNL     1       0.797   2.587  19.982  0.00  0.00    +0.000 C 
ATOM     26  C   UNL     1       1.245   2.795  21.228  0.00  0.00    +0.000 C 
ENDBRANCH  24  26
ENDBRANCH   1  24
TORSDOF 5
ENDMDL
MODEL 7
REMARK VINA RESULT:      -7.8      1.871      2.498
REMARK  Name = 
REMARK  5 active torsions:
REMARK  status: ('A' for Active; 'I' for Inactive)
REMARK    1  A    between atoms: C_2  and  C_3
REMARK    2  A    between atoms: C_3  and  C_4
REMARK    3  A    between atoms: C_5  and  O_6
REMARK    4  A    between atoms: N_13  and  C_14
REMARK    5  A    between atoms: C_18  and  C_19
REMARK                            x       y       z     vdW  Elec       q    Type
REMARK                         _______ _______ _______ _____ _____    ______ ____
ROOT
ATOM      1  C   UNL     1       5.034   5.543  16.956  0.00  0.00    +0.000 A 
ATOM      2  C   UNL     1       4.670   4.250  16.946  0.00  0.00    +0.000 A 
ATOM      3  C   UNL     1       3.455   3.809  17.638  0.00  0.00    +0.000 A 
ATOM      4  C   UNL     1       3.040   2.468  17.612  0.00  0.00    +0.000 A 
ATOM      5  C   UNL     1       1.904   2.075  18.306  0.00  0.00    +0.000 A 
ATOM      6  C   UNL     1       1.208   3.041  19.004  0.00  0.00    +0.000 A 
ATOM      7  N   UNL     1       1.570   4.340  19.046  0.00  0.00    +0.000 NA
ATOM      8  C   UNL     1       2.689   4.722  18.371  0.00  0.00    +0.000 A 
ATOM      9  N   UNL     1       3.068   6.094  18.349  0.00  0.00    +0.000 N 
ATOM     10  C   UNL     1       4.157   6.557  17.624  0.00  0.00    +0.000 A 
ATOM     11  O   UNL     1       4.474   7.746  17.538  0.00  0.00    +0.000 OA
ENDROOT
BRANCH   9  12
ATOM     12  C   UNL     1       2.282   7.025  19.088  0.00  0.00    +0.000 A 
ATOM     13  C   UNL     1       2.030   6.822  20.451  0.00  0.00    +0.000 A 
ATOM     14  C   UNL     1       1.395   7.809  21.205  0.00  0.00    +0.000 A 
ATOM     15  C   UNL     1       0.964   8.987  20.596  0.00  0.00    +0.000 A 
ATOM     16  C   UNL     1       1.162   9.193  19.224  0.00  0.00    +0.000 A 
ATOM     17  C   UNL     1       1.849   8.216  18.486  0.00  0.00    +0.000 A 
BRANCH  16  18
ATOM     18  C   UNL     1       0.637  10.426  18.536  0.00  0.00    +0.000 C 
ATOM     19  F   UNL     1      -0.021  11.277  19.375  0.00  0.00    +0.000 F 
ATOM     20  F   UNL     1       1.616  11.169  17.949  0.00  0.00    +0.000 F 
ATOM     21  F   UNL     1      -0.251  10.129  17.546  0.00  0.00    +0.000 F 
ENDBRANCH  16  18
ENDBRANCH   9  12
BRANCH   2  22
ATOM     22  O   UNL     1       5.395   3.249  16.331  0.00  0.00    +0.000 OA
ATOM     23  H   UNL     1       6.247   3.602  16.024  0.00  0.00    +0.000 HD
ENDBRANCH   2  22
BRANCH   1  24
ATOM     24  C   UNL     1       6.324   6.090  16.398  0.00  0.00    +0.000 C 
BRANCH  24  26
ATOM     25  C   UNL     1       7.838   7.326  17.976  0.00  0.00    +0.000 C 
ATOM     26  C   UNL     1       7.396   6.179  17.445  0.00  0.00    +0.000 C 
ENDBRANCH  24  26
ENDBRANCH   1  24
TORSDOF 5
ENDMDL
MODEL 8
REMARK VINA RESULT:      -7.7      4.217      6.616
REMARK  Name = 
REMARK  5 active torsions:
REMARK  status: ('A' for Active; 'I' for Inactive)
REMARK    1  A    between atoms: C_2  and  C_3
REMARK    2  A    between atoms: C_3  and  C_4
REMARK    3  A    between atoms: C_5  and  O_6
REMARK    4  A    between atoms: N_13  and  C_14
REMARK    5  A    between atoms: C_18  and  C_19
REMARK                            x       y       z     vdW  Elec       q    Type
REMARK                         _______ _______ _______ _____ _____    ______ ____
ROOT
ATOM      1  C   UNL     1       2.299   7.118  19.262  0.00  0.00    +0.000 A 
ATOM      2  C   UNL     1       1.821   6.202  20.120  0.00  0.00    +0.000 A 
ATOM      3  C   UNL     1       2.497   4.913  20.294  0.00  0.00    +0.000 A 
ATOM      4  C   UNL     1       2.032   3.957  21.210  0.00  0.00    +0.000 A 
ATOM      5  C   UNL     1       2.674   2.731  21.326  0.00  0.00    +0.000 A 
ATOM      6  C   UNL     1       3.773   2.499  20.524  0.00  0.00    +0.000 A 
ATOM      7  N   UNL     1       4.254   3.397  19.638  0.00  0.00    +0.000 NA
ATOM      8  C   UNL     1       3.619   4.595  19.520  0.00  0.00    +0.000 A 
ATOM      9  N   UNL     1       4.134   5.585  18.636  0.00  0.00    +0.000 N 
ATOM     10  C   UNL     1       3.573   6.849  18.521  0.00  0.00    +0.000 A 
ATOM     11  O   UNL     1       4.032   7.745  17.809  0.00  0.00    +0.000 OA
ENDROOT
BRANCH   9  12
ATOM     12  C   UNL     1       5.281   5.263  17.855  0.00  0.00    +0.000 A 
ATOM     13  C   UNL     1       6.544   5.152  18.453  0.00  0.00    +0.000 A 
ATOM     14  C   UNL     1       7.633   4.686  17.717  0.00  0.00    +0.000 A 
ATOM     15  C   UNL     1       7.485   4.373  16.366  0.00  0.00    +0.000 A 
ATOM     16  C   UNL     1       6.243   4.522  15.733  0.00  0.00    +0.000 A 
ATOM     17  C   UNL     1       5.141   4.941  16.497  0.00  0.00    +0.000 A 
BRANCH  16  18
ATOM     18  C   UNL     1       6.081   4.260  14.258  0.00  0.00    +0.000 C 
ATOM     19  F   UNL     1       6.337   2.967  13.907  0.00  0.00    +0.000 F 
ATOM     20  F   UNL     1       4.826   4.525  13.802  0.00  0.00    +0.000 F 
ATOM     21  F   UNL     1       6.922   5.018  13.502  0.00  0.00    +0.000 F 
ENDBRANCH  16  18
ENDBRANCH   9  12
BRANCH   2  22
ATOM     22  O   UNL     1       0.674   6.372  20.870  0.00  0.00    +0.000 OA
ATOM     23  H   UNL     1      -0.108   6.228  20.311  0.00  0.00    +0.000 HD
ENDBRANCH   2  22
BRANCH   1  24
ATOM     24  C   UNL     1       1.619   8.416  18.902  0.00  0.00    +0.000 C 
BRANCH  24  26
ATOM     25  C   UNL     1       0.143   9.915  20.275  0.00  0.00    +0.000 C 
ATOM     26  C   UNL     1       1.282   9.227  20.119  0.00  0.00    +0.000 C 
ENDBRANCH  24  26
ENDBRANCH   1  24
TORSDOF 5
ENDMDL
MODEL 9
REMARK VINA RESULT:      -7.7      1.398      3.688
REMARK  Name = 
REMARK  5 active torsions:
REMARK  status: ('A' for Active; 'I' for Inactive)
REMARK    1  A    between atoms: C_2  and  C_3
REMARK    2  A    between atoms: C_3  and  C_4
REMARK    3  A    between atoms: C_5  and  O_6
REMARK    4  A    between atoms: N_13  and  C_14
REMARK    5  A    between atoms: C_18  and  C_19
REMARK                            x       y       z     vdW  Elec       q    Type
REMARK                         _______ _______ _______ _____ _____    ______ ____
ROOT
ATOM      1  C   UNL     1       2.541   3.567  18.879  0.00  0.00    +0.000 A 
ATOM      2  C   UNL     1       3.681   3.405  18.187  0.00  0.00    +0.000 A 
ATOM      3  C   UNL     1       4.433   4.565  17.699  0.00  0.00    +0.000 A 
ATOM      4  C   UNL     1       5.642   4.416  17.002  0.00  0.00    +0.000 A 
ATOM      5  C   UNL     1       6.314   5.533  16.523  0.00  0.00    +0.000 A 
ATOM      6  C   UNL     1       5.757   6.773  16.763  0.00  0.00    +0.000 A 
ATOM      7  N   UNL     1       4.602   6.956  17.436  0.00  0.00    +0.000 NA
ATOM      8  C   UNL     1       3.941   5.859  17.898  0.00  0.00    +0.000 A 
ATOM      9  N   UNL     1       2.749   6.021  18.660  0.00  0.00    +0.000 N 
ATOM     10  C   UNL     1       2.067   4.947  19.216  0.00  0.00    +0.000 A 
ATOM     11  O   UNL     1       1.067   5.060  19.929  0.00  0.00    +0.000 OA
ENDROOT
BRANCH   9  12
ATOM     12  C   UNL     1       2.253   7.340  18.869  0.00  0.00    +0.000 A 
ATOM     13  C   UNL     1       2.073   8.214  17.789  0.00  0.00    +0.000 A 
ATOM     14  C   UNL     1       1.443   9.445  17.976  0.00  0.00    +0.000 A 
ATOM     15  C   UNL     1       1.032   9.835  19.251  0.00  0.00    +0.000 A 
ATOM     16  C   UNL     1       1.245   8.998  20.355  0.00  0.00    +0.000 A 
ATOM     17  C   UNL     1       1.831   7.739  20.146  0.00  0.00    +0.000 A 
BRANCH  16  18
ATOM     18  C   UNL     1       0.874   9.434  21.749  0.00  0.00    +0.000 C 
ATOM     19  F   UNL     1      -0.225   8.795  22.242  0.00  0.00    +0.000 F 
ATOM     20  F   UNL     1       1.865   9.220  22.658  0.00  0.00    +0.000 F 
ATOM     21  F   UNL     1       0.586  10.764  21.816  0.00  0.00    +0.000 F 
ENDBRANCH  16  18
ENDBRANCH   9  12
BRANCH   2  22
ATOM     22  O   UNL     1       4.214   2.174  17.856  0.00  0.00    +0.000 OA
ATOM     23  H   UNL     1       5.038   2.031  18.348  0.00  0.00    +0.000 HD
ENDBRANCH   2  22
BRANCH   1  24
ATOM     24  C   UNL     1       1.617   2.456  19.313  0.00  0.00    +0.000 C 
BRANCH  24  26
ATOM     25  C   UNL     1       2.621   2.499  21.616  0.00  0.00    +0.000 C 
ATOM     26  C   UNL     1       1.568   2.320  20.807  0.00  0.00    +0.000 C 
ENDBRANCH  24  26
ENDBRANCH   1  24
TORSDOF 5
ENDMDL
