MODEL 1
REMARK VINA RESULT:      -8.6      0.000      0.000
REMARK  Name = 
REMARK  7 active torsions:
REMARK  status: ('A' for Active; 'I' for Inactive)
REMARK    1  A    between atoms: C_1  and  C_2
REMARK    2  A    between atoms: C_2  and  C_3
REMARK    3  A    between atoms: C_2  and  N_4
REMARK    4  A    between atoms: C_6  and  C_7
REMARK    5  A    between atoms: C_7  and  C_9
REMARK    6  A    between atoms: C_15  and  C_17
REMARK    7  A    between atoms: C_17  and  C_18
REMARK                            x       y       z     vdW  Elec       q    Type
REMARK                         _______ _______ _______ _____ _____    ______ ____
ROOT
ATOM      1  C   UNL     1       1.901   8.236  19.314  0.00  0.00    +0.000 A 
ATOM      2  C   UNL     1       1.880   7.373  20.408  0.00  0.00    +0.000 A 
ATOM      3  C   UNL     1       1.216   7.800  21.534  0.00  0.00    +0.000 A 
ATOM      4  N   UNL     1       0.608   8.998  21.626  0.00  0.00    +0.000 NA
ATOM      5  C   UNL     1       0.667   9.843  20.581  0.00  0.00    +0.000 A 
ATOM      6  N   UNL     1       0.013  11.082  20.647  0.00  0.00    +0.000 N 
ATOM      7  C   UNL     1      -0.520  11.609  21.808  0.00  0.00    +0.000 C 
ATOM      8  O   UNL     1      -0.411  11.144  22.945  0.00  0.00    +0.000 OA
ATOM      9  C   UNL     1       1.316   9.503  19.406  0.00  0.00    +0.000 A 
ATOM     10  H   UNL     1      -0.074  11.609  19.789  0.00  0.00    +0.000 HD
ENDROOT
BRANCH   1  11
ATOM     11  C   UNL     1       2.556   7.852  18.036  0.00  0.00    +0.000 C 
ATOM     12  O   UNL     1       2.386   8.577  17.060  0.00  0.00    +0.000 OA
BRANCH  11  15
ATOM     13  N   UNL     1       5.102   5.215  17.944  0.00  0.00    +0.000 N 
ATOM     14  C   UNL     1       4.737   6.534  18.054  0.00  0.00    +0.000 A 
ATOM     15  C   UNL     1       3.359   6.632  17.979  0.00  0.00    +0.000 A 
ATOM     16  C   UNL     1       2.865   5.293  17.886  0.00  0.00    +0.000 A 
ATOM     17  C   UNL     1       1.574   4.747  17.826  0.00  0.00    +0.000 A 
ATOM     18  N   UNL     1       1.390   3.411  17.710  0.00  0.00    +0.000 NA
ATOM     19  C   UNL     1       2.474   2.612  17.653  0.00  0.00    +0.000 A 
ATOM     20  C   UNL     1       3.791   3.049  17.708  0.00  0.00    +0.000 A 
ATOM     21  C   UNL     1       3.969   4.431  17.835  0.00  0.00    +0.000 A 
BRANCH  13  23
ATOM     22  C   UNL     1       7.098   4.591  16.592  0.00  0.00    +0.000 C 
ATOM     23  C   UNL     1       6.490   4.744  17.989  0.00  0.00    +0.000 C 
ATOM     24  C   UNL     1       7.360   5.657  18.856  0.00  0.00    +0.000 C 
ENDBRANCH  13  23
ENDBRANCH  11  15
ENDBRANCH   1  11
BRANCH   7  25
ATOM     25  C   UNL     1      -1.300  12.893  21.613  0.00  0.00    +0.000 C 
BRANCH  25  26
ATOM     26  C   UNL     1      -2.651  12.650  20.993  0.00  0.00    +0.000 A 
ATOM     27  C   UNL     1      -3.824  12.875  21.716  0.00  0.00    +0.000 A 
ATOM     28  C   UNL     1      -5.057  12.650  21.104  0.00  0.00    +0.000 A 
ATOM     29  C   UNL     1      -5.089  12.226  19.784  0.00  0.00    +0.000 A 
ATOM     30 CL   UNL     1      -6.583  11.927  18.995  0.00  0.00    +0.000 Cl
ATOM     31  C   UNL     1      -3.883  12.046  19.125  0.00  0.00    +0.000 A 
ATOM     32  N   UNL     1      -2.667  12.240  19.699  0.00  0.00    +0.000 NA
ENDBRANCH  25  26
ENDBRANCH   7  25
TORSDOF 5
ENDMDL
MODEL 2
REMARK VINA RESULT:      -8.4      2.263      3.582
REMARK  Name = 
REMARK  7 active torsions:
REMARK  status: ('A' for Active; 'I' for Inactive)
REMARK    1  A    between atoms: C_1  and  C_2
REMARK    2  A    between atoms: C_2  and  C_3
REMARK    3  A    between atoms: C_2  and  N_4
REMARK    4  A    between atoms: C_6  and  C_7
REMARK    5  A    between atoms: C_7  and  C_9
REMARK    6  A    between atoms: C_15  and  C_17
REMARK    7  A    between atoms: C_17  and  C_18
REMARK                            x       y       z     vdW  Elec       q    Type
REMARK                         _______ _______ _______ _____ _____    ______ ____
ROOT
ATOM      1  C   UNL     1       2.346   5.106  18.738  0.00  0.00    +0.000 A 
ATOM      2  C   UNL     1       2.112   4.651  20.035  0.00  0.00    +0.000 A 
ATOM      3  C   UNL     1       1.675   5.573  20.957  0.00  0.00    +0.000 A 
ATOM      4  N   UNL     1       1.479   6.874  20.667  0.00  0.00    +0.000 NA
ATOM      5  C   UNL     1       1.746   7.315  19.426  0.00  0.00    +0.000 A 
ATOM      6  N   UNL     1       1.518   8.660  19.098  0.00  0.00    +0.000 N 
ATOM      7  C   UNL     1       1.238   9.641  20.029  0.00  0.00    +0.000 C 
ATOM      8  O   UNL     1       1.254   9.517  21.257  0.00  0.00    +0.000 OA
ATOM      9  C   UNL     1       2.194   6.462  18.431  0.00  0.00    +0.000 A 
ATOM     10  H   UNL     1       1.556   8.914  18.121  0.00  0.00    +0.000 HD
ENDROOT
BRANCH   1  11
ATOM     11  C   UNL     1       2.780   4.182  17.659  0.00  0.00    +0.000 C 
ATOM     12  O   UNL     1       1.973   3.356  17.247  0.00  0.00    +0.000 OA
BRANCH  11  15
ATOM     13  N   UNL     1       5.917   4.244  15.759  0.00  0.00    +0.000 N 
ATOM     14  C   UNL     1       4.555   4.080  15.832  0.00  0.00    +0.000 A 
ATOM     15  C   UNL     1       4.143   4.276  17.138  0.00  0.00    +0.000 A 
ATOM     16  C   UNL     1       5.311   4.643  17.877  0.00  0.00    +0.000 A 
ATOM     17  C   UNL     1       5.528   5.003  19.217  0.00  0.00    +0.000 A 
ATOM     18  N   UNL     1       6.773   5.282  19.668  0.00  0.00    +0.000 NA
ATOM     19  C   UNL     1       7.805   5.207  18.803  0.00  0.00    +0.000 A 
ATOM     20  C   UNL     1       7.699   4.866  17.462  0.00  0.00    +0.000 A 
ATOM     21  C   UNL     1       6.407   4.586  17.005  0.00  0.00    +0.000 A 
BRANCH  13  23
ATOM     22  C   UNL     1       5.833   3.631  13.347  0.00  0.00    +0.000 C 
ATOM     23  C   UNL     1       6.691   4.115  14.520  0.00  0.00    +0.000 C 
ATOM     24  C   UNL     1       7.395   5.426  14.165  0.00  0.00    +0.000 C 
ENDBRANCH  13  23
ENDBRANCH  11  15
ENDBRANCH   1  11
BRANCH   7  25
ATOM     25  C   UNL     1       0.892  10.990  19.434  0.00  0.00    +0.000 C 
BRANCH  25  26
ATOM     26  C   UNL     1      -0.519  11.035  18.908  0.00  0.00    +0.000 A 
ATOM     27  C   UNL     1      -1.452  11.934  19.428  0.00  0.00    +0.000 A 
ATOM     28  C   UNL     1      -2.745  11.954  18.906  0.00  0.00    +0.000 A 
ATOM     29  C   UNL     1      -3.069  11.091  17.870  0.00  0.00    +0.000 A 
ATOM     30 CL   UNL     1      -4.651  11.075  17.205  0.00  0.00    +0.000 Cl
ATOM     31  C   UNL     1      -2.083  10.243  17.392  0.00  0.00    +0.000 A 
ATOM     32  N   UNL     1      -0.820  10.189  17.890  0.00  0.00    +0.000 NA
ENDBRANCH  25  26
ENDBRANCH   7  25
TORSDOF 5
ENDMDL
MODEL 3
REMARK VINA RESULT:      -8.4      1.238      1.486
REMARK  Name = 
REMARK  7 active torsions:
REMARK  status: ('A' for Active; 'I' for Inactive)
REMARK    1  A    between atoms: C_1  and  C_2
REMARK    2  A    between atoms: C_2  and  C_3
REMARK    3  A    between atoms: C_2  and  N_4
REMARK    4  A    between atoms: C_6  and  C_7
REMARK    5  A    between atoms: C_7  and  C_9
REMARK    6  A    between atoms: C_15  and  C_17
REMARK    7  A    between atoms: C_17  and  C_18
REMARK                            x       y       z     vdW  Elec       q    Type
REMARK                         _______ _______ _______ _____ _____    ______ ____
ROOT
ATOM      1  C   UNL     1       1.902   8.261  19.301  0.00  0.00    +0.000 A 
ATOM      2  C   UNL     1       1.873   7.400  20.395  0.00  0.00    +0.000 A 
ATOM      3  C   UNL     1       1.214   7.832  21.522  0.00  0.00    +0.000 A 
ATOM      4  N   UNL     1       0.617   9.037  21.613  0.00  0.00    +0.000 NA
ATOM      5  C   UNL     1       0.684   9.881  20.569  0.00  0.00    +0.000 A 
ATOM      6  N   UNL     1       0.041  11.126  20.635  0.00  0.00    +0.000 N 
ATOM      7  C   UNL     1      -0.485  11.658  21.796  0.00  0.00    +0.000 C 
ATOM      8  O   UNL     1      -0.381  11.192  22.933  0.00  0.00    +0.000 OA
ATOM      9  C   UNL     1       1.329   9.534  19.393  0.00  0.00    +0.000 A 
ATOM     10  H   UNL     1      -0.041  11.654  19.777  0.00  0.00    +0.000 HD
ENDROOT
BRANCH   1  11
ATOM     11  C   UNL     1       2.552   7.872  18.023  0.00  0.00    +0.000 C 
ATOM     12  O   UNL     1       2.379   8.591  17.044  0.00  0.00    +0.000 OA
BRANCH  11  15
ATOM     13  N   UNL     1       5.100   5.235  17.940  0.00  0.00    +0.000 N 
ATOM     14  C   UNL     1       4.734   6.555  18.047  0.00  0.00    +0.000 A 
ATOM     15  C   UNL     1       3.356   6.652  17.969  0.00  0.00    +0.000 A 
ATOM     16  C   UNL     1       2.863   5.313  17.878  0.00  0.00    +0.000 A 
ATOM     17  C   UNL     1       1.571   4.765  17.816  0.00  0.00    +0.000 A 
ATOM     18  N   UNL     1       1.388   3.429  17.702  0.00  0.00    +0.000 NA
ATOM     19  C   UNL     1       2.473   2.631  17.649  0.00  0.00    +0.000 A 
ATOM     20  C   UNL     1       3.790   3.069  17.706  0.00  0.00    +0.000 A 
ATOM     21  C   UNL     1       3.967   4.450  17.830  0.00  0.00    +0.000 A 
BRANCH  13  23
ATOM     22  C   UNL     1       7.084   4.567  16.591  0.00  0.00    +0.000 C 
ATOM     23  C   UNL     1       6.488   4.764  17.988  0.00  0.00    +0.000 C 
ATOM     24  C   UNL     1       7.365   5.704  18.819  0.00  0.00    +0.000 C 
ENDBRANCH  13  23
ENDBRANCH  11  15
ENDBRANCH   1  11
BRANCH   7  25
ATOM     25  C   UNL     1      -1.253  12.950  21.602  0.00  0.00    +0.000 C 
BRANCH  25  26
ATOM     26  C   UNL     1      -2.621  12.899  22.231  0.00  0.00    +0.000 A 
ATOM     27  C   UNL     1      -2.781  13.007  23.613  0.00  0.00    +0.000 A 
ATOM     28  C   UNL     1      -4.064  12.967  24.157  0.00  0.00    +0.000 A 
ATOM     29  C   UNL     1      -5.154  12.840  23.310  0.00  0.00    +0.000 A 
ATOM     30 CL   UNL     1      -6.750  12.778  23.937  0.00  0.00    +0.000 Cl
ATOM     31  C   UNL     1      -4.917  12.761  21.946  0.00  0.00    +0.000 A 
ATOM     32  N   UNL     1      -3.678  12.780  21.388  0.00  0.00    +0.000 NA
ENDBRANCH  25  26
ENDBRANCH   7  25
TORSDOF 5
ENDMDL
MODEL 4
REMARK VINA RESULT:      -8.3      0.704      1.057
REMARK  Name = 
REMARK  7 active torsions:
REMARK  status: ('A' for Active; 'I' for Inactive)
REMARK    1  A    between atoms: C_1  and  C_2
REMARK    2  A    between atoms: C_2  and  C_3
REMARK    3  A    between atoms: C_2  and  N_4
REMARK    4  A    between atoms: C_6  and  C_7
REMARK    5  A    between atoms: C_7  and  C_9
REMARK    6  A    between atoms: C_15  and  C_17
REMARK    7  A    between atoms: C_17  and  C_18
REMARK                            x       y       z     vdW  Elec       q    Type
REMARK                         _______ _______ _______ _____ _____    ______ ____
ROOT
ATOM      1  C   UNL     1       1.918   8.320  19.087  0.00  0.00    +0.000 A 
ATOM      2  C   UNL     1       1.889   7.552  20.249  0.00  0.00    +0.000 A 
ATOM      3  C   UNL     1       1.122   8.015  21.292  0.00  0.00    +0.000 A 
ATOM      4  N   UNL     1       0.420   9.164  21.241  0.00  0.00    +0.000 NA
ATOM      5  C   UNL     1       0.485   9.922  20.132  0.00  0.00    +0.000 A 
ATOM      6  N   UNL     1      -0.263  11.106  20.051  0.00  0.00    +0.000 N 
ATOM      7  C   UNL     1      -0.909  11.682  21.127  0.00  0.00    +0.000 C 
ATOM      8  O   UNL     1      -0.842  11.322  22.305  0.00  0.00    +0.000 OA
ATOM      9  C   UNL     1       1.235   9.539  19.032  0.00  0.00    +0.000 A 
ATOM     10  H   UNL     1      -0.331  11.551  19.146  0.00  0.00    +0.000 HD
ENDROOT
BRANCH   1  11
ATOM     11  C   UNL     1       2.683   7.886  17.889  0.00  0.00    +0.000 C 
ATOM     12  O   UNL     1       2.615   8.578  16.878  0.00  0.00    +0.000 OA
BRANCH  11  15
ATOM     13  N   UNL     1       5.194   5.221  18.096  0.00  0.00    +0.000 N 
ATOM     14  C   UNL     1       4.842   6.548  18.112  0.00  0.00    +0.000 A 
ATOM     15  C   UNL     1       3.472   6.657  17.947  0.00  0.00    +0.000 A 
ATOM     16  C   UNL     1       2.966   5.320  17.897  0.00  0.00    +0.000 A 
ATOM     17  C   UNL     1       1.673   4.784  17.788  0.00  0.00    +0.000 A 
ATOM     18  N   UNL     1       1.478   3.446  17.734  0.00  0.00    +0.000 NA
ATOM     19  C   UNL     1       2.553   2.634  17.787  0.00  0.00    +0.000 A 
ATOM     20  C   UNL     1       3.870   3.060  17.898  0.00  0.00    +0.000 A 
ATOM     21  C   UNL     1       4.059   4.444  17.960  0.00  0.00    +0.000 A 
BRANCH  13  23
ATOM     22  C   UNL     1       7.270   4.532  16.904  0.00  0.00    +0.000 C 
ATOM     23  C   UNL     1       6.571   4.739  18.251  0.00  0.00    +0.000 C 
ATOM     24  C   UNL     1       7.390   5.673  19.145  0.00  0.00    +0.000 C 
ENDBRANCH  13  23
ENDBRANCH  11  15
ENDBRANCH   1  11
BRANCH   7  25
ATOM     25  C   UNL     1      -1.768  12.879  20.774  0.00  0.00    +0.000 C 
BRANCH  25  26
ATOM     26  C   UNL     1      -3.046  12.479  20.084  0.00  0.00    +0.000 A 
ATOM     27  C   UNL     1      -3.026  11.887  18.820  0.00  0.00    +0.000 A 
ATOM     28  C   UNL     1      -4.229  11.519  18.218  0.00  0.00    +0.000 A 
ATOM     29  C   UNL     1      -5.418  11.735  18.898  0.00  0.00    +0.000 A 
ATOM     30 CL   UNL     1      -6.922  11.307  18.192  0.00  0.00    +0.000 Cl
ATOM     31  C   UNL     1      -5.356  12.308  20.159  0.00  0.00    +0.000 A 
ATOM     32  N   UNL     1      -4.202  12.691  20.764  0.00  0.00    +0.000 NA
ENDBRANCH  25  26
ENDBRANCH   7  25
TORSDOF 5
ENDMDL
MODEL 5
REMARK VINA RESULT:      -8.3      2.358      2.932
REMARK  Name = 
REMARK  7 active torsions:
REMARK  status: ('A' for Active; 'I' for Inactive)
REMARK    1  A    between atoms: C_1  and  C_2
REMARK    2  A    between atoms: C_2  and  C_3
REMARK    3  A    between atoms: C_2  and  N_4
REMARK    4  A    between atoms: C_6  and  C_7
REMARK    5  A    between atoms: C_7  and  C_9
REMARK    6  A    between atoms: C_15  and  C_17
REMARK    7  A    between atoms: C_17  and  C_18
REMARK                            x       y       z     vdW  Elec       q    Type
REMARK                         _______ _______ _______ _____ _____    ______ ____
ROOT
ATOM      1  C   UNL     1       1.950   8.164  19.278  0.00  0.00    +0.000 A 
ATOM      2  C   UNL     1       1.846   7.266  20.338  0.00  0.00    +0.000 A 
ATOM      3  C   UNL     1       1.176   7.690  21.461  0.00  0.00    +0.000 A 
ATOM      4  N   UNL     1       0.636   8.919  21.581  0.00  0.00    +0.000 NA
ATOM      5  C   UNL     1       0.775   9.795  20.571  0.00  0.00    +0.000 A 
ATOM      6  N   UNL     1       0.192  11.068  20.666  0.00  0.00    +0.000 N 
ATOM      7  C   UNL     1      -0.342  11.584  21.831  0.00  0.00    +0.000 C 
ATOM      8  O   UNL     1      -0.294  11.072  22.952  0.00  0.00    +0.000 OA
ATOM      9  C   UNL     1       1.437   9.460  19.402  0.00  0.00    +0.000 A 
ATOM     10  H   UNL     1       0.162  11.630  19.826  0.00  0.00    +0.000 HD
ENDROOT
BRANCH   1  11
ATOM     11  C   UNL     1       2.618   7.789  18.005  0.00  0.00    +0.000 C 
ATOM     12  O   UNL     1       2.457   8.518  17.032  0.00  0.00    +0.000 OA
BRANCH  11  15
ATOM     13  N   UNL     1       5.171   5.157  17.913  0.00  0.00    +0.000 N 
ATOM     14  C   UNL     1       4.803   6.476  18.019  0.00  0.00    +0.000 A 
ATOM     15  C   UNL     1       3.424   6.571  17.950  0.00  0.00    +0.000 A 
ATOM     16  C   UNL     1       2.933   5.230  17.865  0.00  0.00    +0.000 A 
ATOM     17  C   UNL     1       1.643   4.680  17.813  0.00  0.00    +0.000 A 
ATOM     18  N   UNL     1       1.462   3.343  17.705  0.00  0.00    +0.000 NA
ATOM     19  C   UNL     1       2.548   2.547  17.646  0.00  0.00    +0.000 A 
ATOM     20  C   UNL     1       3.864   2.988  17.693  0.00  0.00    +0.000 A 
ATOM     21  C   UNL     1       4.039   4.370  17.813  0.00  0.00    +0.000 A 
BRANCH  13  23
ATOM     22  C   UNL     1       7.164   4.540  16.555  0.00  0.00    +0.000 C 
ATOM     23  C   UNL     1       6.560   4.690  17.954  0.00  0.00    +0.000 C 
ATOM     24  C   UNL     1       7.430   5.604  18.820  0.00  0.00    +0.000 C 
ENDBRANCH  13  23
ENDBRANCH  11  15
ENDBRANCH   1  11
BRANCH   7  25
ATOM     25  C   UNL     1      -1.039  12.918  21.663  0.00  0.00    +0.000 C 
BRANCH  25  26
ATOM     26  C   UNL     1      -0.277  13.850  20.758  0.00  0.00    +0.000 A 
ATOM     27  C   UNL     1      -0.935  14.617  19.796  0.00  0.00    +0.000 A 
ATOM     28  C   UNL     1      -0.196  15.477  18.984  0.00  0.00    +0.000 A 
ATOM     29  C   UNL     1       1.176  15.564  19.165  0.00  0.00    +0.000 A 
ATOM     30 CL   UNL     1       2.125  16.602  18.182  0.00  0.00    +0.000 Cl
ATOM     31  C   UNL     1       1.756  14.788  20.156  0.00  0.00    +0.000 A 
ATOM     32  N   UNL     1       1.065  13.929  20.950  0.00  0.00    +0.000 NA
ENDBRANCH  25  26
ENDBRANCH   7  25
TORSDOF 5
ENDMDL
MODEL 6
REMARK VINA RESULT:      -8.3      1.026      2.558
REMARK  Name = 
REMARK  7 active torsions:
REMARK  status: ('A' for Active; 'I' for Inactive)
REMARK    1  A    between atoms: C_1  and  C_2
REMARK    2  A    between atoms: C_2  and  C_3
REMARK    3  A    between atoms: C_2  and  N_4
REMARK    4  A    between atoms: C_6  and  C_7
REMARK    5  A    between atoms: C_7  and  C_9
REMARK    6  A    between atoms: C_15  and  C_17
REMARK    7  A    between atoms: C_17  and  C_18
REMARK                            x       y       z     vdW  Elec       q    Type
REMARK                         _______ _______ _______ _____ _____    ______ ____
ROOT
ATOM      1  C   UNL     1       1.700   8.535  19.322  0.00  0.00    +0.000 A 
ATOM      2  C   UNL     1       1.797   7.867  20.542  0.00  0.00    +0.000 A 
ATOM      3  C   UNL     1       1.101   8.393  21.605  0.00  0.00    +0.000 A 
ATOM      4  N   UNL     1       0.354   9.511  21.521  0.00  0.00    +0.000 NA
ATOM      5  C   UNL     1       0.298  10.173  20.352  0.00  0.00    +0.000 A 
ATOM      6  N   UNL     1      -0.500  11.322  20.238  0.00  0.00    +0.000 N 
ATOM      7  C   UNL     1      -1.077  11.967  21.315  0.00  0.00    +0.000 C 
ATOM      8  O   UNL     1      -0.898  11.710  22.508  0.00  0.00    +0.000 OA
ATOM      9  C   UNL     1       0.968   9.723  19.227  0.00  0.00    +0.000 A 
ATOM     10  H   UNL     1      -0.660  11.687  19.310  0.00  0.00    +0.000 HD
ENDROOT
BRANCH   1  11
ATOM     11  C   UNL     1       2.380   8.025  18.103  0.00  0.00    +0.000 C 
ATOM     12  O   UNL     1       2.401   8.746  17.111  0.00  0.00    +0.000 OA
BRANCH  11  15
ATOM     13  N   UNL     1       3.306   4.493  18.443  0.00  0.00    +0.000 N 
ATOM     14  C   UNL     1       2.410   5.524  18.590  0.00  0.00    +0.000 A 
ATOM     15  C   UNL     1       2.981   6.693  18.120  0.00  0.00    +0.000 A 
ATOM     16  C   UNL     1       4.265   6.334  17.601  0.00  0.00    +0.000 A 
ATOM     17  C   UNL     1       5.282   7.060  16.963  0.00  0.00    +0.000 A 
ATOM     18  N   UNL     1       6.437   6.459  16.592  0.00  0.00    +0.000 NA
ATOM     19  C   UNL     1       6.592   5.145  16.848  0.00  0.00    +0.000 A 
ATOM     20  C   UNL     1       5.649   4.336  17.469  0.00  0.00    +0.000 A 
ATOM     21  C   UNL     1       4.458   4.966  17.842  0.00  0.00    +0.000 A 
BRANCH  13  23
ATOM     22  C   UNL     1       2.138   3.019  20.075  0.00  0.00    +0.000 C 
ATOM     23  C   UNL     1       3.029   3.107  18.832  0.00  0.00    +0.000 C 
ATOM     24  C   UNL     1       2.417   2.315  17.675  0.00  0.00    +0.000 C 
ENDBRANCH  13  23
ENDBRANCH  11  15
ENDBRANCH   1  11
BRANCH   7  25
ATOM     25  C   UNL     1      -2.008  13.101  20.941  0.00  0.00    +0.000 C 
BRANCH  25  26
ATOM     26  C   UNL     1      -3.273  12.608  20.289  0.00  0.00    +0.000 A 
ATOM     27  C   UNL     1      -4.515  12.785  20.904  0.00  0.00    +0.000 A 
ATOM     28  C   UNL     1      -5.665  12.325  20.264  0.00  0.00    +0.000 A 
ATOM     29  C   UNL     1      -5.552  11.719  19.022  0.00  0.00    +0.000 A 
ATOM     30 CL   UNL     1      -6.940  11.130  18.204  0.00  0.00    +0.000 Cl
ATOM     31  C   UNL     1      -4.288  11.598  18.466  0.00  0.00    +0.000 A 
ATOM     32  N   UNL     1      -3.147  12.021  19.072  0.00  0.00    +0.000 NA
ENDBRANCH  25  26
ENDBRANCH   7  25
TORSDOF 5
ENDMDL
MODEL 7
REMARK VINA RESULT:      -8.3      3.275     10.217
REMARK  Name = 
REMARK  7 active torsions:
REMARK  status: ('A' for Active; 'I' for Inactive)
REMARK    1  A    between atoms: C_1  and  C_2
REMARK    2  A    between atoms: C_2  and  C_3
REMARK    3  A    between atoms: C_2  and  N_4
REMARK    4  A    between atoms: C_6  and  C_7
REMARK    5  A    between atoms: C_7  and  C_9
REMARK    6  A    between atoms: C_15  and  C_17
REMARK    7  A    between atoms: C_17  and  C_18
REMARK                            x       y       z     vdW  Elec       q    Type
REMARK                         _______ _______ _______ _____ _____    ______ ____
ROOT
ATOM      1  C   UNL     1      -0.284  10.781  21.137  0.00  0.00    +0.000 A 
ATOM      2  C   UNL     1      -0.880  11.488  20.096  0.00  0.00    +0.000 A 
ATOM      3  C   UNL     1      -0.518  11.148  18.813  0.00  0.00    +0.000 A 
ATOM      4  N   UNL     1       0.381  10.186  18.529  0.00  0.00    +0.000 NA
ATOM      5  C   UNL     1       0.984   9.535  19.539  0.00  0.00    +0.000 A 
ATOM      6  N   UNL     1       1.900   8.510  19.261  0.00  0.00    +0.000 N 
ATOM      7  C   UNL     1       2.407   8.253  18.002  0.00  0.00    +0.000 C 
ATOM      8  O   UNL     1       2.228   8.927  16.985  0.00  0.00    +0.000 OA
ATOM      9  C   UNL     1       0.687   9.811  20.863  0.00  0.00    +0.000 A 
ATOM     10  H   UNL     1       2.195   7.927  20.032  0.00  0.00    +0.000 HD
ENDROOT
BRANCH   1  11
ATOM     11  C   UNL     1      -0.637  11.043  22.557  0.00  0.00    +0.000 C 
ATOM     12  O   UNL     1      -0.143  10.322  23.417  0.00  0.00    +0.000 OA
BRANCH  11  15
ATOM     13  N   UNL     1      -3.400  13.269  23.485  0.00  0.00    +0.000 N 
ATOM     14  C   UNL     1      -2.870  12.014  23.312  0.00  0.00    +0.000 A 
ATOM     15  C   UNL     1      -1.561  12.130  22.877  0.00  0.00    +0.000 A 
ATOM     16  C   UNL     1      -1.268  13.530  22.851  0.00  0.00    +0.000 A 
ATOM     17  C   UNL     1      -0.113  14.265  22.543  0.00  0.00    +0.000 A 
ATOM     18  N   UNL     1      -0.123  15.618  22.573  0.00  0.00    +0.000 NA
ATOM     19  C   UNL     1      -1.267  16.248  22.906  0.00  0.00    +0.000 A 
ATOM     20  C   UNL     1      -2.460  15.617  23.231  0.00  0.00    +0.000 A 
ATOM     21  C   UNL     1      -2.437  14.219  23.203  0.00  0.00    +0.000 A 
BRANCH  13  23
ATOM     22  C   UNL     1      -5.733  13.789  22.787  0.00  0.00    +0.000 C 
ATOM     23  C   UNL     1      -4.769  13.522  23.946  0.00  0.00    +0.000 C 
ATOM     24  C   UNL     1      -5.283  12.374  24.818  0.00  0.00    +0.000 C 
ENDBRANCH  13  23
ENDBRANCH  11  15
ENDBRANCH   1  11
BRANCH   7  25
ATOM     25  C   UNL     1       3.272   7.012  17.915  0.00  0.00    +0.000 C 
BRANCH  25  26
ATOM     26  C   UNL     1       2.706   5.867  18.714  0.00  0.00    +0.000 A 
ATOM     27  C   UNL     1       2.005   4.833  18.091  0.00  0.00    +0.000 A 
ATOM     28  C   UNL     1       1.506   3.784  18.863  0.00  0.00    +0.000 A 
ATOM     29  C   UNL     1       1.734   3.783  20.230  0.00  0.00    +0.000 A 
ATOM     30 CL   UNL     1       1.130   2.517  21.219  0.00  0.00    +0.000 Cl
ATOM     31  C   UNL     1       2.457   4.833  20.774  0.00  0.00    +0.000 A 
ATOM     32  N   UNL     1       2.941   5.877  20.051  0.00  0.00    +0.000 NA
ENDBRANCH  25  26
ENDBRANCH   7  25
TORSDOF 5
ENDMDL
MODEL 8
REMARK VINA RESULT:      -8.3      3.240     10.192
REMARK  Name = 
REMARK  7 active torsions:
REMARK  status: ('A' for Active; 'I' for Inactive)
REMARK    1  A    between atoms: C_1  and  C_2
REMARK    2  A    between atoms: C_2  and  C_3
REMARK    3  A    between atoms: C_2  and  N_4
REMARK    4  A    between atoms: C_6  and  C_7
REMARK    5  A    between atoms: C_7  and  C_9
REMARK    6  A    between atoms: C_15  and  C_17
REMARK    7  A    between atoms: C_17  and  C_18
REMARK                            x       y       z     vdW  Elec       q    Type
REMARK                         _______ _______ _______ _____ _____    ______ ____
ROOT
ATOM      1  C   UNL     1      -0.950  11.351  21.471  0.00  0.00    +0.000 A 
ATOM      2  C   UNL     1      -0.944  10.825  22.761  0.00  0.00    +0.000 A 
ATOM      3  C   UNL     1      -0.200   9.688  22.975  0.00  0.00    +0.000 A 
ATOM      4  N   UNL     1       0.499   9.068  22.005  0.00  0.00    +0.000 NA
ATOM      5  C   UNL     1       0.457   9.557  20.753  0.00  0.00    +0.000 A 
ATOM      6  N   UNL     1       1.204   8.943  19.737  0.00  0.00    +0.000 N 
ATOM      7  C   UNL     1       1.826   7.717  19.875  0.00  0.00    +0.000 C 
ATOM      8  O   UNL     1       1.734   6.949  20.836  0.00  0.00    +0.000 OA
ATOM      9  C   UNL     1      -0.268  10.695  20.441  0.00  0.00    +0.000 A 
ATOM     10  H   UNL     1       1.291   9.437  18.860  0.00  0.00    +0.000 HD
ENDROOT
BRANCH   1  11
ATOM     11  C   UNL     1      -1.688  12.599  21.146  0.00  0.00    +0.000 C 
ATOM     12  O   UNL     1      -1.070  13.658  21.170  0.00  0.00    +0.000 OA
BRANCH  11  15
ATOM     13  N   UNL     1      -5.048  12.286  19.709  0.00  0.00    +0.000 N 
ATOM     14  C   UNL     1      -3.680  12.238  19.596  0.00  0.00    +0.000 A 
ATOM     15  C   UNL     1      -3.113  12.527  20.825  0.00  0.00    +0.000 A 
ATOM     16  C   UNL     1      -4.199  12.692  21.741  0.00  0.00    +0.000 A 
ATOM     17  C   UNL     1      -4.264  12.952  23.119  0.00  0.00    +0.000 A 
ATOM     18  N   UNL     1      -5.457  13.091  23.744  0.00  0.00    +0.000 NA
ATOM     19  C   UNL     1      -6.585  12.976  23.014  0.00  0.00    +0.000 A 
ATOM     20  C   UNL     1      -6.631  12.718  21.651  0.00  0.00    +0.000 A 
ATOM     21  C   UNL     1      -5.393  12.569  21.017  0.00  0.00    +0.000 A 
BRANCH  13  23
ATOM     22  C   UNL     1      -5.282  12.134  17.234  0.00  0.00    +0.000 C 
ATOM     23  C   UNL     1      -5.970  12.024  18.598  0.00  0.00    +0.000 C 
ATOM     24  C   UNL     1      -6.650  10.662  18.749  0.00  0.00    +0.000 C 
ENDBRANCH  13  23
ENDBRANCH  11  15
ENDBRANCH   1  11
BRANCH   7  25
ATOM     25  C   UNL     1       2.690   7.317  18.697  0.00  0.00    +0.000 C 
BRANCH  25  26
ATOM     26  C   UNL     1       2.872   5.824  18.606  0.00  0.00    +0.000 A 
ATOM     27  C   UNL     1       1.948   5.027  17.928  0.00  0.00    +0.000 A 
ATOM     28  C   UNL     1       2.157   3.650  17.854  0.00  0.00    +0.000 A 
ATOM     29  C   UNL     1       3.289   3.106  18.442  0.00  0.00    +0.000 A 
ATOM     30 CL   UNL     1       3.581   1.416  18.385  0.00  0.00    +0.000 Cl
ATOM     31  C   UNL     1       4.172   3.964  19.079  0.00  0.00    +0.000 A 
ATOM     32  N   UNL     1       3.988   5.307  19.181  0.00  0.00    +0.000 NA
ENDBRANCH  25  26
ENDBRANCH   7  25
TORSDOF 5
ENDMDL
MODEL 9
REMARK VINA RESULT:      -8.2      3.272      9.830
REMARK  Name = 
REMARK  7 active torsions:
REMARK  status: ('A' for Active; 'I' for Inactive)
REMARK    1  A    between atoms: C_1  and  C_2
REMARK    2  A    between atoms: C_2  and  C_3
REMARK    3  A    between atoms: C_2  and  N_4
REMARK    4  A    between atoms: C_6  and  C_7
REMARK    5  A    between atoms: C_7  and  C_9
REMARK    6  A    between atoms: C_15  and  C_17
REMARK    7  A    between atoms: C_17  and  C_18
REMARK                            x       y       z     vdW  Elec       q    Type
REMARK                         _______ _______ _______ _____ _____    ______ ____
ROOT
ATOM      1  C   UNL     1      -0.653  11.220  20.898  0.00  0.00    +0.000 A 
ATOM      2  C   UNL     1      -0.655  10.775  22.218  0.00  0.00    +0.000 A 
ATOM      3  C   UNL     1       0.088   9.655  22.507  0.00  0.00    +0.000 A 
ATOM      4  N   UNL     1       0.794   8.976  21.582  0.00  0.00    +0.000 NA
ATOM      5  C   UNL     1       0.759   9.386  20.302  0.00  0.00    +0.000 A 
ATOM      6  N   UNL     1       1.513   8.710  19.331  0.00  0.00    +0.000 N 
ATOM      7  C   UNL     1       2.135   7.496  19.549  0.00  0.00    +0.000 C 
ATOM      8  O   UNL     1       2.038   6.789  20.556  0.00  0.00    +0.000 OA
ATOM      9  C   UNL     1       0.035  10.501  19.915  0.00  0.00    +0.000 A 
ATOM     10  H   UNL     1       1.605   9.148  18.425  0.00  0.00    +0.000 HD
ENDROOT
BRANCH   1  11
ATOM     11  C   UNL     1      -1.391  12.444  20.490  0.00  0.00    +0.000 C 
ATOM     12  O   UNL     1      -0.846  13.530  20.662  0.00  0.00    +0.000 OA
BRANCH  11  15
ATOM     13  N   UNL     1      -4.962  12.365  19.659  0.00  0.00    +0.000 N 
ATOM     14  C   UNL     1      -3.931  12.648  20.522  0.00  0.00    +0.000 A 
ATOM     15  C   UNL     1      -2.730  12.319  19.919  0.00  0.00    +0.000 A 
ATOM     16  C   UNL     1      -3.052  11.877  18.597  0.00  0.00    +0.000 A 
ATOM     17  C   UNL     1      -2.273  11.458  17.507  0.00  0.00    +0.000 A 
ATOM     18  N   UNL     1      -2.854  11.057  16.352  0.00  0.00    +0.000 NA
ATOM     19  C   UNL     1      -4.199  11.068  16.269  0.00  0.00    +0.000 A 
ATOM     20  C   UNL     1      -5.059  11.466  17.283  0.00  0.00    +0.000 A 
ATOM     21  C   UNL     1      -4.448  11.885  18.469  0.00  0.00    +0.000 A 
BRANCH  13  23
ATOM     22  C   UNL     1      -6.694  12.345  21.448  0.00  0.00    +0.000 C 
ATOM     23  C   UNL     1      -6.376  12.596  19.971  0.00  0.00    +0.000 C 
ATOM     24  C   UNL     1      -6.814  14.003  19.558  0.00  0.00    +0.000 C 
ENDBRANCH  13  23
ENDBRANCH  11  15
ENDBRANCH   1  11
BRANCH   7  25
ATOM     25  C   UNL     1       3.006   7.023  18.404  0.00  0.00    +0.000 C 
BRANCH  25  26
ATOM     26  C   UNL     1       3.141   5.523  18.372  0.00  0.00    +0.000 A 
ATOM     27  C   UNL     1       2.127   4.721  17.845  0.00  0.00    +0.000 A 
ATOM     28  C   UNL     1       2.293   3.337  17.822  0.00  0.00    +0.000 A 
ATOM     29  C   UNL     1       3.471   2.789  18.308  0.00  0.00    +0.000 A 
ATOM     30 CL   UNL     1       3.714   1.091  18.308  0.00  0.00    +0.000 Cl
ATOM     31  C   UNL     1       4.440   3.651  18.795  0.00  0.00    +0.000 A 
ATOM     32  N   UNL     1       4.301   5.002  18.846  0.00  0.00    +0.000 NA
ENDBRANCH  25  26
ENDBRANCH   7  25
TORSDOF 5
ENDMDL
