MODEL 1
REMARK VINA RESULT:      -6.6      0.000      0.000
REMARK  Name = 
REMARK  19 active torsions:
REMARK  status: ('A' for Active; 'I' for Inactive)
REMARK    1  A    between atoms: C_1  and  C_2
REMARK    2  A    between atoms: C_2  and  N_3
REMARK    3  A    between atoms: N_3  and  C_4
REMARK    4  A    between atoms: N_3  and  C_6
REMARK    5  A    between atoms: C_4  and  C_5
REMARK    6  A    between atoms: C_6  and  C_7
REMARK    7  A    between atoms: C_7  and  N_8
REMARK    8  A    between atoms: C_12  and  C_14
REMARK    9  A    between atoms: C_14  and  O_15
REMARK   10  A    between atoms: O_15  and  C_16
REMARK   11  A    between atoms: C_16  and  C_17
REMARK   12  A    between atoms: C_17  and  N_18
REMARK   13  A    between atoms: N_18  and  C_19
REMARK   14  A    between atoms: N_18  and  S_20
REMARK   15  A    between atoms: S_20  and  C_23
REMARK   16  A    between atoms: C_24  and  C_25
REMARK   17  A    between atoms: C_27  and  O_28
REMARK   18  A    between atoms: O_28  and  C_29
REMARK   19  A    between atoms: C_31  and  C_32
REMARK                            x       y       z     vdW  Elec       q    Type
REMARK                         _______ _______ _______ _____ _____    ______ ____
ROOT
ATOM      1  O   UNL     1       2.215   8.457  18.496  0.00  0.00    +0.000 OA
ENDROOT
BRANCH   1   2
ATOM      2  C   UNL     1       1.973   9.788  18.042  0.00  0.00    +0.000 C 
BRANCH   2   7
ATOM      3  N   UNL     1       1.551  14.267  20.532  0.00  0.00    +0.000 NA
ATOM      4  C   UNL     1       0.455  13.343  20.912  0.00  0.00    +0.000 C 
ATOM      5  C   UNL     1      -0.125  12.533  19.739  0.00  0.00    +0.000 C 
ATOM      6  N   UNL     1       0.938  11.838  19.008  0.00  0.00    +0.000 N 
ATOM      7  C   UNL     1       0.844  10.476  18.804  0.00  0.00    +0.000 C 
ATOM      8  O   UNL     1      -0.139   9.820  19.163  0.00  0.00    +0.000 OA
ATOM      9  C   UNL     1       2.080  12.680  18.627  0.00  0.00    +0.000 C 
ATOM     10  C   UNL     1       2.602  13.477  19.841  0.00  0.00    +0.000 C 
BRANCH   3  11
ATOM     11  C   UNL     1       1.110  15.377  19.660  0.00  0.00    +0.000 C 
BRANCH  11  12
ATOM     12  C   UNL     1       1.859  16.708  19.879  0.00  0.00    +0.000 C 
BRANCH  12  13
ATOM     13  N   UNL     1       2.138  17.470  18.641  0.00  0.00    +0.000 NA
BRANCH  13  15
ATOM     14  C   UNL     1       4.392  16.365  18.311  0.00  0.00    +0.000 C 
ATOM     15  C   UNL     1       2.996  16.645  17.770  0.00  0.00    +0.000 C 
ENDBRANCH  13  15
BRANCH  13  16
ATOM     16  C   UNL     1       0.933  17.992  17.981  0.00  0.00    +0.000 C 
ATOM     17  C   UNL     1       1.082  18.356  16.507  0.00  0.00    +0.000 C 
ENDBRANCH  13  16
ENDBRANCH  12  13
ENDBRANCH  11  12
ENDBRANCH   3  11
ENDBRANCH   2   7
ENDBRANCH   1   2
BRANCH   1  18
ATOM     18  C   UNL     1       3.140   7.793  17.637  0.00  0.00    +0.000 C 
BRANCH  18  19
ATOM     19  C   UNL     1       3.148   6.284  17.920  0.00  0.00    +0.000 C 
BRANCH  19  20
ATOM     20  N   UNL     1       3.767   5.958  19.253  0.00  0.00    +0.000 NA
ATOM     21  C   UNL     1       2.737   5.404  20.193  0.00  0.00    +0.000 C 
BRANCH  20  22
ATOM     22  S   UNL     1       5.142   4.891  19.145  0.00  0.00    +0.000 S 
ATOM     23  O   UNL     1       6.253   5.537  19.798  0.00  0.00    +0.000 OA
ATOM     24  O   UNL     1       4.655   3.609  19.633  0.00  0.00    +0.000 OA
BRANCH  22  25
ATOM     25  C   UNL     1       5.577   4.757  17.385  0.00  0.00    +0.000 A 
ATOM     26  C   UNL     1       6.621   5.565  16.851  0.00  0.00    +0.000 A 
ATOM     27  C   UNL     1       7.392   6.608  17.615  0.00  0.00    +0.000 C 
ATOM     28  C   UNL     1       7.041   5.378  15.504  0.00  0.00    +0.000 A 
ATOM     29  C   UNL     1       6.448   4.428  14.686  0.00  0.00    +0.000 A 
ATOM     30  C   UNL     1       5.448   3.626  15.221  0.00  0.00    +0.000 A 
ATOM     31  C   UNL     1       5.007   3.753  16.557  0.00  0.00    +0.000 A 
ATOM     32  C   UNL     1       3.930   2.780  16.959  0.00  0.00    +0.000 C 
BRANCH  29  33
ATOM     33  O   UNL     1       6.737   4.164  13.377  0.00  0.00    +0.000 OA
ATOM     34  C   UNL     1       5.738   3.532  12.592  0.00  0.00    +0.000 C 
ENDBRANCH  29  33
ENDBRANCH  22  25
ENDBRANCH  20  22
ENDBRANCH  19  20
ENDBRANCH  18  19
ENDBRANCH   1  18
TORSDOF 13
ENDMDL
MODEL 2
REMARK VINA RESULT:      -6.5      3.095      4.782
REMARK  Name = 
REMARK  19 active torsions:
REMARK  status: ('A' for Active; 'I' for Inactive)
REMARK    1  A    between atoms: C_1  and  C_2
REMARK    2  A    between atoms: C_2  and  N_3
REMARK    3  A    between atoms: N_3  and  C_4
REMARK    4  A    between atoms: N_3  and  C_6
REMARK    5  A    between atoms: C_4  and  C_5
REMARK    6  A    between atoms: C_6  and  C_7
REMARK    7  A    between atoms: C_7  and  N_8
REMARK    8  A    between atoms: C_12  and  C_14
REMARK    9  A    between atoms: C_14  and  O_15
REMARK   10  A    between atoms: O_15  and  C_16
REMARK   11  A    between atoms: C_16  and  C_17
REMARK   12  A    between atoms: C_17  and  N_18
REMARK   13  A    between atoms: N_18  and  C_19
REMARK   14  A    between atoms: N_18  and  S_20
REMARK   15  A    between atoms: S_20  and  C_23
REMARK   16  A    between atoms: C_24  and  C_25
REMARK   17  A    between atoms: C_27  and  O_28
REMARK   18  A    between atoms: O_28  and  C_29
REMARK   19  A    between atoms: C_31  and  C_32
REMARK                            x       y       z     vdW  Elec       q    Type
REMARK                         _______ _______ _______ _____ _____    ______ ____
ROOT
ATOM      1  O   UNL     1       1.931   8.084  18.855  0.00  0.00    +0.000 OA
ENDROOT
BRANCH   1   2
ATOM      2  C   UNL     1       1.819   9.119  17.880  0.00  0.00    +0.000 C 
BRANCH   2   7
ATOM      3  N   UNL     1      -2.649  11.627  17.443  0.00  0.00    +0.000 NA
ATOM      4  C   UNL     1      -1.593  12.515  17.987  0.00  0.00    +0.000 C 
ATOM      5  C   UNL     1      -0.662  11.838  19.008  0.00  0.00    +0.000 C 
ATOM      6  N   UNL     1      -0.098  10.601  18.461  0.00  0.00    +0.000 N 
ATOM      7  C   UNL     1       1.271  10.420  18.461  0.00  0.00    +0.000 C 
ATOM      8  O   UNL     1       2.047  11.239  18.963  0.00  0.00    +0.000 OA
ATOM      9  C   UNL     1      -1.080   9.682  17.870  0.00  0.00    +0.000 C 
ATOM     10  C   UNL     1      -1.992  10.425  16.870  0.00  0.00    +0.000 C 
BRANCH   3  11
ATOM     11  C   UNL     1      -3.648  11.214  18.452  0.00  0.00    +0.000 C 
BRANCH  11  12
ATOM     12  C   UNL     1      -4.123  12.342  19.390  0.00  0.00    +0.000 C 
BRANCH  12  13
ATOM     13  N   UNL     1      -5.568  12.308  19.715  0.00  0.00    +0.000 NA
BRANCH  13  15
ATOM     14  C   UNL     1      -7.303  10.475  19.923  0.00  0.00    +0.000 C 
ATOM     15  C   UNL     1      -6.145  11.079  19.139  0.00  0.00    +0.000 C 
ENDBRANCH  13  15
BRANCH  13  16
ATOM     16  C   UNL     1      -5.859  12.499  21.143  0.00  0.00    +0.000 C 
ATOM     17  C   UNL     1      -4.675  12.884  22.022  0.00  0.00    +0.000 C 
ENDBRANCH  13  16
ENDBRANCH  12  13
ENDBRANCH  11  12
ENDBRANCH   3  11
ENDBRANCH   2   7
ENDBRANCH   1   2
BRANCH   1  18
ATOM     18  C   UNL     1       2.361   6.866  18.248  0.00  0.00    +0.000 C 
BRANCH  18  19
ATOM     19  C   UNL     1       3.865   6.655  18.475  0.00  0.00    +0.000 C 
BRANCH  19  20
ATOM     20  N   UNL     1       4.141   5.674  19.583  0.00  0.00    +0.000 NA
ATOM     21  C   UNL     1       2.919   4.858  19.884  0.00  0.00    +0.000 C 
BRANCH  20  22
ATOM     22  S   UNL     1       5.515   4.644  19.281  0.00  0.00    +0.000 S 
ATOM     23  O   UNL     1       6.661   5.238  19.922  0.00  0.00    +0.000 OA
ATOM     24  O   UNL     1       5.072   3.313  19.669  0.00  0.00    +0.000 OA
BRANCH  22  25
ATOM     25  C   UNL     1       5.834   4.691  17.492  0.00  0.00    +0.000 A 
ATOM     26  C   UNL     1       6.896   5.493  16.985  0.00  0.00    +0.000 A 
ATOM     27  C   UNL     1       7.778   6.393  17.808  0.00  0.00    +0.000 C 
ATOM     28  C   UNL     1       7.222   5.440  15.599  0.00  0.00    +0.000 A 
ATOM     29  C   UNL     1       6.520   4.629  14.721  0.00  0.00    +0.000 A 
ATOM     30  C   UNL     1       5.503   3.830  15.228  0.00  0.00    +0.000 A 
ATOM     31  C   UNL     1       5.151   3.826  16.596  0.00  0.00    +0.000 A 
ATOM     32  C   UNL     1       4.039   2.877  16.956  0.00  0.00    +0.000 C 
BRANCH  29  33
ATOM     33  O   UNL     1       6.713   4.503  13.375  0.00  0.00    +0.000 OA
ATOM     34  C   UNL     1       5.973   3.504  12.690  0.00  0.00    +0.000 C 
ENDBRANCH  29  33
ENDBRANCH  22  25
ENDBRANCH  20  22
ENDBRANCH  19  20
ENDBRANCH  18  19
ENDBRANCH   1  18
TORSDOF 13
ENDMDL
MODEL 3
REMARK VINA RESULT:      -6.4      2.623      4.032
REMARK  Name = 
REMARK  19 active torsions:
REMARK  status: ('A' for Active; 'I' for Inactive)
REMARK    1  A    between atoms: C_1  and  C_2
REMARK    2  A    between atoms: C_2  and  N_3
REMARK    3  A    between atoms: N_3  and  C_4
REMARK    4  A    between atoms: N_3  and  C_6
REMARK    5  A    between atoms: C_4  and  C_5
REMARK    6  A    between atoms: C_6  and  C_7
REMARK    7  A    between atoms: C_7  and  N_8
REMARK    8  A    between atoms: C_12  and  C_14
REMARK    9  A    between atoms: C_14  and  O_15
REMARK   10  A    between atoms: O_15  and  C_16
REMARK   11  A    between atoms: C_16  and  C_17
REMARK   12  A    between atoms: C_17  and  N_18
REMARK   13  A    between atoms: N_18  and  C_19
REMARK   14  A    between atoms: N_18  and  S_20
REMARK   15  A    between atoms: S_20  and  C_23
REMARK   16  A    between atoms: C_24  and  C_25
REMARK   17  A    between atoms: C_27  and  O_28
REMARK   18  A    between atoms: O_28  and  C_29
REMARK   19  A    between atoms: C_31  and  C_32
REMARK                            x       y       z     vdW  Elec       q    Type
REMARK                         _______ _______ _______ _____ _____    ______ ____
ROOT
ATOM      1  O   UNL     1       2.297   8.137  18.899  0.00  0.00    +0.000 OA
ENDROOT
BRANCH   1   2
ATOM      2  C   UNL     1       1.397   8.853  18.055  0.00  0.00    +0.000 C 
BRANCH   2   7
ATOM      3  N   UNL     1      -1.694  12.803  19.190  0.00  0.00    +0.000 NA
ATOM      4  C   UNL     1      -0.467  13.270  18.499  0.00  0.00    +0.000 C 
ATOM      5  C   UNL     1       0.821  12.554  18.943  0.00  0.00    +0.000 C 
ATOM      6  N   UNL     1       0.668  11.099  18.849  0.00  0.00    +0.000 N 
ATOM      7  C   UNL     1       1.592  10.364  18.132  0.00  0.00    +0.000 C 
ATOM      8  O   UNL     1       2.586  10.879  17.611  0.00  0.00    +0.000 OA
ATOM      9  C   UNL     1      -0.544  10.562  19.480  0.00  0.00    +0.000 C 
ATOM     10  C   UNL     1      -1.795  11.333  19.007  0.00  0.00    +0.000 C 
BRANCH   3  11
ATOM     11  C   UNL     1      -1.716  13.127  20.633  0.00  0.00    +0.000 C 
BRANCH  11  12
ATOM     12  C   UNL     1      -3.006  12.711  21.368  0.00  0.00    +0.000 C 
BRANCH  12  13
ATOM     13  N   UNL     1      -2.798  12.228  22.753  0.00  0.00    +0.000 NA
BRANCH  13  15
ATOM     14  C   UNL     1      -0.963  10.521  23.116  0.00  0.00    +0.000 C 
ATOM     15  C   UNL     1      -1.357  11.983  22.949  0.00  0.00    +0.000 C 
ENDBRANCH  13  15
BRANCH  13  16
ATOM     16  C   UNL     1      -3.409  13.085  23.778  0.00  0.00    +0.000 C 
ATOM     17  C   UNL     1      -2.551  14.238  24.286  0.00  0.00    +0.000 C 
ENDBRANCH  13  16
ENDBRANCH  12  13
ENDBRANCH  11  12
ENDBRANCH   3  11
ENDBRANCH   2   7
ENDBRANCH   1   2
BRANCH   1  18
ATOM     18  C   UNL     1       2.942   7.091  18.174  0.00  0.00    +0.000 C 
BRANCH  18  19
ATOM     19  C   UNL     1       2.432   5.720  18.641  0.00  0.00    +0.000 C 
BRANCH  19  20
ATOM     20  N   UNL     1       3.233   5.177  19.795  0.00  0.00    +0.000 NA
ATOM     21  C   UNL     1       2.329   4.777  20.923  0.00  0.00    +0.000 C 
BRANCH  20  22
ATOM     22  S   UNL     1       4.293   3.865  19.355  0.00  0.00    +0.000 S 
ATOM     23  O   UNL     1       5.232   3.677  20.433  0.00  0.00    +0.000 OA
ATOM     24  O   UNL     1       3.401   2.781  18.971  0.00  0.00    +0.000 OA
BRANCH  22  25
ATOM     25  C   UNL     1       5.255   4.414  17.914  0.00  0.00    +0.000 A 
ATOM     26  C   UNL     1       6.475   5.122  18.107  0.00  0.00    +0.000 A 
ATOM     27  C   UNL     1       7.042   5.535  19.440  0.00  0.00    +0.000 C 
ATOM     28  C   UNL     1       7.287   5.450  16.984  0.00  0.00    +0.000 A 
ATOM     29  C   UNL     1       6.914   5.104  15.695  0.00  0.00    +0.000 A 
ATOM     30  C   UNL     1       5.736   4.390  15.517  0.00  0.00    +0.000 A 
ATOM     31  C   UNL     1       4.902   4.020  16.596  0.00  0.00    +0.000 A 
ATOM     32  C   UNL     1       3.681   3.231  16.205  0.00  0.00    +0.000 C 
BRANCH  29  33
ATOM     33  O   UNL     1       7.584   5.376  14.536  0.00  0.00    +0.000 OA
ATOM     34  C   UNL     1       7.151   4.725  13.351  0.00  0.00    +0.000 C 
ENDBRANCH  29  33
ENDBRANCH  22  25
ENDBRANCH  20  22
ENDBRANCH  19  20
ENDBRANCH  18  19
ENDBRANCH   1  18
TORSDOF 13
ENDMDL
MODEL 4
REMARK VINA RESULT:      -6.4      2.433      3.448
REMARK  Name = 
REMARK  19 active torsions:
REMARK  status: ('A' for Active; 'I' for Inactive)
REMARK    1  A    between atoms: C_1  and  C_2
REMARK    2  A    between atoms: C_2  and  N_3
REMARK    3  A    between atoms: N_3  and  C_4
REMARK    4  A    between atoms: N_3  and  C_6
REMARK    5  A    between atoms: C_4  and  C_5
REMARK    6  A    between atoms: C_6  and  C_7
REMARK    7  A    between atoms: C_7  and  N_8
REMARK    8  A    between atoms: C_12  and  C_14
REMARK    9  A    between atoms: C_14  and  O_15
REMARK   10  A    between atoms: O_15  and  C_16
REMARK   11  A    between atoms: C_16  and  C_17
REMARK   12  A    between atoms: C_17  and  N_18
REMARK   13  A    between atoms: N_18  and  C_19
REMARK   14  A    between atoms: N_18  and  S_20
REMARK   15  A    between atoms: S_20  and  C_23
REMARK   16  A    between atoms: C_24  and  C_25
REMARK   17  A    between atoms: C_27  and  O_28
REMARK   18  A    between atoms: O_28  and  C_29
REMARK   19  A    between atoms: C_31  and  C_32
REMARK                            x       y       z     vdW  Elec       q    Type
REMARK                         _______ _______ _______ _____ _____    ______ ____
ROOT
ATOM      1  O   UNL     1       2.189   8.288  18.669  0.00  0.00    +0.000 OA
ENDROOT
BRANCH   1   2
ATOM      2  C   UNL     1       1.491   9.255  17.887  0.00  0.00    +0.000 C 
BRANCH   2   7
ATOM      3  N   UNL     1      -1.170  12.691  20.637  0.00  0.00    +0.000 NA
ATOM      4  C   UNL     1      -0.074  13.348  19.882  0.00  0.00    +0.000 C 
ATOM      5  C   UNL     1       1.243  12.553  19.858  0.00  0.00    +0.000 C 
ATOM      6  N   UNL     1       1.016  11.181  19.395  0.00  0.00    +0.000 N 
ATOM      7  C   UNL     1       1.760  10.687  18.341  0.00  0.00    +0.000 C 
ATOM      8  O   UNL     1       2.660  11.339  17.805  0.00  0.00    +0.000 OA
ATOM      9  C   UNL     1      -0.080  10.473  20.071  0.00  0.00    +0.000 C 
ATOM     10  C   UNL     1      -1.364  11.330  20.076  0.00  0.00    +0.000 C 
BRANCH   3  11
ATOM     11  C   UNL     1      -0.910  12.599  22.090  0.00  0.00    +0.000 C 
BRANCH  11  12
ATOM     12  C   UNL     1      -0.668  13.951  22.790  0.00  0.00    +0.000 C 
BRANCH  12  13
ATOM     13  N   UNL     1      -1.834  14.477  23.537  0.00  0.00    +0.000 NA
BRANCH  13  15
ATOM     14  C   UNL     1      -2.419  15.759  25.641  0.00  0.00    +0.000 C 
ATOM     15  C   UNL     1      -1.344  15.127  24.767  0.00  0.00    +0.000 C 
ENDBRANCH  13  15
BRANCH  13  16
ATOM     16  C   UNL     1      -2.729  15.314  22.727  0.00  0.00    +0.000 C 
ATOM     17  C   UNL     1      -2.055  16.205  21.689  0.00  0.00    +0.000 C 
ENDBRANCH  13  16
ENDBRANCH  12  13
ENDBRANCH  11  12
ENDBRANCH   3  11
ENDBRANCH   2   7
ENDBRANCH   1   2
BRANCH   1  18
ATOM     18  C   UNL     1       3.286   7.745  17.936  0.00  0.00    +0.000 C 
BRANCH  18  19
ATOM     19  C   UNL     1       3.293   6.213  18.036  0.00  0.00    +0.000 C 
BRANCH  19  20
ATOM     20  N   UNL     1       3.874   5.729  19.337  0.00  0.00    +0.000 NA
ATOM     21  C   UNL     1       2.857   4.942  20.110  0.00  0.00    +0.000 C 
BRANCH  20  22
ATOM     22  S   UNL     1       5.349   4.819  19.150  0.00  0.00    +0.000 S 
ATOM     23  O   UNL     1       6.410   5.564  19.781  0.00  0.00    +0.000 OA
ATOM     24  O   UNL     1       5.021   3.481  19.620  0.00  0.00    +0.000 OA
BRANCH  22  25
ATOM     25  C   UNL     1       5.728   4.774  17.372  0.00  0.00    +0.000 A 
ATOM     26  C   UNL     1       6.755   5.609  16.848  0.00  0.00    +0.000 A 
ATOM     27  C   UNL     1       7.551   6.612  17.639  0.00  0.00    +0.000 C 
ATOM     28  C   UNL     1       7.132   5.491  15.480  0.00  0.00    +0.000 A 
ATOM     29  C   UNL     1       6.513   4.584  14.634  0.00  0.00    +0.000 A 
ATOM     30  C   UNL     1       5.530   3.755  15.159  0.00  0.00    +0.000 A 
ATOM     31  C   UNL     1       5.131   3.814  16.513  0.00  0.00    +0.000 A 
ATOM     32  C   UNL     1       4.066   2.821  16.899  0.00  0.00    +0.000 C 
BRANCH  29  33
ATOM     33  O   UNL     1       6.760   4.387  13.305  0.00  0.00    +0.000 OA
ATOM     34  C   UNL     1       5.954   3.445  12.614  0.00  0.00    +0.000 C 
ENDBRANCH  29  33
ENDBRANCH  22  25
ENDBRANCH  20  22
ENDBRANCH  19  20
ENDBRANCH  18  19
ENDBRANCH   1  18
TORSDOF 13
ENDMDL
MODEL 5
REMARK VINA RESULT:      -6.3      1.137      2.017
REMARK  Name = 
REMARK  19 active torsions:
REMARK  status: ('A' for Active; 'I' for Inactive)
REMARK    1  A    between atoms: C_1  and  C_2
REMARK    2  A    between atoms: C_2  and  N_3
REMARK    3  A    between atoms: N_3  and  C_4
REMARK    4  A    between atoms: N_3  and  C_6
REMARK    5  A    between atoms: C_4  and  C_5
REMARK    6  A    between atoms: C_6  and  C_7
REMARK    7  A    between atoms: C_7  and  N_8
REMARK    8  A    between atoms: C_12  and  C_14
REMARK    9  A    between atoms: C_14  and  O_15
REMARK   10  A    between atoms: O_15  and  C_16
REMARK   11  A    between atoms: C_16  and  C_17
REMARK   12  A    between atoms: C_17  and  N_18
REMARK   13  A    between atoms: N_18  and  C_19
REMARK   14  A    between atoms: N_18  and  S_20
REMARK   15  A    between atoms: S_20  and  C_23
REMARK   16  A    between atoms: C_24  and  C_25
REMARK   17  A    between atoms: C_27  and  O_28
REMARK   18  A    between atoms: O_28  and  C_29
REMARK   19  A    between atoms: C_31  and  C_32
REMARK                            x       y       z     vdW  Elec       q    Type
REMARK                         _______ _______ _______ _____ _____    ______ ____
ROOT
ATOM      1  O   UNL     1       2.404   8.880  17.644  0.00  0.00    +0.000 OA
ENDROOT
BRANCH   1   2
ATOM      2  C   UNL     1       1.130   9.440  17.959  0.00  0.00    +0.000 C 
BRANCH   2   7
ATOM      3  N   UNL     1       2.145  14.176  19.687  0.00  0.00    +0.000 NA
ATOM      4  C   UNL     1       2.130  13.197  20.800  0.00  0.00    +0.000 C 
ATOM      5  C   UNL     1       1.014  12.141  20.699  0.00  0.00    +0.000 C 
ATOM      6  N   UNL     1       1.043  11.475  19.395  0.00  0.00    +0.000 N 
ATOM      7  C   UNL     1       1.099  10.096  19.337  0.00  0.00    +0.000 C 
ATOM      8  O   UNL     1       1.066   9.390  20.349  0.00  0.00    +0.000 OA
ATOM      9  C   UNL     1       1.095  12.380  18.238  0.00  0.00    +0.000 C 
ATOM     10  C   UNL     1       2.221  13.422  18.410  0.00  0.00    +0.000 C 
BRANCH   3  11
ATOM     11  C   UNL     1       0.964  15.066  19.669  0.00  0.00    +0.000 C 
BRANCH  11  12
ATOM     12  C   UNL     1       1.049  16.233  18.665  0.00  0.00    +0.000 C 
BRANCH  12  13
ATOM     13  N   UNL     1       0.170  17.383  18.978  0.00  0.00    +0.000 NA
BRANCH  13  15
ATOM     14  C   UNL     1       1.053  18.520  21.061  0.00  0.00    +0.000 C 
ATOM     15  C   UNL     1       1.000  18.464  19.540  0.00  0.00    +0.000 C 
ENDBRANCH  13  15
BRANCH  13  16
ATOM     16  C   UNL     1      -0.685  17.799  17.857  0.00  0.00    +0.000 C 
ATOM     17  C   UNL     1       0.040  18.281  16.606  0.00  0.00    +0.000 C 
ENDBRANCH  13  16
ENDBRANCH  12  13
ENDBRANCH  11  12
ENDBRANCH   3  11
ENDBRANCH   2   7
ENDBRANCH   1   2
BRANCH   1  18
ATOM     18  C   UNL     1       2.362   7.456  17.729  0.00  0.00    +0.000 C 
BRANCH  18  19
ATOM     19  C   UNL     1       3.766   6.892  17.992  0.00  0.00    +0.000 C 
BRANCH  19  20
ATOM     20  N   UNL     1       3.828   6.087  19.262  0.00  0.00    +0.000 NA
ATOM     21  C   UNL     1       2.464   5.590  19.640  0.00  0.00    +0.000 C 
BRANCH  20  22
ATOM     22  S   UNL     1       4.970   4.772  19.202  0.00  0.00    +0.000 S 
ATOM     23  O   UNL     1       6.128   5.158  19.969  0.00  0.00    +0.000 OA
ATOM     24  O   UNL     1       4.202   3.596  19.587  0.00  0.00    +0.000 OA
BRANCH  22  25
ATOM     25  C   UNL     1       5.516   4.615  17.475  0.00  0.00    +0.000 A 
ATOM     26  C   UNL     1       4.666   3.988  16.520  0.00  0.00    +0.000 A 
ATOM     27  C   UNL     1       3.332   3.358  16.821  0.00  0.00    +0.000 C 
ATOM     28  C   UNL     1       5.041   3.968  15.147  0.00  0.00    +0.000 A 
ATOM     29  C   UNL     1       6.226   4.540  14.711  0.00  0.00    +0.000 A 
ATOM     30  C   UNL     1       7.036   5.173  15.644  0.00  0.00    +0.000 A 
ATOM     31  C   UNL     1       6.705   5.241  17.016  0.00  0.00    +0.000 A 
ATOM     32  C   UNL     1       7.698   5.988  17.866  0.00  0.00    +0.000 C 
BRANCH  29  33
ATOM     33  O   UNL     1       6.712   4.570  13.435  0.00  0.00    +0.000 OA
ATOM     34  C   UNL     1       6.367   3.500  12.569  0.00  0.00    +0.000 C 
ENDBRANCH  29  33
ENDBRANCH  22  25
ENDBRANCH  20  22
ENDBRANCH  19  20
ENDBRANCH  18  19
ENDBRANCH   1  18
TORSDOF 13
ENDMDL
MODEL 6
REMARK VINA RESULT:      -6.3      0.851      1.027
REMARK  Name = 
REMARK  19 active torsions:
REMARK  status: ('A' for Active; 'I' for Inactive)
REMARK    1  A    between atoms: C_1  and  C_2
REMARK    2  A    between atoms: C_2  and  N_3
REMARK    3  A    between atoms: N_3  and  C_4
REMARK    4  A    between atoms: N_3  and  C_6
REMARK    5  A    between atoms: C_4  and  C_5
REMARK    6  A    between atoms: C_6  and  C_7
REMARK    7  A    between atoms: C_7  and  N_8
REMARK    8  A    between atoms: C_12  and  C_14
REMARK    9  A    between atoms: C_14  and  O_15
REMARK   10  A    between atoms: O_15  and  C_16
REMARK   11  A    between atoms: C_16  and  C_17
REMARK   12  A    between atoms: C_17  and  N_18
REMARK   13  A    between atoms: N_18  and  C_19
REMARK   14  A    between atoms: N_18  and  S_20
REMARK   15  A    between atoms: S_20  and  C_23
REMARK   16  A    between atoms: C_24  and  C_25
REMARK   17  A    between atoms: C_27  and  O_28
REMARK   18  A    between atoms: O_28  and  C_29
REMARK   19  A    between atoms: C_31  and  C_32
REMARK                            x       y       z     vdW  Elec       q    Type
REMARK                         _______ _______ _______ _____ _____    ______ ____
ROOT
ATOM      1  O   UNL     1       1.532   8.451  17.968  0.00  0.00    +0.000 OA
ENDROOT
BRANCH   1   2
ATOM      2  C   UNL     1       1.279   9.415  18.989  0.00  0.00    +0.000 C 
BRANCH   2   7
ATOM      3  N   UNL     1       0.577  14.382  20.121  0.00  0.00    +0.000 NA
ATOM      4  C   UNL     1      -0.646  13.796  19.521  0.00  0.00    +0.000 C 
ATOM      5  C   UNL     1      -0.378  12.831  18.353  0.00  0.00    +0.000 C 
ATOM      6  N   UNL     1       0.582  11.794  18.742  0.00  0.00    +0.000 N 
ATOM      7  C   UNL     1       0.253  10.464  18.568  0.00  0.00    +0.000 C 
ATOM      8  O   UNL     1      -0.803  10.107  18.038  0.00  0.00    +0.000 OA
ATOM      9  C   UNL     1       1.809  12.294  19.378  0.00  0.00    +0.000 C 
ATOM     10  C   UNL     1       1.471  13.268  20.527  0.00  0.00    +0.000 C 
BRANCH   3  11
ATOM     11  C   UNL     1       1.302  15.293  19.209  0.00  0.00    +0.000 C 
BRANCH  11  12
ATOM     12  C   UNL     1       2.588  15.908  19.798  0.00  0.00    +0.000 C 
BRANCH  12  13
ATOM     13  N   UNL     1       3.268  16.882  18.913  0.00  0.00    +0.000 NA
BRANCH  13  15
ATOM     14  C   UNL     1       5.652  16.031  18.923  0.00  0.00    +0.000 C 
ATOM     15  C   UNL     1       4.647  17.070  19.401  0.00  0.00    +0.000 C 
ENDBRANCH  13  15
BRANCH  13  16
ATOM     16  C   UNL     1       3.172  16.554  17.484  0.00  0.00    +0.000 C 
ATOM     17  C   UNL     1       2.388  17.537  16.622  0.00  0.00    +0.000 C 
ENDBRANCH  13  16
ENDBRANCH  12  13
ENDBRANCH  11  12
ENDBRANCH   3  11
ENDBRANCH   2   7
ENDBRANCH   1   2
BRANCH   1  18
ATOM     18  C   UNL     1       2.931   8.199  17.851  0.00  0.00    +0.000 C 
BRANCH  18  19
ATOM     19  C   UNL     1       3.208   6.688  17.856  0.00  0.00    +0.000 C 
BRANCH  19  20
ATOM     20  N   UNL     1       3.680   6.200  19.200  0.00  0.00    +0.000 NA
ATOM     21  C   UNL     1       2.528   5.675  20.005  0.00  0.00    +0.000 C 
BRANCH  20  22
ATOM     22  S   UNL     1       4.959   5.021  19.106  0.00  0.00    +0.000 S 
ATOM     23  O   UNL     1       6.090   5.538  19.836  0.00  0.00    +0.000 OA
ATOM     24  O   UNL     1       4.339   3.769  19.515  0.00  0.00    +0.000 OA
BRANCH  22  25
ATOM     25  C   UNL     1       5.466   4.918  17.363  0.00  0.00    +0.000 A 
ATOM     26  C   UNL     1       6.620   5.624  16.920  0.00  0.00    +0.000 A 
ATOM     27  C   UNL     1       7.464   6.536  17.771  0.00  0.00    +0.000 C 
ATOM     28  C   UNL     1       7.084   5.453  15.585  0.00  0.00    +0.000 A 
ATOM     29  C   UNL     1       6.431   4.616  14.693  0.00  0.00    +0.000 A 
ATOM     30  C   UNL     1       5.322   3.910  15.140  0.00  0.00    +0.000 A 
ATOM     31  C   UNL     1       4.830   4.026  16.459  0.00  0.00    +0.000 A 
ATOM     32  C   UNL     1       3.631   3.166  16.761  0.00  0.00    +0.000 C 
BRANCH  29  33
ATOM     33  O   UNL     1       6.755   4.381  13.387  0.00  0.00    +0.000 OA
ATOM     34  C   UNL     1       5.957   3.457  12.662  0.00  0.00    +0.000 C 
ENDBRANCH  29  33
ENDBRANCH  22  25
ENDBRANCH  20  22
ENDBRANCH  19  20
ENDBRANCH  18  19
ENDBRANCH   1  18
TORSDOF 13
ENDMDL
MODEL 7
REMARK VINA RESULT:      -6.3      2.953      3.764
REMARK  Name = 
REMARK  19 active torsions:
REMARK  status: ('A' for Active; 'I' for Inactive)
REMARK    1  A    between atoms: C_1  and  C_2
REMARK    2  A    between atoms: C_2  and  N_3
REMARK    3  A    between atoms: N_3  and  C_4
REMARK    4  A    between atoms: N_3  and  C_6
REMARK    5  A    between atoms: C_4  and  C_5
REMARK    6  A    between atoms: C_6  and  C_7
REMARK    7  A    between atoms: C_7  and  N_8
REMARK    8  A    between atoms: C_12  and  C_14
REMARK    9  A    between atoms: C_14  and  O_15
REMARK   10  A    between atoms: O_15  and  C_16
REMARK   11  A    between atoms: C_16  and  C_17
REMARK   12  A    between atoms: C_17  and  N_18
REMARK   13  A    between atoms: N_18  and  C_19
REMARK   14  A    between atoms: N_18  and  S_20
REMARK   15  A    between atoms: S_20  and  C_23
REMARK   16  A    between atoms: C_24  and  C_25
REMARK   17  A    between atoms: C_27  and  O_28
REMARK   18  A    between atoms: O_28  and  C_29
REMARK   19  A    between atoms: C_31  and  C_32
REMARK                            x       y       z     vdW  Elec       q    Type
REMARK                         _______ _______ _______ _____ _____    ______ ____
ROOT
ATOM      1  O   UNL     1       1.835   8.146  17.649  0.00  0.00    +0.000 OA
ENDROOT
BRANCH   1   2
ATOM      2  C   UNL     1       1.639   9.045  18.739  0.00  0.00    +0.000 C 
BRANCH   2   7
ATOM      3  N   UNL     1      -1.117  12.056  21.866  0.00  0.00    +0.000 NA
ATOM      4  C   UNL     1      -1.846  11.797  20.601  0.00  0.00    +0.000 C 
ATOM      5  C   UNL     1      -0.958  11.821  19.344  0.00  0.00    +0.000 C 
ATOM      6  N   UNL     1       0.191  10.925  19.498  0.00  0.00    +0.000 N 
ATOM      7  C   UNL     1       0.435   9.960  18.540  0.00  0.00    +0.000 C 
ATOM      8  O   UNL     1      -0.247   9.858  17.516  0.00  0.00    +0.000 OA
ATOM      9  C   UNL     1       0.946  11.096  20.747  0.00  0.00    +0.000 C 
ATOM     10  C   UNL     1      -0.002  11.080  21.965  0.00  0.00    +0.000 C 
BRANCH   3  11
ATOM     11  C   UNL     1      -0.583  13.432  21.967  0.00  0.00    +0.000 C 
BRANCH  11  12
ATOM     12  C   UNL     1      -1.647  14.545  21.880  0.00  0.00    +0.000 C 
BRANCH  12  13
ATOM     13  N   UNL     1      -2.303  14.875  23.166  0.00  0.00    +0.000 NA
BRANCH  13  15
ATOM     14  C   UNL     1      -4.806  15.004  22.813  0.00  0.00    +0.000 C 
ATOM     15  C   UNL     1      -3.598  14.173  23.222  0.00  0.00    +0.000 C 
ENDBRANCH  13  15
BRANCH  13  16
ATOM     16  C   UNL     1      -1.447  14.657  24.341  0.00  0.00    +0.000 C 
ATOM     17  C   UNL     1      -1.814  15.448  25.592  0.00  0.00    +0.000 C 
ENDBRANCH  13  16
ENDBRANCH  12  13
ENDBRANCH  11  12
ENDBRANCH   3  11
ENDBRANCH   2   7
ENDBRANCH   1   2
BRANCH   1  18
ATOM     18  C   UNL     1       2.137   6.836  18.125  0.00  0.00    +0.000 C 
BRANCH  18  19
ATOM     19  C   UNL     1       3.655   6.650  18.261  0.00  0.00    +0.000 C 
BRANCH  19  20
ATOM     20  N   UNL     1       4.022   5.818  19.461  0.00  0.00    +0.000 NA
ATOM     21  C   UNL     1       2.841   5.023  19.934  0.00  0.00    +0.000 C 
BRANCH  20  22
ATOM     22  S   UNL     1       5.400   4.783  19.200  0.00  0.00    +0.000 S 
ATOM     23  O   UNL     1       6.536   5.388  19.851  0.00  0.00    +0.000 OA
ATOM     24  O   UNL     1       4.950   3.459  19.604  0.00  0.00    +0.000 OA
BRANCH  22  25
ATOM     25  C   UNL     1       5.751   4.799  17.416  0.00  0.00    +0.000 A 
ATOM     26  C   UNL     1       6.790   5.629  16.908  0.00  0.00    +0.000 A 
ATOM     27  C   UNL     1       7.622   6.582  17.724  0.00  0.00    +0.000 C 
ATOM     28  C   UNL     1       7.143   5.556  15.530  0.00  0.00    +0.000 A 
ATOM     29  C   UNL     1       6.489   4.697  14.660  0.00  0.00    +0.000 A 
ATOM     30  C   UNL     1       5.495   3.872  15.169  0.00  0.00    +0.000 A 
ATOM     31  C   UNL     1       5.118   3.887  16.530  0.00  0.00    +0.000 A 
ATOM     32  C   UNL     1       4.036   2.906  16.894  0.00  0.00    +0.000 C 
BRANCH  29  33
ATOM     33  O   UNL     1       6.712   4.547  13.321  0.00  0.00    +0.000 OA
ATOM     34  C   UNL     1       6.120   3.431  12.672  0.00  0.00    +0.000 C 
ENDBRANCH  29  33
ENDBRANCH  22  25
ENDBRANCH  20  22
ENDBRANCH  19  20
ENDBRANCH  18  19
ENDBRANCH   1  18
TORSDOF 13
ENDMDL
MODEL 8
REMARK VINA RESULT:      -6.2      4.237     11.188
REMARK  Name = 
REMARK  19 active torsions:
REMARK  status: ('A' for Active; 'I' for Inactive)
REMARK    1  A    between atoms: C_1  and  C_2
REMARK    2  A    between atoms: C_2  and  N_3
REMARK    3  A    between atoms: N_3  and  C_4
REMARK    4  A    between atoms: N_3  and  C_6
REMARK    5  A    between atoms: C_4  and  C_5
REMARK    6  A    between atoms: C_6  and  C_7
REMARK    7  A    between atoms: C_7  and  N_8
REMARK    8  A    between atoms: C_12  and  C_14
REMARK    9  A    between atoms: C_14  and  O_15
REMARK   10  A    between atoms: O_15  and  C_16
REMARK   11  A    between atoms: C_16  and  C_17
REMARK   12  A    between atoms: C_17  and  N_18
REMARK   13  A    between atoms: N_18  and  C_19
REMARK   14  A    between atoms: N_18  and  S_20
REMARK   15  A    between atoms: S_20  and  C_23
REMARK   16  A    between atoms: C_24  and  C_25
REMARK   17  A    between atoms: C_27  and  O_28
REMARK   18  A    between atoms: O_28  and  C_29
REMARK   19  A    between atoms: C_31  and  C_32
REMARK                            x       y       z     vdW  Elec       q    Type
REMARK                         _______ _______ _______ _____ _____    ______ ____
ROOT
ATOM      1  O   UNL     1       2.383   9.727  18.211  0.00  0.00    +0.000 OA
ENDROOT
BRANCH   1   2
ATOM      2  C   UNL     1       1.648   8.504  18.212  0.00  0.00    +0.000 C 
BRANCH   2   7
ATOM      3  N   UNL     1       3.078   3.591  18.725  0.00  0.00    +0.000 NA
ATOM      4  C   UNL     1       2.595   4.141  20.015  0.00  0.00    +0.000 C 
ATOM      5  C   UNL     1       3.048   5.585  20.295  0.00  0.00    +0.000 C 
ATOM      6  N   UNL     1       2.710   6.465  19.173  0.00  0.00    +0.000 N 
ATOM      7  C   UNL     1       1.982   7.616  19.407  0.00  0.00    +0.000 C 
ATOM      8  O   UNL     1       1.651   7.970  20.543  0.00  0.00    +0.000 OA
ATOM      9  C   UNL     1       3.124   5.972  17.853  0.00  0.00    +0.000 C 
ATOM     10  C   UNL     1       2.655   4.516  17.642  0.00  0.00    +0.000 C 
BRANCH   3  11
ATOM     11  C   UNL     1       4.544   3.405  18.676  0.00  0.00    +0.000 C 
BRANCH  11  12
ATOM     12  C   UNL     1       5.194   3.746  17.319  0.00  0.00    +0.000 C 
BRANCH  12  13
ATOM     13  N   UNL     1       6.433   4.551  17.413  0.00  0.00    +0.000 NA
BRANCH  13  15
ATOM     14  C   UNL     1       5.817   4.759  14.966  0.00  0.00    +0.000 C 
ATOM     15  C   UNL     1       6.596   5.304  16.156  0.00  0.00    +0.000 C 
ENDBRANCH  13  15
BRANCH  13  16
ATOM     16  C   UNL     1       6.514   5.377  18.626  0.00  0.00    +0.000 C 
ATOM     17  C   UNL     1       7.916   5.775  19.073  0.00  0.00    +0.000 C 
ENDBRANCH  13  16
ENDBRANCH  12  13
ENDBRANCH  11  12
ENDBRANCH   3  11
ENDBRANCH   2   7
ENDBRANCH   1   2
BRANCH   1  18
ATOM     18  C   UNL     1       1.546  10.817  18.590  0.00  0.00    +0.000 C 
BRANCH  18  19
ATOM     19  C   UNL     1       0.067  10.453  18.392  0.00  0.00    +0.000 C 
BRANCH  19  20
ATOM     20  N   UNL     1      -0.795  10.929  19.531  0.00  0.00    +0.000 NA
ATOM     21  C   UNL     1      -0.038  10.874  20.825  0.00  0.00    +0.000 C 
BRANCH  20  22
ATOM     22  S   UNL     1      -1.474  12.515  19.279  0.00  0.00    +0.000 S 
ATOM     23  O   UNL     1      -0.964  13.382  20.312  0.00  0.00    +0.000 OA
ATOM     24  O   UNL     1      -1.207  12.814  17.880  0.00  0.00    +0.000 OA
BRANCH  22  25
ATOM     25  C   UNL     1      -3.267  12.378  19.551  0.00  0.00    +0.000 A 
ATOM     26  C   UNL     1      -4.083  11.747  18.570  0.00  0.00    +0.000 A 
ATOM     27  C   UNL     1      -3.601  11.214  17.246  0.00  0.00    +0.000 C 
ATOM     28  C   UNL     1      -5.467  11.535  18.832  0.00  0.00    +0.000 A 
ATOM     29  C   UNL     1      -6.048  11.939  20.024  0.00  0.00    +0.000 A 
ATOM     30  C   UNL     1      -5.239  12.530  20.986  0.00  0.00    +0.000 A 
ATOM     31  C   UNL     1      -3.857  12.746  20.788  0.00  0.00    +0.000 A 
ATOM     32  C   UNL     1      -3.146  13.379  21.955  0.00  0.00    +0.000 C 
BRANCH  29  33
ATOM     33  O   UNL     1      -7.358  11.819  20.391  0.00  0.00    +0.000 OA
ATOM     34  C   UNL     1      -7.670  11.908  21.772  0.00  0.00    +0.000 C 
ENDBRANCH  29  33
ENDBRANCH  22  25
ENDBRANCH  20  22
ENDBRANCH  19  20
ENDBRANCH  18  19
ENDBRANCH   1  18
TORSDOF 13
ENDMDL
MODEL 9
REMARK VINA RESULT:      -6.2      2.939      4.126
REMARK  Name = 
REMARK  19 active torsions:
REMARK  status: ('A' for Active; 'I' for Inactive)
REMARK    1  A    between atoms: C_1  and  C_2
REMARK    2  A    between atoms: C_2  and  N_3
REMARK    3  A    between atoms: N_3  and  C_4
REMARK    4  A    between atoms: N_3  and  C_6
REMARK    5  A    between atoms: C_4  and  C_5
REMARK    6  A    between atoms: C_6  and  C_7
REMARK    7  A    between atoms: C_7  and  N_8
REMARK    8  A    between atoms: C_12  and  C_14
REMARK    9  A    between atoms: C_14  and  O_15
REMARK   10  A    between atoms: O_15  and  C_16
REMARK   11  A    between atoms: C_16  and  C_17
REMARK   12  A    between atoms: C_17  and  N_18
REMARK   13  A    between atoms: N_18  and  C_19
REMARK   14  A    between atoms: N_18  and  S_20
REMARK   15  A    between atoms: S_20  and  C_23
REMARK   16  A    between atoms: C_24  and  C_25
REMARK   17  A    between atoms: C_27  and  O_28
REMARK   18  A    between atoms: O_28  and  C_29
REMARK   19  A    between atoms: C_31  and  C_32
REMARK                            x       y       z     vdW  Elec       q    Type
REMARK                         _______ _______ _______ _____ _____    ______ ____
ROOT
ATOM      1  O   UNL     1       1.791   7.920  18.878  0.00  0.00    +0.000 OA
ENDROOT
BRANCH   1   2
ATOM      2  C   UNL     1       1.380   9.286  18.843  0.00  0.00    +0.000 C 
BRANCH   2   7
ATOM      3  N   UNL     1      -1.796  13.096  20.198  0.00  0.00    +0.000 NA
ATOM      4  C   UNL     1      -1.065  12.570  21.376  0.00  0.00    +0.000 C 
ATOM      5  C   UNL     1      -0.910  11.039  21.392  0.00  0.00    +0.000 C 
ATOM      6  N   UNL     1      -0.326  10.560  20.137  0.00  0.00    +0.000 N 
ATOM      7  C   UNL     1       0.800   9.761  20.172  0.00  0.00    +0.000 C 
ATOM      8  O   UNL     1       1.307   9.380  21.231  0.00  0.00    +0.000 OA
ATOM      9  C   UNL     1      -0.975  11.067  18.920  0.00  0.00    +0.000 C 
ATOM     10  C   UNL     1      -1.115  12.603  18.974  0.00  0.00    +0.000 C 
BRANCH   3  11
ATOM     11  C   UNL     1      -3.222  12.704  20.166  0.00  0.00    +0.000 C 
BRANCH  11  12
ATOM     12  C   UNL     1      -3.972  12.884  21.501  0.00  0.00    +0.000 C 
BRANCH  12  13
ATOM     13  N   UNL     1      -4.976  13.972  21.504  0.00  0.00    +0.000 NA
BRANCH  13  15
ATOM     14  C   UNL     1      -4.993  16.492  21.254  0.00  0.00    +0.000 C 
ATOM     15  C   UNL     1      -4.381  15.155  20.856  0.00  0.00    +0.000 C 
ENDBRANCH  13  15
BRANCH  13  16
ATOM     16  C   UNL     1      -6.281  13.577  20.957  0.00  0.00    +0.000 C 
ATOM     17  C   UNL     1      -6.712  12.140  21.226  0.00  0.00    +0.000 C 
ENDBRANCH  13  16
ENDBRANCH  12  13
ENDBRANCH  11  12
ENDBRANCH   3  11
ENDBRANCH   2   7
ENDBRANCH   1   2
BRANCH   1  18
ATOM     18  C   UNL     1       3.007   7.743  18.154  0.00  0.00    +0.000 C 
BRANCH  18  19
ATOM     19  C   UNL     1       3.361   6.252  18.054  0.00  0.00    +0.000 C 
BRANCH  19  20
ATOM     20  N   UNL     1       3.918   5.711  19.344  0.00  0.00    +0.000 NA
ATOM     21  C   UNL     1       2.891   4.880  20.056  0.00  0.00    +0.000 C 
BRANCH  20  22
ATOM     22  S   UNL     1       5.404   4.822  19.147  0.00  0.00    +0.000 S 
ATOM     23  O   UNL     1       6.461   5.588  19.759  0.00  0.00    +0.000 OA
ATOM     24  O   UNL     1       5.102   3.482  19.631  0.00  0.00    +0.000 OA
BRANCH  22  25
ATOM     25  C   UNL     1       5.763   4.768  17.365  0.00  0.00    +0.000 A 
ATOM     26  C   UNL     1       6.769   5.616  16.822  0.00  0.00    +0.000 A 
ATOM     27  C   UNL     1       7.556   6.641  17.595  0.00  0.00    +0.000 C 
ATOM     28  C   UNL     1       7.131   5.493  15.450  0.00  0.00    +0.000 A 
ATOM     29  C   UNL     1       6.519   4.567  14.619  0.00  0.00    +0.000 A 
ATOM     30  C   UNL     1       5.557   3.726  15.164  0.00  0.00    +0.000 A 
ATOM     31  C   UNL     1       5.173   3.790  16.522  0.00  0.00    +0.000 A 
ATOM     32  C   UNL     1       4.131   2.781  16.928  0.00  0.00    +0.000 C 
BRANCH  29  33
ATOM     33  O   UNL     1       6.754   4.363  13.290  0.00  0.00    +0.000 OA
ATOM     34  C   UNL     1       5.890   3.479  12.592  0.00  0.00    +0.000 C 
ENDBRANCH  29  33
ENDBRANCH  22  25
ENDBRANCH  20  22
ENDBRANCH  19  20
ENDBRANCH  18  19
ENDBRANCH   1  18
TORSDOF 13
ENDMDL
