MODEL 1
REMARK VINA RESULT:      -9.6      0.000      0.000
REMARK  Name = 
REMARK  10 active torsions:
REMARK  status: ('A' for Active; 'I' for Inactive)
REMARK    1  A    between atoms: C_1  and  C_2
REMARK    2  A    between atoms: C_5  and  C_6
REMARK    3  A    between atoms: C_7  and  N_8
REMARK    4  A    between atoms: C_16  and  N_17
REMARK    5  A    between atoms: N_17  and  S_18
REMARK    6  A    between atoms: S_18  and  C_21
REMARK    7  A    between atoms: C_24  and  C_25
REMARK    8  A    between atoms: C_25  and  C_26
REMARK    9  A    between atoms: C_25  and  C_27
REMARK   10  A    between atoms: C_25  and  C_28
REMARK                            x       y       z     vdW  Elec       q    Type
REMARK                         _______ _______ _______ _____ _____    ______ ____
ROOT
ATOM      1  N   UNL     1       4.492   4.944  17.153  0.00  0.00    +0.000 N 
ATOM      2  C   UNL     1       3.807   3.917  17.763  0.00  0.00    +0.000 C 
ATOM      3  O   UNL     1       3.786   2.730  17.506  0.00  0.00    +0.000 OA
ATOM      4  C   UNL     1       2.929   4.531  18.768  0.00  0.00    +0.000 A 
ATOM      5  C   UNL     1       2.067   3.973  19.697  0.00  0.00    +0.000 A 
ATOM      6 CL   UNL     1       1.825   2.281  19.863  0.00  0.00    +0.000 Cl
ATOM      7  C   UNL     1       1.370   4.839  20.546  0.00  0.00    +0.000 A 
ATOM      8  C   UNL     1       1.535   6.232  20.451  0.00  0.00    +0.000 A 
ATOM      9  C   UNL     1       2.374   6.784  19.479  0.00  0.00    +0.000 A 
ATOM     10  C   UNL     1       3.062   5.906  18.651  0.00  0.00    +0.000 A 
ATOM     11  C   UNL     1       3.996   6.160  17.555  0.00  0.00    +0.000 C 
ATOM     12  O   UNL     1       4.204   7.286  17.139  0.00  0.00    +0.000 OA
ENDROOT
BRANCH   1  19
ATOM     13  C   UNL     1       5.560   3.500  12.535  0.00  0.00    +0.000 C 
ATOM     14  C   UNL     1       5.961   4.143  13.824  0.00  0.00    +0.000 A 
ATOM     15  C   UNL     1       7.218   4.690  14.004  0.00  0.00    +0.000 A 
ATOM     16  N   UNL     1       7.641   5.232  15.164  0.00  0.00    +0.000 NA
ATOM     17  C   UNL     1       6.777   5.269  16.217  0.00  0.00    +0.000 A 
ATOM     18  C   UNL     1       7.325   5.984  17.418  0.00  0.00    +0.000 C 
ATOM     19  C   UNL     1       5.462   4.787  16.125  0.00  0.00    +0.000 A 
ATOM     20  C   UNL     1       5.076   4.210  14.903  0.00  0.00    +0.000 A 
ENDBRANCH   1  19
BRANCH   9  21
ATOM     21  N   UNL     1       2.489   8.208  19.421  0.00  0.00    +0.000 N 
ATOM     22  H   UNL     1       2.566   8.703  20.309  0.00  0.00    +0.000 HD
BRANCH  21  23
ATOM     23  S   UNL     1       1.519   8.998  18.272  0.00  0.00    +0.000 S 
ATOM     24  O   UNL     1       2.374   9.923  17.553  0.00  0.00    +0.000 OA
ATOM     25  O   UNL     1       0.716   8.020  17.566  0.00  0.00    +0.000 OA
BRANCH  23  26
ATOM     26  C   UNL     1       0.426   9.969  19.307  0.00  0.00    +0.000 A 
ATOM     27  C   UNL     1       0.615   9.971  20.688  0.00  0.00    +0.000 A 
ATOM     28  C   UNL     1      -0.190  10.777  21.504  0.00  0.00    +0.000 A 
ATOM     29  C   UNL     1      -1.197  11.605  20.965  0.00  0.00    +0.000 A 
ATOM     30  C   UNL     1      -1.361  11.585  19.565  0.00  0.00    +0.000 A 
ATOM     31  C   UNL     1      -0.555  10.782  18.741  0.00  0.00    +0.000 A 
BRANCH  29  32
ATOM     32  C   UNL     1      -2.079  12.513  21.849  0.00  0.00    +0.000 C 
ATOM     33  C   UNL     1      -3.463  12.819  21.228  0.00  0.00    +0.000 C 
ATOM     34  C   UNL     1      -2.335  11.844  23.218  0.00  0.00    +0.000 C 
ATOM     35  C   UNL     1      -1.381  13.871  22.088  0.00  0.00    +0.000 C 
ENDBRANCH  29  32
ENDBRANCH  23  26
ENDBRANCH  21  23
ENDBRANCH   9  21
TORSDOF 5
ENDMDL
MODEL 2
REMARK VINA RESULT:      -9.4      0.266      1.111
REMARK  Name = 
REMARK  10 active torsions:
REMARK  status: ('A' for Active; 'I' for Inactive)
REMARK    1  A    between atoms: C_1  and  C_2
REMARK    2  A    between atoms: C_5  and  C_6
REMARK    3  A    between atoms: C_7  and  N_8
REMARK    4  A    between atoms: C_16  and  N_17
REMARK    5  A    between atoms: N_17  and  S_18
REMARK    6  A    between atoms: S_18  and  C_21
REMARK    7  A    between atoms: C_24  and  C_25
REMARK    8  A    between atoms: C_25  and  C_26
REMARK    9  A    between atoms: C_25  and  C_27
REMARK   10  A    between atoms: C_25  and  C_28
REMARK                            x       y       z     vdW  Elec       q    Type
REMARK                         _______ _______ _______ _____ _____    ______ ____
ROOT
ATOM      1  N   UNL     1       4.461   4.787  17.234  0.00  0.00    +0.000 N 
ATOM      2  C   UNL     1       3.730   3.792  17.842  0.00  0.00    +0.000 C 
ATOM      3  O   UNL     1       3.671   2.603  17.596  0.00  0.00    +0.000 OA
ATOM      4  C   UNL     1       2.859   4.447  18.825  0.00  0.00    +0.000 A 
ATOM      5  C   UNL     1       1.962   3.930  19.746  0.00  0.00    +0.000 A 
ATOM      6 CL   UNL     1       1.657   2.249  19.925  0.00  0.00    +0.000 Cl
ATOM      7  C   UNL     1       1.282   4.828  20.575  0.00  0.00    +0.000 A 
ATOM      8  C   UNL     1       1.498   6.214  20.468  0.00  0.00    +0.000 A 
ATOM      9  C   UNL     1       2.373   6.726  19.505  0.00  0.00    +0.000 A 
ATOM     10  C   UNL     1       3.042   5.815  18.698  0.00  0.00    +0.000 A 
ATOM     11  C   UNL     1       4.002   6.024  17.614  0.00  0.00    +0.000 C 
ATOM     12  O   UNL     1       4.257   7.138  17.191  0.00  0.00    +0.000 OA
ENDROOT
BRANCH   1  19
ATOM     13  C   UNL     1       5.508   3.624  12.532  0.00  0.00    +0.000 C 
ATOM     14  C   UNL     1       5.941   4.085  13.887  0.00  0.00    +0.000 A 
ATOM     15  C   UNL     1       7.254   4.427  14.153  0.00  0.00    +0.000 A 
ATOM     16  N   UNL     1       7.699   4.797  15.371  0.00  0.00    +0.000 NA
ATOM     17  C   UNL     1       6.807   4.864  16.398  0.00  0.00    +0.000 A 
ATOM     18  C   UNL     1       7.399   5.382  17.676  0.00  0.00    +0.000 C 
ATOM     19  C   UNL     1       5.442   4.586  16.223  0.00  0.00    +0.000 A 
ATOM     20  C   UNL     1       5.030   4.181  14.942  0.00  0.00    +0.000 A 
ENDBRANCH   1  19
BRANCH   9  21
ATOM     21  N   UNL     1       2.538   8.144  19.435  0.00  0.00    +0.000 N 
ATOM     22  H   UNL     1       2.654   8.641  20.318  0.00  0.00    +0.000 HD
BRANCH  21  23
ATOM     23  S   UNL     1       1.574   8.963  18.302  0.00  0.00    +0.000 S 
ATOM     24  O   UNL     1       2.455   9.812  17.524  0.00  0.00    +0.000 OA
ATOM     25  O   UNL     1       0.683   8.019  17.657  0.00  0.00    +0.000 OA
BRANCH  23  26
ATOM     26  C   UNL     1       0.587  10.029  19.350  0.00  0.00    +0.000 A 
ATOM     27  C   UNL     1      -0.045  11.140  18.794  0.00  0.00    +0.000 A 
ATOM     28  C   UNL     1      -0.873  11.945  19.587  0.00  0.00    +0.000 A 
ATOM     29  C   UNL     1      -1.097  11.660  20.951  0.00  0.00    +0.000 A 
ATOM     30  C   UNL     1      -0.449  10.528  21.483  0.00  0.00    +0.000 A 
ATOM     31  C   UNL     1       0.381   9.715  20.693  0.00  0.00    +0.000 A 
BRANCH  29  32
ATOM     32  C   UNL     1      -2.023  12.526  21.833  0.00  0.00    +0.000 C 
ATOM     33  C   UNL     1      -2.366  11.871  23.192  0.00  0.00    +0.000 C 
ATOM     34  C   UNL     1      -1.352  13.884  22.142  0.00  0.00    +0.000 C 
ATOM     35  C   UNL     1      -3.361  12.792  21.109  0.00  0.00    +0.000 C 
ENDBRANCH  29  32
ENDBRANCH  23  26
ENDBRANCH  21  23
ENDBRANCH   9  21
TORSDOF 5
ENDMDL
MODEL 3
REMARK VINA RESULT:      -9.1      3.957     10.810
REMARK  Name = 
REMARK  10 active torsions:
REMARK  status: ('A' for Active; 'I' for Inactive)
REMARK    1  A    between atoms: C_1  and  C_2
REMARK    2  A    between atoms: C_5  and  C_6
REMARK    3  A    between atoms: C_7  and  N_8
REMARK    4  A    between atoms: C_16  and  N_17
REMARK    5  A    between atoms: N_17  and  S_18
REMARK    6  A    between atoms: S_18  and  C_21
REMARK    7  A    between atoms: C_24  and  C_25
REMARK    8  A    between atoms: C_25  and  C_26
REMARK    9  A    between atoms: C_25  and  C_27
REMARK   10  A    between atoms: C_25  and  C_28
REMARK                            x       y       z     vdW  Elec       q    Type
REMARK                         _______ _______ _______ _____ _____    ______ ____
ROOT
ATOM      1  N   UNL     1      -2.164  13.150  21.443  0.00  0.00    +0.000 N 
ATOM      2  C   UNL     1      -3.035  12.899  20.408  0.00  0.00    +0.000 C 
ATOM      3  O   UNL     1      -4.173  13.289  20.230  0.00  0.00    +0.000 OA
ATOM      4  C   UNL     1      -2.390  11.903  19.542  0.00  0.00    +0.000 A 
ATOM      5  C   UNL     1      -2.786  11.334  18.344  0.00  0.00    +0.000 A 
ATOM      6 CL   UNL     1      -4.268  11.713  17.563  0.00  0.00    +0.000 Cl
ATOM      7  C   UNL     1      -1.925  10.411  17.740  0.00  0.00    +0.000 A 
ATOM      8  C   UNL     1      -0.700  10.068  18.339  0.00  0.00    +0.000 A 
ATOM      9  C   UNL     1      -0.331  10.617  19.571  0.00  0.00    +0.000 A 
ATOM     10  C   UNL     1      -1.198  11.536  20.149  0.00  0.00    +0.000 A 
ATOM     11  C   UNL     1      -1.108  12.273  21.408  0.00  0.00    +0.000 C 
ATOM     12  O   UNL     1      -0.224  12.051  22.218  0.00  0.00    +0.000 OA
ENDROOT
BRANCH   1  19
ATOM     13  C   UNL     1      -1.889  17.796  23.143  0.00  0.00    +0.000 C 
ATOM     14  C   UNL     1      -2.323  16.374  23.303  0.00  0.00    +0.000 A 
ATOM     15  C   UNL     1      -3.038  15.953  24.409  0.00  0.00    +0.000 A 
ATOM     16  N   UNL     1      -3.404  14.672  24.621  0.00  0.00    +0.000 NA
ATOM     17  C   UNL     1      -3.075  13.738  23.686  0.00  0.00    +0.000 A 
ATOM     18  C   UNL     1      -3.621  12.372  23.983  0.00  0.00    +0.000 C 
ATOM     19  C   UNL     1      -2.393  14.069  22.504  0.00  0.00    +0.000 A 
ATOM     20  C   UNL     1      -2.012  15.412  22.340  0.00  0.00    +0.000 A 
ENDBRANCH   1  19
BRANCH   9  21
ATOM     21  N   UNL     1       0.919  10.217  20.137  0.00  0.00    +0.000 N 
ATOM     22  H   UNL     1       1.726  10.204  19.514  0.00  0.00    +0.000 HD
BRANCH  21  23
ATOM     23  S   UNL     1       0.873   8.923  21.235  0.00  0.00    +0.000 S 
ATOM     24  O   UNL     1       1.728   9.278  22.352  0.00  0.00    +0.000 OA
ATOM     25  O   UNL     1      -0.504   8.520  21.446  0.00  0.00    +0.000 OA
BRANCH  23  26
ATOM     26  C   UNL     1       1.696   7.623  20.319  0.00  0.00    +0.000 A 
ATOM     27  C   UNL     1       1.684   6.322  20.817  0.00  0.00    +0.000 A 
ATOM     28  C   UNL     1       2.267   5.283  20.079  0.00  0.00    +0.000 A 
ATOM     29  C   UNL     1       2.871   5.513  18.825  0.00  0.00    +0.000 A 
ATOM     30  C   UNL     1       2.863   6.839  18.345  0.00  0.00    +0.000 A 
ATOM     31  C   UNL     1       2.278   7.885  19.079  0.00  0.00    +0.000 A 
BRANCH  29  32
ATOM     32  C   UNL     1       3.500   4.377  17.990  0.00  0.00    +0.000 C 
ATOM     33  C   UNL     1       4.416   4.884  16.852  0.00  0.00    +0.000 C 
ATOM     34  C   UNL     1       4.361   3.464  18.892  0.00  0.00    +0.000 C 
ATOM     35  C   UNL     1       2.396   3.519  17.334  0.00  0.00    +0.000 C 
ENDBRANCH  29  32
ENDBRANCH  23  26
ENDBRANCH  21  23
ENDBRANCH   9  21
TORSDOF 5
ENDMDL
MODEL 4
REMARK VINA RESULT:      -8.8      2.587      3.084
REMARK  Name = 
REMARK  10 active torsions:
REMARK  status: ('A' for Active; 'I' for Inactive)
REMARK    1  A    between atoms: C_1  and  C_2
REMARK    2  A    between atoms: C_5  and  C_6
REMARK    3  A    between atoms: C_7  and  N_8
REMARK    4  A    between atoms: C_16  and  N_17
REMARK    5  A    between atoms: N_17  and  S_18
REMARK    6  A    between atoms: S_18  and  C_21
REMARK    7  A    between atoms: C_24  and  C_25
REMARK    8  A    between atoms: C_25  and  C_26
REMARK    9  A    between atoms: C_25  and  C_27
REMARK   10  A    between atoms: C_25  and  C_28
REMARK                            x       y       z     vdW  Elec       q    Type
REMARK                         _______ _______ _______ _____ _____    ______ ____
ROOT
ATOM      1  N   UNL     1       4.458   5.638  17.420  0.00  0.00    +0.000 N 
ATOM      2  C   UNL     1       3.957   4.788  18.378  0.00  0.00    +0.000 C 
ATOM      3  O   UNL     1       4.103   3.589  18.514  0.00  0.00    +0.000 OA
ATOM      4  C   UNL     1       3.036   5.577  19.206  0.00  0.00    +0.000 A 
ATOM      5  C   UNL     1       2.302   5.247  20.333  0.00  0.00    +0.000 A 
ATOM      6 CL   UNL     1       2.320   3.686  21.048  0.00  0.00    +0.000 Cl
ATOM      7  C   UNL     1       1.516   6.245  20.919  0.00  0.00    +0.000 A 
ATOM      8  C   UNL     1       1.468   7.540  20.373  0.00  0.00    +0.000 A 
ATOM      9  C   UNL     1       2.179   7.849  19.209  0.00  0.00    +0.000 A 
ATOM     10  C   UNL     1       2.958   6.845  18.649  0.00  0.00    +0.000 A 
ATOM     11  C   UNL     1       3.803   6.844  17.454  0.00  0.00    +0.000 C 
ATOM     12  O   UNL     1       3.824   7.791  16.686  0.00  0.00    +0.000 OA
ENDROOT
BRANCH   1  19
ATOM     13  C   UNL     1       5.363   3.532  13.027  0.00  0.00    +0.000 C 
ATOM     14  C   UNL     1       5.824   4.309  14.219  0.00  0.00    +0.000 A 
ATOM     15  C   UNL     1       7.118   4.784  14.320  0.00  0.00    +0.000 A 
ATOM     16  N   UNL     1       7.593   5.443  15.397  0.00  0.00    +0.000 NA
ATOM     17  C   UNL     1       6.748   5.678  16.440  0.00  0.00    +0.000 A 
ATOM     18  C   UNL     1       7.360   6.504  17.534  0.00  0.00    +0.000 C 
ATOM     19  C   UNL     1       5.401   5.281  16.417  0.00  0.00    +0.000 A 
ATOM     20  C   UNL     1       4.961   4.577  15.283  0.00  0.00    +0.000 A 
ENDBRANCH   1  19
BRANCH   9  21
ATOM     21  N   UNL     1       2.078   9.178  18.693  0.00  0.00    +0.000 N 
ATOM     22  H   UNL     1       2.889   9.784  18.813  0.00  0.00    +0.000 HD
BRANCH  21  23
ATOM     23  S   UNL     1       0.589   9.964  18.914  0.00  0.00    +0.000 S 
ATOM     24  O   UNL     1      -0.244   9.632  17.773  0.00  0.00    +0.000 OA
ATOM     25  O   UNL     1       0.124   9.742  20.269  0.00  0.00    +0.000 OA
BRANCH  23  26
ATOM     26  C   UNL     1       1.048  11.688  18.762  0.00  0.00    +0.000 A 
ATOM     27  C   UNL     1       0.172  12.672  19.218  0.00  0.00    +0.000 A 
ATOM     28  C   UNL     1       0.546  14.021  19.165  0.00  0.00    +0.000 A 
ATOM     29  C   UNL     1       1.802  14.424  18.664  0.00  0.00    +0.000 A 
ATOM     30  C   UNL     1       2.668  13.406  18.215  0.00  0.00    +0.000 A 
ATOM     31  C   UNL     1       2.301  12.051  18.267  0.00  0.00    +0.000 A 
BRANCH  29  32
ATOM     32  C   UNL     1       2.237  15.905  18.618  0.00  0.00    +0.000 C 
ATOM     33  C   UNL     1       3.226  16.220  17.473  0.00  0.00    +0.000 C 
ATOM     34  C   UNL     1       1.007  16.818  18.418  0.00  0.00    +0.000 C 
ATOM     35  C   UNL     1       2.933  16.301  19.939  0.00  0.00    +0.000 C 
ENDBRANCH  29  32
ENDBRANCH  23  26
ENDBRANCH  21  23
ENDBRANCH   9  21
TORSDOF 5
ENDMDL
MODEL 5
REMARK VINA RESULT:      -8.8      2.691      3.129
REMARK  Name = 
REMARK  10 active torsions:
REMARK  status: ('A' for Active; 'I' for Inactive)
REMARK    1  A    between atoms: C_1  and  C_2
REMARK    2  A    between atoms: C_5  and  C_6
REMARK    3  A    between atoms: C_7  and  N_8
REMARK    4  A    between atoms: C_16  and  N_17
REMARK    5  A    between atoms: N_17  and  S_18
REMARK    6  A    between atoms: S_18  and  C_21
REMARK    7  A    between atoms: C_24  and  C_25
REMARK    8  A    between atoms: C_25  and  C_26
REMARK    9  A    between atoms: C_25  and  C_27
REMARK   10  A    between atoms: C_25  and  C_28
REMARK                            x       y       z     vdW  Elec       q    Type
REMARK                         _______ _______ _______ _____ _____    ______ ____
ROOT
ATOM      1  N   UNL     1       4.450   5.532  17.625  0.00  0.00    +0.000 N 
ATOM      2  C   UNL     1       3.992   4.607  18.535  0.00  0.00    +0.000 C 
ATOM      3  O   UNL     1       4.198   3.411  18.607  0.00  0.00    +0.000 OA
ATOM      4  C   UNL     1       3.033   5.304  19.402  0.00  0.00    +0.000 A 
ATOM      5  C   UNL     1       2.317   4.877  20.508  0.00  0.00    +0.000 A 
ATOM      6 CL   UNL     1       2.413   3.282  21.137  0.00  0.00    +0.000 Cl
ATOM      7  C   UNL     1       1.481   5.801  21.145  0.00  0.00    +0.000 A 
ATOM      8  C   UNL     1       1.369   7.120  20.668  0.00  0.00    +0.000 A 
ATOM      9  C   UNL     1       2.064   7.526  19.525  0.00  0.00    +0.000 A 
ATOM     10  C   UNL     1       2.892   6.593  18.913  0.00  0.00    +0.000 A 
ATOM     11  C   UNL     1       3.735   6.700  17.723  0.00  0.00    +0.000 C 
ATOM     12  O   UNL     1       3.710   7.686  17.007  0.00  0.00    +0.000 OA
ENDROOT
BRANCH   1  19
ATOM     13  C   UNL     1       5.473   3.652  13.157  0.00  0.00    +0.000 C 
ATOM     14  C   UNL     1       5.886   4.415  14.373  0.00  0.00    +0.000 A 
ATOM     15  C   UNL     1       7.145   4.975  14.488  0.00  0.00    +0.000 A 
ATOM     16  N   UNL     1       7.579   5.626  15.587  0.00  0.00    +0.000 NA
ATOM     17  C   UNL     1       6.726   5.765  16.640  0.00  0.00    +0.000 A 
ATOM     18  C   UNL     1       7.286   6.591  17.761  0.00  0.00    +0.000 C 
ATOM     19  C   UNL     1       5.410   5.277  16.607  0.00  0.00    +0.000 A 
ATOM     20  C   UNL     1       5.013   4.585  15.450  0.00  0.00    +0.000 A 
ENDBRANCH   1  19
BRANCH   9  21
ATOM     21  N   UNL     1       1.896   8.874  19.081  0.00  0.00    +0.000 N 
ATOM     22  H   UNL     1       2.734   9.369  18.776  0.00  0.00    +0.000 HD
BRANCH  21  23
ATOM     23  S   UNL     1       0.812   9.833  19.969  0.00  0.00    +0.000 S 
ATOM     24  O   UNL     1      -0.506   9.630  19.398  0.00  0.00    +0.000 OA
ATOM     25  O   UNL     1       1.051   9.645  21.386  0.00  0.00    +0.000 OA
BRANCH  23  26
ATOM     26  C   UNL     1       1.335  11.490  19.535  0.00  0.00    +0.000 A 
ATOM     27  C   UNL     1       1.054  12.545  20.402  0.00  0.00    +0.000 A 
ATOM     28  C   UNL     1       1.515  13.836  20.108  0.00  0.00    +0.000 A 
ATOM     29  C   UNL     1       2.271  14.106  18.948  0.00  0.00    +0.000 A 
ATOM     30  C   UNL     1       2.543  13.019  18.093  0.00  0.00    +0.000 A 
ATOM     31  C   UNL     1       2.087  11.722  18.383  0.00  0.00    +0.000 A 
BRANCH  29  32
ATOM     32  C   UNL     1       2.802  15.518  18.619  0.00  0.00    +0.000 C 
ATOM     33  C   UNL     1       1.684  16.571  18.443  0.00  0.00    +0.000 C 
ATOM     34  C   UNL     1       3.723  16.021  19.754  0.00  0.00    +0.000 C 
ATOM     35  C   UNL     1       3.611  15.494  17.303  0.00  0.00    +0.000 C 
ENDBRANCH  29  32
ENDBRANCH  23  26
ENDBRANCH  21  23
ENDBRANCH   9  21
TORSDOF 5
ENDMDL
MODEL 6
REMARK VINA RESULT:      -8.8      2.612      3.111
REMARK  Name = 
REMARK  10 active torsions:
REMARK  status: ('A' for Active; 'I' for Inactive)
REMARK    1  A    between atoms: C_1  and  C_2
REMARK    2  A    between atoms: C_5  and  C_6
REMARK    3  A    between atoms: C_7  and  N_8
REMARK    4  A    between atoms: C_16  and  N_17
REMARK    5  A    between atoms: N_17  and  S_18
REMARK    6  A    between atoms: S_18  and  C_21
REMARK    7  A    between atoms: C_24  and  C_25
REMARK    8  A    between atoms: C_25  and  C_26
REMARK    9  A    between atoms: C_25  and  C_27
REMARK   10  A    between atoms: C_25  and  C_28
REMARK                            x       y       z     vdW  Elec       q    Type
REMARK                         _______ _______ _______ _____ _____    ______ ____
ROOT
ATOM      1  N   UNL     1       4.501   5.430  17.489  0.00  0.00    +0.000 N 
ATOM      2  C   UNL     1       4.035   4.480  18.368  0.00  0.00    +0.000 C 
ATOM      3  O   UNL     1       4.235   3.282  18.403  0.00  0.00    +0.000 OA
ATOM      4  C   UNL     1       3.076   5.154  19.253  0.00  0.00    +0.000 A 
ATOM      5  C   UNL     1       2.354   4.697  20.342  0.00  0.00    +0.000 A 
ATOM      6 CL   UNL     1       2.439   3.083  20.921  0.00  0.00    +0.000 Cl
ATOM      7  C   UNL     1       1.521   5.606  21.004  0.00  0.00    +0.000 A 
ATOM      8  C   UNL     1       1.417   6.939  20.570  0.00  0.00    +0.000 A 
ATOM      9  C   UNL     1       2.118   7.377  19.442  0.00  0.00    +0.000 A 
ATOM     10  C   UNL     1       2.944   6.460  18.804  0.00  0.00    +0.000 A 
ATOM     11  C   UNL     1       3.792   6.599  17.620  0.00  0.00    +0.000 C 
ATOM     12  O   UNL     1       3.774   7.607  16.936  0.00  0.00    +0.000 OA
ENDROOT
BRANCH   1  19
ATOM     13  C   UNL     1       5.550   3.608  13.002  0.00  0.00    +0.000 C 
ATOM     14  C   UNL     1       5.951   4.369  14.225  0.00  0.00    +0.000 A 
ATOM     15  C   UNL     1       7.199   4.951  14.341  0.00  0.00    +0.000 A 
ATOM     16  N   UNL     1       7.623   5.601  15.445  0.00  0.00    +0.000 NA
ATOM     17  C   UNL     1       6.770   5.715  16.501  0.00  0.00    +0.000 A 
ATOM     18  C   UNL     1       7.317   6.542  17.628  0.00  0.00    +0.000 C 
ATOM     19  C   UNL     1       5.464   5.202  16.467  0.00  0.00    +0.000 A 
ATOM     20  C   UNL     1       5.077   4.513  15.304  0.00  0.00    +0.000 A 
ENDBRANCH   1  19
BRANCH   9  21
ATOM     21  N   UNL     1       1.959   8.739  19.040  0.00  0.00    +0.000 N 
ATOM     22  H   UNL     1       2.798   9.232  18.734  0.00  0.00    +0.000 HD
BRANCH  21  23
ATOM     23  S   UNL     1       0.902   9.685  19.973  0.00  0.00    +0.000 S 
ATOM     24  O   UNL     1      -0.419   9.554  19.389  0.00  0.00    +0.000 OA
ATOM     25  O   UNL     1       1.128   9.414  21.379  0.00  0.00    +0.000 OA
BRANCH  23  26
ATOM     26  C   UNL     1       1.480  11.345  19.629  0.00  0.00    +0.000 A 
ATOM     27  C   UNL     1       1.946  11.656  18.353  0.00  0.00    +0.000 A 
ATOM     28  C   UNL     1       2.340  12.966  18.051  0.00  0.00    +0.000 A 
ATOM     29  C   UNL     1       2.273  13.999  19.009  0.00  0.00    +0.000 A 
ATOM     30  C   UNL     1       1.794  13.656  20.289  0.00  0.00    +0.000 A 
ATOM     31  C   UNL     1       1.395  12.344  20.598  0.00  0.00    +0.000 A 
BRANCH  29  32
ATOM     32  C   UNL     1       2.685  15.453  18.686  0.00  0.00    +0.000 C 
ATOM     33  C   UNL     1       3.576  15.575  17.428  0.00  0.00    +0.000 C 
ATOM     34  C   UNL     1       1.431  16.322  18.439  0.00  0.00    +0.000 C 
ATOM     35  C   UNL     1       3.479  16.059  19.864  0.00  0.00    +0.000 C 
ENDBRANCH  29  32
ENDBRANCH  23  26
ENDBRANCH  21  23
ENDBRANCH   9  21
TORSDOF 5
ENDMDL
MODEL 7
REMARK VINA RESULT:      -8.7      4.029     10.718
REMARK  Name = 
REMARK  10 active torsions:
REMARK  status: ('A' for Active; 'I' for Inactive)
REMARK    1  A    between atoms: C_1  and  C_2
REMARK    2  A    between atoms: C_5  and  C_6
REMARK    3  A    between atoms: C_7  and  N_8
REMARK    4  A    between atoms: C_16  and  N_17
REMARK    5  A    between atoms: N_17  and  S_18
REMARK    6  A    between atoms: S_18  and  C_21
REMARK    7  A    between atoms: C_24  and  C_25
REMARK    8  A    between atoms: C_25  and  C_26
REMARK    9  A    between atoms: C_25  and  C_27
REMARK   10  A    between atoms: C_25  and  C_28
REMARK                            x       y       z     vdW  Elec       q    Type
REMARK                         _______ _______ _______ _____ _____    ______ ____
ROOT
ATOM      1  N   UNL     1      -3.212  12.669  20.486  0.00  0.00    +0.000 N 
ATOM      2  C   UNL     1      -3.774  12.216  19.315  0.00  0.00    +0.000 C 
ATOM      3  O   UNL     1      -4.908  12.335  18.894  0.00  0.00    +0.000 OA
ATOM      4  C   UNL     1      -2.761  11.385  18.652  0.00  0.00    +0.000 A 
ATOM      5  C   UNL     1      -2.767  10.729  17.432  0.00  0.00    +0.000 A 
ATOM      6 CL   UNL     1      -4.102  10.752  16.353  0.00  0.00    +0.000 Cl
ATOM      7  C   UNL     1      -1.618  10.020  17.064  0.00  0.00    +0.000 A 
ATOM      8  C   UNL     1      -0.497   9.970  17.912  0.00  0.00    +0.000 A 
ATOM      9  C   UNL     1      -0.521  10.601  19.160  0.00  0.00    +0.000 A 
ATOM     10  C   UNL     1      -1.669  11.304  19.502  0.00  0.00    +0.000 A 
ATOM     11  C   UNL     1      -2.005  12.055  20.711  0.00  0.00    +0.000 C 
ATOM     12  O   UNL     1      -1.280  12.048  21.691  0.00  0.00    +0.000 OA
ENDROOT
BRANCH   1  19
ATOM     13  C   UNL     1      -6.509  13.207  24.146  0.00  0.00    +0.000 C 
ATOM     14  C   UNL     1      -5.423  13.760  23.280  0.00  0.00    +0.000 A 
ATOM     15  C   UNL     1      -4.947  15.047  23.444  0.00  0.00    +0.000 A 
ATOM     16  N   UNL     1      -4.007  15.605  22.655  0.00  0.00    +0.000 NA
ATOM     17  C   UNL     1      -3.474  14.856  21.649  0.00  0.00    +0.000 A 
ATOM     18  C   UNL     1      -2.370  15.550  20.905  0.00  0.00    +0.000 C 
ATOM     19  C   UNL     1      -3.852  13.523  21.428  0.00  0.00    +0.000 A 
ATOM     20  C   UNL     1      -4.851  12.994  22.262  0.00  0.00    +0.000 A 
ENDBRANCH   1  19
BRANCH   9  21
ATOM     21  N   UNL     1       0.643  10.502  19.984  0.00  0.00    +0.000 N 
ATOM     22  H   UNL     1       1.543  10.672  19.537  0.00  0.00    +0.000 HD
BRANCH  21  23
ATOM     23  S   UNL     1       0.662   9.237  21.117  0.00  0.00    +0.000 S 
ATOM     24  O   UNL     1       1.478   9.674  22.234  0.00  0.00    +0.000 OA
ATOM     25  O   UNL     1      -0.689   8.754  21.322  0.00  0.00    +0.000 OA
BRANCH  23  26
ATOM     26  C   UNL     1       1.577   7.967  20.247  0.00  0.00    +0.000 A 
ATOM     27  C   UNL     1       1.647   6.684  20.786  0.00  0.00    +0.000 A 
ATOM     28  C   UNL     1       2.304   5.664  20.084  0.00  0.00    +0.000 A 
ATOM     29  C   UNL     1       2.901   5.895  18.827  0.00  0.00    +0.000 A 
ATOM     30  C   UNL     1       2.810   7.202  18.305  0.00  0.00    +0.000 A 
ATOM     31  C   UNL     1       2.150   8.228  19.002  0.00  0.00    +0.000 A 
BRANCH  29  32
ATOM     32  C   UNL     1       3.611   4.778  18.031  0.00  0.00    +0.000 C 
ATOM     33  C   UNL     1       4.564   3.919  18.895  0.00  0.00    +0.000 C 
ATOM     34  C   UNL     1       2.571   3.817  17.413  0.00  0.00    +0.000 C 
ATOM     35  C   UNL     1       4.457   5.386  16.891  0.00  0.00    +0.000 C 
ENDBRANCH  29  32
ENDBRANCH  23  26
ENDBRANCH  21  23
ENDBRANCH   9  21
TORSDOF 5
ENDMDL
MODEL 8
REMARK VINA RESULT:      -8.6      3.949     10.691
REMARK  Name = 
REMARK  10 active torsions:
REMARK  status: ('A' for Active; 'I' for Inactive)
REMARK    1  A    between atoms: C_1  and  C_2
REMARK    2  A    between atoms: C_5  and  C_6
REMARK    3  A    between atoms: C_7  and  N_8
REMARK    4  A    between atoms: C_16  and  N_17
REMARK    5  A    between atoms: N_17  and  S_18
REMARK    6  A    between atoms: S_18  and  C_21
REMARK    7  A    between atoms: C_24  and  C_25
REMARK    8  A    between atoms: C_25  and  C_26
REMARK    9  A    between atoms: C_25  and  C_27
REMARK   10  A    between atoms: C_25  and  C_28
REMARK                            x       y       z     vdW  Elec       q    Type
REMARK                         _______ _______ _______ _____ _____    ______ ____
ROOT
ATOM      1  N   UNL     1      -1.755  13.482  21.231  0.00  0.00    +0.000 N 
ATOM      2  C   UNL     1      -2.767  13.182  20.349  0.00  0.00    +0.000 C 
ATOM      3  O   UNL     1      -3.888  13.644  20.257  0.00  0.00    +0.000 OA
ATOM      4  C   UNL     1      -2.310  12.036  19.552  0.00  0.00    +0.000 A 
ATOM      5  C   UNL     1      -2.896  11.361  18.494  0.00  0.00    +0.000 A 
ATOM      6 CL   UNL     1      -4.436  11.768  17.851  0.00  0.00    +0.000 Cl
ATOM      7  C   UNL     1      -2.187  10.300  17.920  0.00  0.00    +0.000 A 
ATOM      8  C   UNL     1      -0.922   9.929  18.409  0.00  0.00    +0.000 A 
ATOM      9  C   UNL     1      -0.361  10.590  19.505  0.00  0.00    +0.000 A 
ATOM     10  C   UNL     1      -1.079  11.644  20.056  0.00  0.00    +0.000 A 
ATOM     11  C   UNL     1      -0.776  12.519  21.188  0.00  0.00    +0.000 C 
ATOM     12  O   UNL     1       0.186  12.323  21.909  0.00  0.00    +0.000 OA
ENDROOT
BRANCH   1  19
ATOM     13  C   UNL     1      -2.648  14.975  25.870  0.00  0.00    +0.000 C 
ATOM     14  C   UNL     1      -2.150  15.249  24.487  0.00  0.00    +0.000 A 
ATOM     15  C   UNL     1      -1.611  16.473  24.138  0.00  0.00    +0.000 A 
ATOM     16  N   UNL     1      -1.199  16.782  22.891  0.00  0.00    +0.000 NA
ATOM     17  C   UNL     1      -1.294  15.831  21.920  0.00  0.00    +0.000 A 
ATOM     18  C   UNL     1      -0.713  16.257  20.603  0.00  0.00    +0.000 C 
ATOM     19  C   UNL     1      -1.780  14.540  22.181  0.00  0.00    +0.000 A 
ATOM     20  C   UNL     1      -2.219  14.274  23.490  0.00  0.00    +0.000 A 
ENDBRANCH   1  19
BRANCH   9  21
ATOM     21  N   UNL     1       0.921  10.156  19.967  0.00  0.00    +0.000 N 
ATOM     22  H   UNL     1       1.660  10.073  19.270  0.00  0.00    +0.000 HD
BRANCH  21  23
ATOM     23  S   UNL     1       0.926   8.921  21.132  0.00  0.00    +0.000 S 
ATOM     24  O   UNL     1       1.816   9.341  22.198  0.00  0.00    +0.000 OA
ATOM     25  O   UNL     1      -0.437   8.517  21.412  0.00  0.00    +0.000 OA
BRANCH  23  26
ATOM     26  C   UNL     1       1.731   7.582  20.256  0.00  0.00    +0.000 A 
ATOM     27  C   UNL     1       1.692   6.295  20.789  0.00  0.00    +0.000 A 
ATOM     28  C   UNL     1       2.260   5.226  20.082  0.00  0.00    +0.000 A 
ATOM     29  C   UNL     1       2.875   5.412  18.826  0.00  0.00    +0.000 A 
ATOM     30  C   UNL     1       2.895   6.724  18.311  0.00  0.00    +0.000 A 
ATOM     31  C   UNL     1       2.324   7.800  19.013  0.00  0.00    +0.000 A 
BRANCH  29  32
ATOM     32  C   UNL     1       3.488   4.242  18.026  0.00  0.00    +0.000 C 
ATOM     33  C   UNL     1       2.430   3.315  17.384  0.00  0.00    +0.000 C 
ATOM     34  C   UNL     1       4.371   4.783  16.879  0.00  0.00    +0.000 C 
ATOM     35  C   UNL     1       4.362   3.362  18.946  0.00  0.00    +0.000 C 
ENDBRANCH  29  32
ENDBRANCH  23  26
ENDBRANCH  21  23
ENDBRANCH   9  21
TORSDOF 5
ENDMDL
MODEL 9
REMARK VINA RESULT:      -8.6      3.849     10.640
REMARK  Name = 
REMARK  10 active torsions:
REMARK  status: ('A' for Active; 'I' for Inactive)
REMARK    1  A    between atoms: C_1  and  C_2
REMARK    2  A    between atoms: C_5  and  C_6
REMARK    3  A    between atoms: C_7  and  N_8
REMARK    4  A    between atoms: C_16  and  N_17
REMARK    5  A    between atoms: N_17  and  S_18
REMARK    6  A    between atoms: S_18  and  C_21
REMARK    7  A    between atoms: C_24  and  C_25
REMARK    8  A    between atoms: C_25  and  C_26
REMARK    9  A    between atoms: C_25  and  C_27
REMARK   10  A    between atoms: C_25  and  C_28
REMARK                            x       y       z     vdW  Elec       q    Type
REMARK                         _______ _______ _______ _____ _____    ______ ____
ROOT
ATOM      1  N   UNL     1      -2.554  12.616  21.024  0.00  0.00    +0.000 N 
ATOM      2  C   UNL     1      -3.281  12.347  19.887  0.00  0.00    +0.000 C 
ATOM      3  O   UNL     1      -4.434  12.619  19.613  0.00  0.00    +0.000 OA
ATOM      4  C   UNL     1      -2.438  11.499  19.035  0.00  0.00    +0.000 A 
ATOM      5  C   UNL     1      -2.642  10.981  17.767  0.00  0.00    +0.000 A 
ATOM      6 CL   UNL     1      -4.073  11.249  16.857  0.00  0.00    +0.000 Cl
ATOM      7  C   UNL     1      -1.620  10.210  17.202  0.00  0.00    +0.000 A 
ATOM      8  C   UNL     1      -0.428   9.962  17.907  0.00  0.00    +0.000 A 
ATOM      9  C   UNL     1      -0.253  10.454  19.204  0.00  0.00    +0.000 A 
ATOM     10  C   UNL     1      -1.277  11.224  19.742  0.00  0.00    +0.000 A 
ATOM     11  C   UNL     1      -1.402  11.869  21.048  0.00  0.00    +0.000 C 
ATOM     12  O   UNL     1      -0.583  11.687  21.933  0.00  0.00    +0.000 OA
ENDROOT
BRANCH   1  19
ATOM     13  C   UNL     1      -4.569  12.878  25.544  0.00  0.00    +0.000 C 
ATOM     14  C   UNL     1      -3.919  13.534  24.368  0.00  0.00    +0.000 A 
ATOM     15  C   UNL     1      -3.636  14.887  24.354  0.00  0.00    +0.000 A 
ATOM     16  N   UNL     1      -3.101  15.530  23.297  0.00  0.00    +0.000 NA
ATOM     17  C   UNL     1      -2.795  14.808  22.183  0.00  0.00    +0.000 A 
ATOM     18  C   UNL     1      -2.114  15.613  21.114  0.00  0.00    +0.000 C 
ATOM     19  C   UNL     1      -2.996  13.421  22.111  0.00  0.00    +0.000 A 
ATOM     20  C   UNL     1      -3.579  12.800  23.229  0.00  0.00    +0.000 A 
ENDBRANCH   1  19
BRANCH   9  21
ATOM     21  N   UNL     1       0.973  10.157  19.875  0.00  0.00    +0.000 N 
ATOM     22  H   UNL     1       1.825  10.183  19.315  0.00  0.00    +0.000 HD
BRANCH  21  23
ATOM     23  S   UNL     1       0.928   8.892  21.007  0.00  0.00    +0.000 S 
ATOM     24  O   UNL     1       1.765   9.287  22.124  0.00  0.00    +0.000 OA
ATOM     25  O   UNL     1      -0.446   8.478  21.212  0.00  0.00    +0.000 OA
BRANCH  23  26
ATOM     26  C   UNL     1       1.778   7.578  20.136  0.00  0.00    +0.000 A 
ATOM     27  C   UNL     1       1.801   6.297  20.685  0.00  0.00    +0.000 A 
ATOM     28  C   UNL     1       2.405   5.245  19.984  0.00  0.00    +0.000 A 
ATOM     29  C   UNL     1       2.995   5.441  18.717  0.00  0.00    +0.000 A 
ATOM     30  C   UNL     1       2.951   6.745  18.186  0.00  0.00    +0.000 A 
ATOM     31  C   UNL     1       2.345   7.805  18.882  0.00  0.00    +0.000 A 
BRANCH  29  32
ATOM     32  C   UNL     1       3.647   4.288  17.923  0.00  0.00    +0.000 C 
ATOM     33  C   UNL     1       2.621   3.364  17.225  0.00  0.00    +0.000 C 
ATOM     34  C   UNL     1       4.570   4.853  16.820  0.00  0.00    +0.000 C 
ATOM     35  C   UNL     1       4.490   3.398  18.863  0.00  0.00    +0.000 C 
ENDBRANCH  29  32
ENDBRANCH  23  26
ENDBRANCH  21  23
ENDBRANCH   9  21
TORSDOF 5
ENDMDL
