MODEL 1
REMARK VINA RESULT:      -6.4      0.000      0.000
REMARK  Name = 
REMARK  25 active torsions:
REMARK  status: ('A' for Active; 'I' for Inactive)
REMARK    1  A    between atoms: C_1  and  C_2
REMARK    2  A    between atoms: C_2  and  C_3
REMARK    3  A    between atoms: C_3  and  C_4
REMARK    4  A    between atoms: C_4  and  C_5
REMARK    5  A    between atoms: C_5  and  C_6
REMARK    6  A    between atoms: C_6  and  C_7
REMARK    7  A    between atoms: C_7  and  C_8
REMARK    8  A    between atoms: C_7  and  C_9
REMARK    9  A    between atoms: C_7  and  C_10
REMARK   10  A    between atoms: C_12  and  O_13
REMARK   11  A    between atoms: C_15  and  O_16
REMARK   12  A    between atoms: O_16  and  C_17
REMARK   13  A    between atoms: C_17  and  C_18
REMARK   14  A    between atoms: C_18  and  C_19
REMARK   15  A    between atoms: C_19  and  C_20
REMARK   16  A    between atoms: C_20  and  C_21
REMARK   17  A    between atoms: C_21  and  C_22
REMARK   18  A    between atoms: C_22  and  C_23
REMARK   19  A    between atoms: C_23  and  C_24
REMARK   20  A    between atoms: C_24  and  C_25
REMARK   21  A    between atoms: C_25  and  C_26
REMARK   22  A    between atoms: C_26  and  C_27
REMARK   23  A    between atoms: C_27  and  C_28
REMARK   24  A    between atoms: N_30  and  C_31
REMARK   25  A    between atoms: C_31  and  C_32
REMARK                            x       y       z     vdW  Elec       q    Type
REMARK                         _______ _______ _______ _____ _____    ______ ____
ROOT
ATOM      1  C   UNL     1      -0.490  10.627  18.962  0.00  0.00    +0.000 C 
ENDROOT
BRANCH   1   2
ATOM      2  C   UNL     1      -0.559  10.024  20.361  0.00  0.00    +0.000 C 
BRANCH   2   3
ATOM      3  C   UNL     1       0.693  10.354  21.174  0.00  0.00    +0.000 C 
BRANCH   3   4
ATOM      4  C   UNL     1       1.415   9.090  21.637  0.00  0.00    +0.000 C 
BRANCH   4   5
ATOM      5  C   UNL     1       0.996   7.875  20.827  0.00  0.00    +0.000 C 
BRANCH   5   6
ATOM      6  C   UNL     1       2.168   7.389  19.982  0.00  0.00    +0.000 C 
BRANCH   6   7
ATOM      7  C   UNL     1       2.110   8.015  18.596  0.00  0.00    +0.000 C 
BRANCH   7   8
ATOM      8  C   UNL     1       3.272   7.528  17.742  0.00  0.00    +0.000 C 
BRANCH   8   9
ATOM      9  C   UNL     1       3.675   6.109  18.140  0.00  0.00    +0.000 C 
BRANCH   9  10
ATOM     10  C   UNL     1       4.805   5.623  17.239  0.00  0.00    +0.000 C 
BRANCH  10  11
ATOM     11  C   UNL     1       4.467   4.308  16.547  0.00  0.00    +0.000 C 
BRANCH  11  12
ATOM     12  C   UNL     1       3.436   3.540  17.357  0.00  0.00    +0.000 C 
ATOM     13  O   UNL     1       2.285   3.342  16.970  0.00  0.00    +0.000 OA
ATOM     14  N   UNL     1       3.899   3.096  18.568  0.00  0.00    +0.000 N 
ATOM     15  H   UNL     1       4.858   3.260  18.844  0.00  0.00    +0.000 HD
BRANCH  14  16
ATOM     16  C   UNL     1       3.015   2.376  19.454  0.00  0.00    +0.000 C 
BRANCH  16  17
ATOM     17  C   UNL     1       2.426   3.305  20.461  0.00  0.00    +0.000 C 
ATOM     18  C   UNL     1       0.933   3.514  20.551  0.00  0.00    +0.000 C 
ATOM     19  C   UNL     1       1.648   2.762  21.638  0.00  0.00    +0.000 C 
ENDBRANCH  16  17
ENDBRANCH  14  16
ENDBRANCH  11  12
ENDBRANCH  10  11
ENDBRANCH   9  10
ENDBRANCH   8   9
ENDBRANCH   7   8
ENDBRANCH   6   7
ENDBRANCH   5   6
ENDBRANCH   4   5
ENDBRANCH   3   4
ENDBRANCH   2   3
ENDBRANCH   1   2
BRANCH   1  20
ATOM     20  O   UNL     1      -1.093   9.753  18.010  0.00  0.00    +0.000 OA
BRANCH  20  25
ATOM     21  C   UNL     1      -4.404  11.380  17.411  0.00  0.00    +0.000 A 
ATOM     22  C   UNL     1      -4.448  11.219  16.020  0.00  0.00    +0.000 A 
ATOM     23  C   UNL     1      -3.409  10.577  15.348  0.00  0.00    +0.000 A 
ATOM     24  C   UNL     1      -2.301  10.093  16.037  0.00  0.00    +0.000 A 
ATOM     25  C   UNL     1      -2.227  10.252  17.418  0.00  0.00    +0.000 A 
ATOM     26  C   UNL     1      -3.275  10.894  18.089  0.00  0.00    +0.000 A 
BRANCH  21  27
ATOM     27  C   UNL     1      -5.560  12.007  18.212  0.00  0.00    +0.000 C 
ATOM     28  C   UNL     1      -6.576  10.964  18.733  0.00  0.00    +0.000 C 
ATOM     29  C   UNL     1      -6.344  12.969  17.289  0.00  0.00    +0.000 C 
BRANCH  27  30
ATOM     30  C   UNL     1      -4.976  12.809  19.417  0.00  0.00    +0.000 C 
BRANCH  30  31
ATOM     31  C   UNL     1      -5.565  12.370  20.762  0.00  0.00    +0.000 C 
BRANCH  31  32
ATOM     32  C   UNL     1      -4.663  12.715  21.935  0.00  0.00    +0.000 C 
BRANCH  32  33
ATOM     33  C   UNL     1      -3.209  12.568  21.495  0.00  0.00    +0.000 C 
BRANCH  33  35
ATOM     34  C   UNL     1      -1.276  12.929  23.037  0.00  0.00    +0.000 C 
ATOM     35  C   UNL     1      -2.328  13.604  22.175  0.00  0.00    +0.000 C 
ENDBRANCH  33  35
ENDBRANCH  32  33
ENDBRANCH  31  32
ENDBRANCH  30  31
ENDBRANCH  27  30
ENDBRANCH  21  27
BRANCH  23  36
ATOM     36  O   UNL     1      -3.459  10.404  13.997  0.00  0.00    +0.000 OA
ATOM     37  H   UNL     1      -2.993  11.146  13.574  0.00  0.00    +0.000 HD
ENDBRANCH  23  36
ENDBRANCH  20  25
ENDBRANCH   1  20
TORSDOF 22
ENDMDL
MODEL 2
REMARK VINA RESULT:      -6.3      6.725     11.382
REMARK  Name = 
REMARK  25 active torsions:
REMARK  status: ('A' for Active; 'I' for Inactive)
REMARK    1  A    between atoms: C_1  and  C_2
REMARK    2  A    between atoms: C_2  and  C_3
REMARK    3  A    between atoms: C_3  and  C_4
REMARK    4  A    between atoms: C_4  and  C_5
REMARK    5  A    between atoms: C_5  and  C_6
REMARK    6  A    between atoms: C_6  and  C_7
REMARK    7  A    between atoms: C_7  and  C_8
REMARK    8  A    between atoms: C_7  and  C_9
REMARK    9  A    between atoms: C_7  and  C_10
REMARK   10  A    between atoms: C_12  and  O_13
REMARK   11  A    between atoms: C_15  and  O_16
REMARK   12  A    between atoms: O_16  and  C_17
REMARK   13  A    between atoms: C_17  and  C_18
REMARK   14  A    between atoms: C_18  and  C_19
REMARK   15  A    between atoms: C_19  and  C_20
REMARK   16  A    between atoms: C_20  and  C_21
REMARK   17  A    between atoms: C_21  and  C_22
REMARK   18  A    between atoms: C_22  and  C_23
REMARK   19  A    between atoms: C_23  and  C_24
REMARK   20  A    between atoms: C_24  and  C_25
REMARK   21  A    between atoms: C_25  and  C_26
REMARK   22  A    between atoms: C_26  and  C_27
REMARK   23  A    between atoms: C_27  and  C_28
REMARK   24  A    between atoms: N_30  and  C_31
REMARK   25  A    between atoms: C_31  and  C_32
REMARK                            x       y       z     vdW  Elec       q    Type
REMARK                         _______ _______ _______ _____ _____    ______ ____
ROOT
ATOM      1  C   UNL     1       7.623   8.431  17.535  0.00  0.00    +0.000 C 
ENDROOT
BRANCH   1   2
ATOM      2  C   UNL     1       8.604   8.335  18.698  0.00  0.00    +0.000 C 
BRANCH   2   3
ATOM      3  C   UNL     1       9.009   9.721  19.203  0.00  0.00    +0.000 C 
BRANCH   3   4
ATOM      4  C   UNL     1       9.060  10.743  18.069  0.00  0.00    +0.000 C 
BRANCH   4   5
ATOM      5  C   UNL     1      10.395  11.467  18.026  0.00  0.00    +0.000 C 
BRANCH   5   6
ATOM      6  C   UNL     1      11.082  11.365  19.383  0.00  0.00    +0.000 C 
BRANCH   6   7
ATOM      7  C   UNL     1      12.137  12.452  19.519  0.00  0.00    +0.000 C 
BRANCH   7   8
ATOM      8  C   UNL     1      11.907  13.551  18.492  0.00  0.00    +0.000 C 
BRANCH   8   9
ATOM      9  C   UNL     1      11.919  14.925  19.162  0.00  0.00    +0.000 C 
BRANCH   9  10
ATOM     10  C   UNL     1      10.674  15.706  18.757  0.00  0.00    +0.000 C 
BRANCH  10  11
ATOM     11  C   UNL     1       9.389  14.963  19.104  0.00  0.00    +0.000 C 
BRANCH  11  12
ATOM     12  C   UNL     1       8.279  15.953  19.414  0.00  0.00    +0.000 C 
ATOM     13  O   UNL     1       8.474  17.156  19.578  0.00  0.00    +0.000 OA
ATOM     14  N   UNL     1       7.035  15.383  19.507  0.00  0.00    +0.000 N 
ATOM     15  H   UNL     1       6.910  14.392  19.345  0.00  0.00    +0.000 HD
BRANCH  14  16
ATOM     16  C   UNL     1       5.891  16.203  19.826  0.00  0.00    +0.000 C 
BRANCH  16  17
ATOM     17  C   UNL     1       5.049  16.409  18.613  0.00  0.00    +0.000 C 
ATOM     18  C   UNL     1       4.506  15.237  17.831  0.00  0.00    +0.000 C 
ATOM     19  C   UNL     1       3.573  16.087  18.644  0.00  0.00    +0.000 C 
ENDBRANCH  16  17
ENDBRANCH  14  16
ENDBRANCH  11  12
ENDBRANCH  10  11
ENDBRANCH   9  10
ENDBRANCH   8   9
ENDBRANCH   7   8
ENDBRANCH   6   7
ENDBRANCH   5   6
ENDBRANCH   4   5
ENDBRANCH   3   4
ENDBRANCH   2   3
ENDBRANCH   1   2
BRANCH   1  20
ATOM     20  O   UNL     1       7.784   7.323  16.652  0.00  0.00    +0.000 OA
BRANCH  20  25
ATOM     21  C   UNL     1       4.541   5.606  17.367  0.00  0.00    +0.000 A 
ATOM     22  C   UNL     1       4.762   4.453  16.604  0.00  0.00    +0.000 A 
ATOM     23  C   UNL     1       5.959   4.282  15.908  0.00  0.00    +0.000 A 
ATOM     24  C   UNL     1       6.954   5.255  15.944  0.00  0.00    +0.000 A 
ATOM     25  C   UNL     1       6.753   6.416  16.684  0.00  0.00    +0.000 A 
ATOM     26  C   UNL     1       5.551   6.581  17.384  0.00  0.00    +0.000 A 
BRANCH  21  27
ATOM     27  C   UNL     1       3.275   5.809  18.219  0.00  0.00    +0.000 C 
ATOM     28  C   UNL     1       2.675   7.229  18.091  0.00  0.00    +0.000 C 
ATOM     29  C   UNL     1       3.639   5.613  19.709  0.00  0.00    +0.000 C 
BRANCH  27  30
ATOM     30  C   UNL     1       2.202   4.754  17.806  0.00  0.00    +0.000 C 
BRANCH  30  31
ATOM     31  C   UNL     1       2.485   3.364  18.385  0.00  0.00    +0.000 C 
BRANCH  31  32
ATOM     32  C   UNL     1       1.258   2.737  19.026  0.00  0.00    +0.000 C 
BRANCH  32  33
ATOM     33  C   UNL     1       0.847   3.582  20.227  0.00  0.00    +0.000 C 
BRANCH  33  35
ATOM     34  C   UNL     1       2.721   2.562  21.528  0.00  0.00    +0.000 C 
ATOM     35  C   UNL     1       1.242   2.905  21.530  0.00  0.00    +0.000 C 
ENDBRANCH  33  35
ENDBRANCH  32  33
ENDBRANCH  31  32
ENDBRANCH  30  31
ENDBRANCH  27  30
ENDBRANCH  21  27
BRANCH  23  36
ATOM     36  O   UNL     1       6.182   3.152  15.179  0.00  0.00    +0.000 OA
ATOM     37  H   UNL     1       7.051   3.229  14.750  0.00  0.00    +0.000 HD
ENDBRANCH  23  36
ENDBRANCH  20  25
ENDBRANCH   1  20
TORSDOF 22
ENDMDL
MODEL 3
REMARK VINA RESULT:      -6.3      3.234      6.139
REMARK  Name = 
REMARK  25 active torsions:
REMARK  status: ('A' for Active; 'I' for Inactive)
REMARK    1  A    between atoms: C_1  and  C_2
REMARK    2  A    between atoms: C_2  and  C_3
REMARK    3  A    between atoms: C_3  and  C_4
REMARK    4  A    between atoms: C_4  and  C_5
REMARK    5  A    between atoms: C_5  and  C_6
REMARK    6  A    between atoms: C_6  and  C_7
REMARK    7  A    between atoms: C_7  and  C_8
REMARK    8  A    between atoms: C_7  and  C_9
REMARK    9  A    between atoms: C_7  and  C_10
REMARK   10  A    between atoms: C_12  and  O_13
REMARK   11  A    between atoms: C_15  and  O_16
REMARK   12  A    between atoms: O_16  and  C_17
REMARK   13  A    between atoms: C_17  and  C_18
REMARK   14  A    between atoms: C_18  and  C_19
REMARK   15  A    between atoms: C_19  and  C_20
REMARK   16  A    between atoms: C_20  and  C_21
REMARK   17  A    between atoms: C_21  and  C_22
REMARK   18  A    between atoms: C_22  and  C_23
REMARK   19  A    between atoms: C_23  and  C_24
REMARK   20  A    between atoms: C_24  and  C_25
REMARK   21  A    between atoms: C_25  and  C_26
REMARK   22  A    between atoms: C_26  and  C_27
REMARK   23  A    between atoms: C_27  and  C_28
REMARK   24  A    between atoms: N_30  and  C_31
REMARK   25  A    between atoms: C_31  and  C_32
REMARK                            x       y       z     vdW  Elec       q    Type
REMARK                         _______ _______ _______ _____ _____    ______ ____
ROOT
ATOM      1  C   UNL     1       2.373   4.855  20.926  0.00  0.00    +0.000 C 
ENDROOT
BRANCH   1   2
ATOM      2  C   UNL     1       2.290   3.359  20.648  0.00  0.00    +0.000 C 
BRANCH   2   3
ATOM      3  C   UNL     1       0.884   2.949  20.208  0.00  0.00    +0.000 C 
BRANCH   3   4
ATOM      4  C   UNL     1       0.888   2.328  18.812  0.00  0.00    +0.000 C 
BRANCH   4   5
ATOM      5  C   UNL     1       2.288   2.270  18.227  0.00  0.00    +0.000 C 
BRANCH   5   6
ATOM      6  C   UNL     1       2.399   3.240  17.056  0.00  0.00    +0.000 C 
BRANCH   6   7
ATOM      7  C   UNL     1       3.769   3.903  17.053  0.00  0.00    +0.000 C 
BRANCH   7   8
ATOM      8  C   UNL     1       4.701   3.207  18.034  0.00  0.00    +0.000 C 
BRANCH   8   9
ATOM      9  C   UNL     1       5.442   4.232  18.892  0.00  0.00    +0.000 C 
BRANCH   9  10
ATOM     10  C   UNL     1       6.614   4.810  18.107  0.00  0.00    +0.000 C 
BRANCH  10  11
ATOM     11  C   UNL     1       6.305   6.192  17.543  0.00  0.00    +0.000 C 
BRANCH  11  12
ATOM     12  C   UNL     1       6.238   6.136  16.027  0.00  0.00    +0.000 C 
ATOM     13  O   UNL     1       5.517   6.873  15.355  0.00  0.00    +0.000 OA
ATOM     14  N   UNL     1       7.048   5.180  15.469  0.00  0.00    +0.000 N 
ATOM     15  H   UNL     1       7.643   4.607  16.052  0.00  0.00    +0.000 HD
BRANCH  14  16
ATOM     16  C   UNL     1       7.061   4.997  14.038  0.00  0.00    +0.000 C 
BRANCH  16  17
ATOM     17  C   UNL     1       6.291   3.775  13.667  0.00  0.00    +0.000 C 
ATOM     18  C   UNL     1       5.096   3.854  12.747  0.00  0.00    +0.000 C 
ATOM     19  C   UNL     1       6.368   3.220  12.263  0.00  0.00    +0.000 C 
ENDBRANCH  16  17
ENDBRANCH  14  16
ENDBRANCH  11  12
ENDBRANCH  10  11
ENDBRANCH   9  10
ENDBRANCH   8   9
ENDBRANCH   7   8
ENDBRANCH   6   7
ENDBRANCH   5   6
ENDBRANCH   4   5
ENDBRANCH   3   4
ENDBRANCH   2   3
ENDBRANCH   1   2
BRANCH   1  20
ATOM     20  O   UNL     1       2.651   5.573  19.726  0.00  0.00    +0.000 OA
BRANCH  20  25
ATOM     21  C   UNL     1       1.184   8.862  20.729  0.00  0.00    +0.000 A 
ATOM     22  C   UNL     1       1.329   9.520  19.500  0.00  0.00    +0.000 A 
ATOM     23  C   UNL     1       1.882   8.859  18.404  0.00  0.00    +0.000 A 
ATOM     24  C   UNL     1       2.311   7.539  18.505  0.00  0.00    +0.000 A 
ATOM     25  C   UNL     1       2.190   6.867  19.718  0.00  0.00    +0.000 A 
ATOM     26  C   UNL     1       1.631   7.534  20.815  0.00  0.00    +0.000 A 
BRANCH  21  27
ATOM     27  C   UNL     1       0.506   9.517  21.947  0.00  0.00    +0.000 C 
ATOM     28  C   UNL     1       1.340   9.398  23.244  0.00  0.00    +0.000 C 
ATOM     29  C   UNL     1      -0.838   8.801  22.215  0.00  0.00    +0.000 C 
BRANCH  27  30
ATOM     30  C   UNL     1       0.237  11.023  21.639  0.00  0.00    +0.000 C 
BRANCH  30  31
ATOM     31  C   UNL     1      -1.223  11.423  21.873  0.00  0.00    +0.000 C 
BRANCH  31  32
ATOM     32  C   UNL     1      -1.769  12.313  20.768  0.00  0.00    +0.000 C 
BRANCH  32  33
ATOM     33  C   UNL     1      -2.368  13.566  21.400  0.00  0.00    +0.000 C 
BRANCH  33  35
ATOM     34  C   UNL     1      -2.974  14.710  23.538  0.00  0.00    +0.000 C 
ATOM     35  C   UNL     1      -2.416  13.442  22.914  0.00  0.00    +0.000 C 
ENDBRANCH  33  35
ENDBRANCH  32  33
ENDBRANCH  31  32
ENDBRANCH  30  31
ENDBRANCH  27  30
ENDBRANCH  21  27
BRANCH  23  36
ATOM     36  O   UNL     1       2.008   9.492  17.203  0.00  0.00    +0.000 OA
ATOM     37  H   UNL     1       2.931   9.413  16.909  0.00  0.00    +0.000 HD
ENDBRANCH  23  36
ENDBRANCH  20  25
ENDBRANCH   1  20
TORSDOF 22
ENDMDL
MODEL 4
REMARK VINA RESULT:      -6.1      2.117      4.554
REMARK  Name = 
REMARK  25 active torsions:
REMARK  status: ('A' for Active; 'I' for Inactive)
REMARK    1  A    between atoms: C_1  and  C_2
REMARK    2  A    between atoms: C_2  and  C_3
REMARK    3  A    between atoms: C_3  and  C_4
REMARK    4  A    between atoms: C_4  and  C_5
REMARK    5  A    between atoms: C_5  and  C_6
REMARK    6  A    between atoms: C_6  and  C_7
REMARK    7  A    between atoms: C_7  and  C_8
REMARK    8  A    between atoms: C_7  and  C_9
REMARK    9  A    between atoms: C_7  and  C_10
REMARK   10  A    between atoms: C_12  and  O_13
REMARK   11  A    between atoms: C_15  and  O_16
REMARK   12  A    between atoms: O_16  and  C_17
REMARK   13  A    between atoms: C_17  and  C_18
REMARK   14  A    between atoms: C_18  and  C_19
REMARK   15  A    between atoms: C_19  and  C_20
REMARK   16  A    between atoms: C_20  and  C_21
REMARK   17  A    between atoms: C_21  and  C_22
REMARK   18  A    between atoms: C_22  and  C_23
REMARK   19  A    between atoms: C_23  and  C_24
REMARK   20  A    between atoms: C_24  and  C_25
REMARK   21  A    between atoms: C_25  and  C_26
REMARK   22  A    between atoms: C_26  and  C_27
REMARK   23  A    between atoms: C_27  and  C_28
REMARK   24  A    between atoms: N_30  and  C_31
REMARK   25  A    between atoms: C_31  and  C_32
REMARK                            x       y       z     vdW  Elec       q    Type
REMARK                         _______ _______ _______ _____ _____    ______ ____
ROOT
ATOM      1  C   UNL     1       1.599   9.947  18.014  0.00  0.00    +0.000 C 
ENDROOT
BRANCH   1   2
ATOM      2  C   UNL     1       1.760   8.670  18.830  0.00  0.00    +0.000 C 
BRANCH   2   3
ATOM      3  C   UNL     1       2.598   7.632  18.083  0.00  0.00    +0.000 C 
BRANCH   3   4
ATOM      4  C   UNL     1       2.650   6.302  18.833  0.00  0.00    +0.000 C 
BRANCH   4   5
ATOM      5  C   UNL     1       2.034   6.414  20.217  0.00  0.00    +0.000 C 
BRANCH   5   6
ATOM      6  C   UNL     1       1.377   5.092  20.598  0.00  0.00    +0.000 C 
BRANCH   6   7
ATOM      7  C   UNL     1       2.438   4.024  20.816  0.00  0.00    +0.000 C 
BRANCH   7   8
ATOM      8  C   UNL     1       1.948   2.674  20.312  0.00  0.00    +0.000 C 
BRANCH   8   9
ATOM      9  C   UNL     1       1.208   2.832  18.985  0.00  0.00    +0.000 C 
BRANCH   9  10
ATOM     10  C   UNL     1       2.188   2.690  17.826  0.00  0.00    +0.000 C 
BRANCH  10  11
ATOM     11  C   UNL     1       3.618   2.465  18.305  0.00  0.00    +0.000 C 
BRANCH  11  12
ATOM     12  C   UNL     1       4.561   3.432  17.611  0.00  0.00    +0.000 C 
ATOM     13  O   UNL     1       4.310   3.961  16.529  0.00  0.00    +0.000 OA
ATOM     14  N   UNL     1       5.730   3.655  18.294  0.00  0.00    +0.000 N 
ATOM     15  H   UNL     1       5.893   3.219  19.191  0.00  0.00    +0.000 HD
BRANCH  14  16
ATOM     16  C   UNL     1       6.732   4.531  17.734  0.00  0.00    +0.000 C 
BRANCH  16  17
ATOM     17  C   UNL     1       6.540   5.922  18.237  0.00  0.00    +0.000 C 
ATOM     18  C   UNL     1       7.669   6.924  18.210  0.00  0.00    +0.000 C 
ATOM     19  C   UNL     1       6.507   7.085  17.272  0.00  0.00    +0.000 C 
ENDBRANCH  16  17
ENDBRANCH  14  16
ENDBRANCH  11  12
ENDBRANCH  10  11
ENDBRANCH   9  10
ENDBRANCH   8   9
ENDBRANCH   7   8
ENDBRANCH   6   7
ENDBRANCH   5   6
ENDBRANCH   4   5
ENDBRANCH   3   4
ENDBRANCH   2   3
ENDBRANCH   1   2
BRANCH   1  20
ATOM     20  O   UNL     1       1.434  11.073  18.873  0.00  0.00    +0.000 OA
BRANCH  20  25
ATOM     21  C   UNL     1      -2.280  11.405  18.602  0.00  0.00    +0.000 A 
ATOM     22  C   UNL     1      -2.459  12.375  19.597  0.00  0.00    +0.000 A 
ATOM     23  C   UNL     1      -1.364  12.884  20.296  0.00  0.00    +0.000 A 
ATOM     24  C   UNL     1      -0.074  12.435  20.031  0.00  0.00    +0.000 A 
ATOM     25  C   UNL     1       0.129  11.462  19.057  0.00  0.00    +0.000 A 
ATOM     26  C   UNL     1      -0.973  10.957  18.355  0.00  0.00    +0.000 A 
BRANCH  21  27
ATOM     27  C   UNL     1      -3.441  10.869  17.745  0.00  0.00    +0.000 C 
ATOM     28  C   UNL     1      -3.538   9.326  17.747  0.00  0.00    +0.000 C 
ATOM     29  C   UNL     1      -3.218  11.299  16.277  0.00  0.00    +0.000 C 
BRANCH  27  30
ATOM     30  C   UNL     1      -4.784  11.473  18.262  0.00  0.00    +0.000 C 
BRANCH  30  31
ATOM     31  C   UNL     1      -5.548  12.235  17.174  0.00  0.00    +0.000 C 
BRANCH  31  32
ATOM     32  C   UNL     1      -7.003  12.475  17.542  0.00  0.00    +0.000 C 
BRANCH  32  33
ATOM     33  C   UNL     1      -7.420  13.847  17.020  0.00  0.00    +0.000 C 
BRANCH  33  35
ATOM     34  C   UNL     1      -7.420  14.919  19.277  0.00  0.00    +0.000 C 
ATOM     35  C   UNL     1      -6.834  14.957  17.877  0.00  0.00    +0.000 C 
ENDBRANCH  33  35
ENDBRANCH  32  33
ENDBRANCH  31  32
ENDBRANCH  30  31
ENDBRANCH  27  30
ENDBRANCH  21  27
BRANCH  23  36
ATOM     36  O   UNL     1      -1.535  13.840  21.251  0.00  0.00    +0.000 OA
ATOM     37  H   UNL     1      -1.110  13.536  22.071  0.00  0.00    +0.000 HD
ENDBRANCH  23  36
ENDBRANCH  20  25
ENDBRANCH   1  20
TORSDOF 22
ENDMDL
MODEL 5
REMARK VINA RESULT:      -6.1      2.340      4.482
REMARK  Name = 
REMARK  25 active torsions:
REMARK  status: ('A' for Active; 'I' for Inactive)
REMARK    1  A    between atoms: C_1  and  C_2
REMARK    2  A    between atoms: C_2  and  C_3
REMARK    3  A    between atoms: C_3  and  C_4
REMARK    4  A    between atoms: C_4  and  C_5
REMARK    5  A    between atoms: C_5  and  C_6
REMARK    6  A    between atoms: C_6  and  C_7
REMARK    7  A    between atoms: C_7  and  C_8
REMARK    8  A    between atoms: C_7  and  C_9
REMARK    9  A    between atoms: C_7  and  C_10
REMARK   10  A    between atoms: C_12  and  O_13
REMARK   11  A    between atoms: C_15  and  O_16
REMARK   12  A    between atoms: O_16  and  C_17
REMARK   13  A    between atoms: C_17  and  C_18
REMARK   14  A    between atoms: C_18  and  C_19
REMARK   15  A    between atoms: C_19  and  C_20
REMARK   16  A    between atoms: C_20  and  C_21
REMARK   17  A    between atoms: C_21  and  C_22
REMARK   18  A    between atoms: C_22  and  C_23
REMARK   19  A    between atoms: C_23  and  C_24
REMARK   20  A    between atoms: C_24  and  C_25
REMARK   21  A    between atoms: C_25  and  C_26
REMARK   22  A    between atoms: C_26  and  C_27
REMARK   23  A    between atoms: C_27  and  C_28
REMARK   24  A    between atoms: N_30  and  C_31
REMARK   25  A    between atoms: C_31  and  C_32
REMARK                            x       y       z     vdW  Elec       q    Type
REMARK                         _______ _______ _______ _____ _____    ______ ____
ROOT
ATOM      1  C   UNL     1       1.788   9.933  17.713  0.00  0.00    +0.000 C 
ENDROOT
BRANCH   1   2
ATOM      2  C   UNL     1       2.653   8.709  17.992  0.00  0.00    +0.000 C 
BRANCH   2   3
ATOM      3  C   UNL     1       1.909   7.413  17.670  0.00  0.00    +0.000 C 
BRANCH   3   4
ATOM      4  C   UNL     1       2.494   6.222  18.428  0.00  0.00    +0.000 C 
BRANCH   4   5
ATOM      5  C   UNL     1       2.591   6.499  19.918  0.00  0.00    +0.000 C 
BRANCH   5   6
ATOM      6  C   UNL     1       1.516   5.713  20.660  0.00  0.00    +0.000 C 
BRANCH   6   7
ATOM      7  C   UNL     1       2.074   4.379  21.133  0.00  0.00    +0.000 C 
BRANCH   7   8
ATOM      8  C   UNL     1       1.267   3.227  20.553  0.00  0.00    +0.000 C 
BRANCH   8   9
ATOM      9  C   UNL     1       1.634   2.995  19.089  0.00  0.00    +0.000 C 
BRANCH   9  10
ATOM     10  C   UNL     1       2.620   1.837  18.982  0.00  0.00    +0.000 C 
BRANCH  10  11
ATOM     11  C   UNL     1       4.013   2.219  19.471  0.00  0.00    +0.000 C 
BRANCH  11  12
ATOM     12  C   UNL     1       4.588   3.325  18.604  0.00  0.00    +0.000 C 
ATOM     13  O   UNL     1       5.263   4.252  19.052  0.00  0.00    +0.000 OA
ATOM     14  N   UNL     1       4.277   3.208  17.274  0.00  0.00    +0.000 N 
ATOM     15  H   UNL     1       3.737   2.422  16.939  0.00  0.00    +0.000 HD
BRANCH  14  16
ATOM     16  C   UNL     1       4.734   4.209  16.339  0.00  0.00    +0.000 C 
BRANCH  16  17
ATOM     17  C   UNL     1       5.965   3.738  15.641  0.00  0.00    +0.000 C 
ATOM     18  C   UNL     1       6.361   4.298  14.295  0.00  0.00    +0.000 C 
ATOM     19  C   UNL     1       7.166   4.648  15.514  0.00  0.00    +0.000 C 
ENDBRANCH  16  17
ENDBRANCH  14  16
ENDBRANCH  11  12
ENDBRANCH  10  11
ENDBRANCH   9  10
ENDBRANCH   8   9
ENDBRANCH   7   8
ENDBRANCH   6   7
ENDBRANCH   5   6
ENDBRANCH   4   5
ENDBRANCH   3   4
ENDBRANCH   2   3
ENDBRANCH   1   2
BRANCH   1  20
ATOM     20  O   UNL     1       1.652  10.728  18.888  0.00  0.00    +0.000 OA
BRANCH  20  25
ATOM     21  C   UNL     1      -1.215  12.852  20.004  0.00  0.00    +0.000 A 
ATOM     22  C   UNL     1      -2.233  12.175  19.320  0.00  0.00    +0.000 A 
ATOM     23  C   UNL     1      -1.941  11.054  18.544  0.00  0.00    +0.000 A 
ATOM     24  C   UNL     1      -0.635  10.589  18.420  0.00  0.00    +0.000 A 
ATOM     25  C   UNL     1       0.396  11.252  19.078  0.00  0.00    +0.000 A 
ATOM     26  C   UNL     1       0.098  12.375  19.860  0.00  0.00    +0.000 A 
BRANCH  21  27
ATOM     27  C   UNL     1      -1.491  14.044  20.939  0.00  0.00    +0.000 C 
ATOM     28  C   UNL     1      -2.901  14.651  20.751  0.00  0.00    +0.000 C 
ATOM     29  C   UNL     1      -0.478  15.170  20.627  0.00  0.00    +0.000 C 
BRANCH  27  30
ATOM     30  C   UNL     1      -1.316  13.587  22.421  0.00  0.00    +0.000 C 
BRANCH  30  31
ATOM     31  C   UNL     1      -2.522  12.800  22.944  0.00  0.00    +0.000 C 
BRANCH  31  32
ATOM     32  C   UNL     1      -2.164  11.377  23.340  0.00  0.00    +0.000 C 
BRANCH  32  33
ATOM     33  C   UNL     1      -0.740  11.084  22.876  0.00  0.00    +0.000 C 
BRANCH  33  35
ATOM     34  C   UNL     1      -0.121   8.927  21.774  0.00  0.00    +0.000 C 
ATOM     35  C   UNL     1      -0.386   9.622  23.098  0.00  0.00    +0.000 C 
ENDBRANCH  33  35
ENDBRANCH  32  33
ENDBRANCH  31  32
ENDBRANCH  30  31
ENDBRANCH  27  30
ENDBRANCH  21  27
BRANCH  23  36
ATOM     36  O   UNL     1      -2.933  10.384  17.893  0.00  0.00    +0.000 OA
ATOM     37  H   UNL     1      -2.937   9.463  18.202  0.00  0.00    +0.000 HD
ENDBRANCH  23  36
ENDBRANCH  20  25
ENDBRANCH   1  20
TORSDOF 22
ENDMDL
MODEL 6
REMARK VINA RESULT:      -6.1      2.005      4.305
REMARK  Name = 
REMARK  25 active torsions:
REMARK  status: ('A' for Active; 'I' for Inactive)
REMARK    1  A    between atoms: C_1  and  C_2
REMARK    2  A    between atoms: C_2  and  C_3
REMARK    3  A    between atoms: C_3  and  C_4
REMARK    4  A    between atoms: C_4  and  C_5
REMARK    5  A    between atoms: C_5  and  C_6
REMARK    6  A    between atoms: C_6  and  C_7
REMARK    7  A    between atoms: C_7  and  C_8
REMARK    8  A    between atoms: C_7  and  C_9
REMARK    9  A    between atoms: C_7  and  C_10
REMARK   10  A    between atoms: C_12  and  O_13
REMARK   11  A    between atoms: C_15  and  O_16
REMARK   12  A    between atoms: O_16  and  C_17
REMARK   13  A    between atoms: C_17  and  C_18
REMARK   14  A    between atoms: C_18  and  C_19
REMARK   15  A    between atoms: C_19  and  C_20
REMARK   16  A    between atoms: C_20  and  C_21
REMARK   17  A    between atoms: C_21  and  C_22
REMARK   18  A    between atoms: C_22  and  C_23
REMARK   19  A    between atoms: C_23  and  C_24
REMARK   20  A    between atoms: C_24  and  C_25
REMARK   21  A    between atoms: C_25  and  C_26
REMARK   22  A    between atoms: C_26  and  C_27
REMARK   23  A    between atoms: C_27  and  C_28
REMARK   24  A    between atoms: N_30  and  C_31
REMARK   25  A    between atoms: C_31  and  C_32
REMARK                            x       y       z     vdW  Elec       q    Type
REMARK                         _______ _______ _______ _____ _____    ______ ____
ROOT
ATOM      1  C   UNL     1       0.009  10.146  17.989  0.00  0.00    +0.000 C 
ENDROOT
BRANCH   1   2
ATOM      2  C   UNL     1       0.774   8.840  17.814  0.00  0.00    +0.000 C 
BRANCH   2   3
ATOM      3  C   UNL     1       2.278   9.042  18.004  0.00  0.00    +0.000 C 
BRANCH   3   4
ATOM      4  C   UNL     1       3.052   7.740  17.805  0.00  0.00    +0.000 C 
BRANCH   4   5
ATOM      5  C   UNL     1       2.498   6.620  18.668  0.00  0.00    +0.000 C 
BRANCH   5   6
ATOM      6  C   UNL     1       1.993   5.487  17.782  0.00  0.00    +0.000 C 
BRANCH   6   7
ATOM      7  C   UNL     1       1.594   4.293  18.636  0.00  0.00    +0.000 C 
BRANCH   7   8
ATOM      8  C   UNL     1       2.485   4.192  19.865  0.00  0.00    +0.000 C 
BRANCH   8   9
ATOM      9  C   UNL     1       3.148   2.818  19.938  0.00  0.00    +0.000 C 
BRANCH   9  10
ATOM     10  C   UNL     1       4.513   2.867  19.261  0.00  0.00    +0.000 C 
BRANCH  10  11
ATOM     11  C   UNL     1       5.208   4.209  19.460  0.00  0.00    +0.000 C 
BRANCH  11  12
ATOM     12  C   UNL     1       6.077   4.532  18.257  0.00  0.00    +0.000 C 
ATOM     13  O   UNL     1       7.307   4.521  18.290  0.00  0.00    +0.000 OA
ATOM     14  N   UNL     1       5.367   4.851  17.128  0.00  0.00    +0.000 N 
ATOM     15  H   UNL     1       4.357   4.829  17.132  0.00  0.00    +0.000 HD
BRANCH  14  16
ATOM     16  C   UNL     1       6.068   5.209  15.917  0.00  0.00    +0.000 C 
BRANCH  16  17
ATOM     17  C   UNL     1       6.131   4.040  14.993  0.00  0.00    +0.000 C 
ATOM     18  C   UNL     1       5.234   3.953  13.781  0.00  0.00    +0.000 C 
ATOM     19  C   UNL     1       6.706   4.195  13.604  0.00  0.00    +0.000 C 
ENDBRANCH  16  17
ENDBRANCH  14  16
ENDBRANCH  11  12
ENDBRANCH  10  11
ENDBRANCH   9  10
ENDBRANCH   8   9
ENDBRANCH   7   8
ENDBRANCH   6   7
ENDBRANCH   5   6
ENDBRANCH   4   5
ENDBRANCH   3   4
ENDBRANCH   2   3
ENDBRANCH   1   2
BRANCH   1  20
ATOM     20  O   UNL     1      -1.251  10.082  17.324  0.00  0.00    +0.000 OA
BRANCH  20  25
ATOM     21  C   UNL     1      -3.182  12.278  19.652  0.00  0.00    +0.000 A 
ATOM     22  C   UNL     1      -4.435  12.155  19.038  0.00  0.00    +0.000 A 
ATOM     23  C   UNL     1      -4.594  11.353  17.908  0.00  0.00    +0.000 A 
ATOM     24  C   UNL     1      -3.515  10.668  17.358  0.00  0.00    +0.000 A 
ATOM     25  C   UNL     1      -2.257  10.785  17.941  0.00  0.00    +0.000 A 
ATOM     26  C   UNL     1      -2.103  11.588  19.078  0.00  0.00    +0.000 A 
BRANCH  21  27
ATOM     27  C   UNL     1      -2.967  13.083  20.947  0.00  0.00    +0.000 C 
ATOM     28  C   UNL     1      -3.601  12.417  22.191  0.00  0.00    +0.000 C 
ATOM     29  C   UNL     1      -3.639  14.467  20.793  0.00  0.00    +0.000 C 
BRANCH  27  30
ATOM     30  C   UNL     1      -1.437  13.276  21.185  0.00  0.00    +0.000 C 
BRANCH  30  31
ATOM     31  C   UNL     1      -0.913  12.452  22.367  0.00  0.00    +0.000 C 
BRANCH  31  32
ATOM     32  C   UNL     1       0.066  11.372  21.938  0.00  0.00    +0.000 C 
BRANCH  32  33
ATOM     33  C   UNL     1      -0.387  10.039  22.526  0.00  0.00    +0.000 C 
BRANCH  33  35
ATOM     34  C   UNL     1       1.126   8.335  21.499  0.00  0.00    +0.000 C 
ATOM     35  C   UNL     1      -0.274   8.925  21.498  0.00  0.00    +0.000 C 
ENDBRANCH  33  35
ENDBRANCH  32  33
ENDBRANCH  31  32
ENDBRANCH  30  31
ENDBRANCH  27  30
ENDBRANCH  21  27
BRANCH  23  36
ATOM     36  O   UNL     1      -5.816  11.217  17.320  0.00  0.00    +0.000 OA
ATOM     37  H   UNL     1      -5.872  11.844  16.579  0.00  0.00    +0.000 HD
ENDBRANCH  23  36
ENDBRANCH  20  25
ENDBRANCH   1  20
TORSDOF 22
ENDMDL
MODEL 7
REMARK VINA RESULT:      -6.0      3.098      5.407
REMARK  Name = 
REMARK  25 active torsions:
REMARK  status: ('A' for Active; 'I' for Inactive)
REMARK    1  A    between atoms: C_1  and  C_2
REMARK    2  A    between atoms: C_2  and  C_3
REMARK    3  A    between atoms: C_3  and  C_4
REMARK    4  A    between atoms: C_4  and  C_5
REMARK    5  A    between atoms: C_5  and  C_6
REMARK    6  A    between atoms: C_6  and  C_7
REMARK    7  A    between atoms: C_7  and  C_8
REMARK    8  A    between atoms: C_7  and  C_9
REMARK    9  A    between atoms: C_7  and  C_10
REMARK   10  A    between atoms: C_12  and  O_13
REMARK   11  A    between atoms: C_15  and  O_16
REMARK   12  A    between atoms: O_16  and  C_17
REMARK   13  A    between atoms: C_17  and  C_18
REMARK   14  A    between atoms: C_18  and  C_19
REMARK   15  A    between atoms: C_19  and  C_20
REMARK   16  A    between atoms: C_20  and  C_21
REMARK   17  A    between atoms: C_21  and  C_22
REMARK   18  A    between atoms: C_22  and  C_23
REMARK   19  A    between atoms: C_23  and  C_24
REMARK   20  A    between atoms: C_24  and  C_25
REMARK   21  A    between atoms: C_25  and  C_26
REMARK   22  A    between atoms: C_26  and  C_27
REMARK   23  A    between atoms: C_27  and  C_28
REMARK   24  A    between atoms: N_30  and  C_31
REMARK   25  A    between atoms: C_31  and  C_32
REMARK                            x       y       z     vdW  Elec       q    Type
REMARK                         _______ _______ _______ _____ _____    ______ ____
ROOT
ATOM      1  C   UNL     1       1.442   8.877  19.156  0.00  0.00    +0.000 C 
ENDROOT
BRANCH   1   2
ATOM      2  C   UNL     1       2.295   8.759  17.898  0.00  0.00    +0.000 C 
BRANCH   2   3
ATOM      3  C   UNL     1       3.132   7.479  17.909  0.00  0.00    +0.000 C 
BRANCH   3   4
ATOM      4  C   UNL     1       2.491   6.393  18.771  0.00  0.00    +0.000 C 
BRANCH   4   5
ATOM      5  C   UNL     1       1.922   5.268  17.924  0.00  0.00    +0.000 C 
BRANCH   5   6
ATOM      6  C   UNL     1       2.958   4.159  17.773  0.00  0.00    +0.000 C 
BRANCH   6   7
ATOM      7  C   UNL     1       3.222   3.502  19.120  0.00  0.00    +0.000 C 
BRANCH   7   8
ATOM      8  C   UNL     1       4.716   3.324  19.343  0.00  0.00    +0.000 C 
BRANCH   8   9
ATOM      9  C   UNL     1       5.512   4.264  18.439  0.00  0.00    +0.000 C 
BRANCH   9  10
ATOM     10  C   UNL     1       6.222   5.314  19.285  0.00  0.00    +0.000 C 
BRANCH  10  11
ATOM     11  C   UNL     1       7.428   5.913  18.570  0.00  0.00    +0.000 C 
BRANCH  11  12
ATOM     12  C   UNL     1       7.162   5.999  17.078  0.00  0.00    +0.000 C 
ATOM     13  O   UNL     1       6.551   6.929  16.553  0.00  0.00    +0.000 OA
ATOM     14  N   UNL     1       7.655   4.938  16.363  0.00  0.00    +0.000 N 
ATOM     15  H   UNL     1       8.171   4.201  16.825  0.00  0.00    +0.000 HD
BRANCH  14  16
ATOM     16  C   UNL     1       7.448   4.875  14.935  0.00  0.00    +0.000 C 
BRANCH  16  17
ATOM     17  C   UNL     1       6.370   3.897  14.613  0.00  0.00    +0.000 C 
ATOM     18  C   UNL     1       4.948   4.350  14.380  0.00  0.00    +0.000 C 
ATOM     19  C   UNL     1       5.770   3.851  13.226  0.00  0.00    +0.000 C 
ENDBRANCH  16  17
ENDBRANCH  14  16
ENDBRANCH  11  12
ENDBRANCH  10  11
ENDBRANCH   9  10
ENDBRANCH   8   9
ENDBRANCH   7   8
ENDBRANCH   6   7
ENDBRANCH   5   6
ENDBRANCH   4   5
ENDBRANCH   3   4
ENDBRANCH   2   3
ENDBRANCH   1   2
BRANCH   1  20
ATOM     20  O   UNL     1       0.480   9.920  19.012  0.00  0.00    +0.000 OA
BRANCH  20  25
ATOM     21  C   UNL     1      -0.997  12.155  21.620  0.00  0.00    +0.000 A 
ATOM     22  C   UNL     1      -0.912  11.269  22.702  0.00  0.00    +0.000 A 
ATOM     23  C   UNL     1      -0.365   9.997  22.536  0.00  0.00    +0.000 A 
ATOM     24  C   UNL     1       0.096   9.572  21.293  0.00  0.00    +0.000 A 
ATOM     25  C   UNL     1       0.011  10.428  20.199  0.00  0.00    +0.000 A 
ATOM     26  C   UNL     1      -0.535  11.707  20.372  0.00  0.00    +0.000 A 
BRANCH  21  27
ATOM     27  C   UNL     1      -1.514  13.597  21.766  0.00  0.00    +0.000 C 
ATOM     28  C   UNL     1      -1.505  14.385  20.435  0.00  0.00    +0.000 C 
ATOM     29  C   UNL     1      -0.592  14.363  22.742  0.00  0.00    +0.000 C 
BRANCH  27  30
ATOM     30  C   UNL     1      -2.965  13.568  22.340  0.00  0.00    +0.000 C 
BRANCH  30  31
ATOM     31  C   UNL     1      -4.024  13.307  21.264  0.00  0.00    +0.000 C 
BRANCH  31  32
ATOM     32  C   UNL     1      -5.344  12.833  21.846  0.00  0.00    +0.000 C 
BRANCH  32  33
ATOM     33  C   UNL     1      -6.210  14.051  22.154  0.00  0.00    +0.000 C 
BRANCH  33  35
ATOM     34  C   UNL     1      -7.540  13.446  24.181  0.00  0.00    +0.000 C 
ATOM     35  C   UNL     1      -6.362  14.246  23.654  0.00  0.00    +0.000 C 
ENDBRANCH  33  35
ENDBRANCH  32  33
ENDBRANCH  31  32
ENDBRANCH  30  31
ENDBRANCH  27  30
ENDBRANCH  21  27
BRANCH  23  36
ATOM     36  O   UNL     1      -0.266   9.140  23.591  0.00  0.00    +0.000 OA
ATOM     37  H   UNL     1       0.671   9.064  23.839  0.00  0.00    +0.000 HD
ENDBRANCH  23  36
ENDBRANCH  20  25
ENDBRANCH   1  20
TORSDOF 22
ENDMDL
MODEL 8
REMARK VINA RESULT:      -6.0      3.062     11.165
REMARK  Name = 
REMARK  25 active torsions:
REMARK  status: ('A' for Active; 'I' for Inactive)
REMARK    1  A    between atoms: C_1  and  C_2
REMARK    2  A    between atoms: C_2  and  C_3
REMARK    3  A    between atoms: C_3  and  C_4
REMARK    4  A    between atoms: C_4  and  C_5
REMARK    5  A    between atoms: C_5  and  C_6
REMARK    6  A    between atoms: C_6  and  C_7
REMARK    7  A    between atoms: C_7  and  C_8
REMARK    8  A    between atoms: C_7  and  C_9
REMARK    9  A    between atoms: C_7  and  C_10
REMARK   10  A    between atoms: C_12  and  O_13
REMARK   11  A    between atoms: C_15  and  O_16
REMARK   12  A    between atoms: O_16  and  C_17
REMARK   13  A    between atoms: C_17  and  C_18
REMARK   14  A    between atoms: C_18  and  C_19
REMARK   15  A    between atoms: C_19  and  C_20
REMARK   16  A    between atoms: C_20  and  C_21
REMARK   17  A    between atoms: C_21  and  C_22
REMARK   18  A    between atoms: C_22  and  C_23
REMARK   19  A    between atoms: C_23  and  C_24
REMARK   20  A    between atoms: C_24  and  C_25
REMARK   21  A    between atoms: C_25  and  C_26
REMARK   22  A    between atoms: C_26  and  C_27
REMARK   23  A    between atoms: C_27  and  C_28
REMARK   24  A    between atoms: N_30  and  C_31
REMARK   25  A    between atoms: C_31  and  C_32
REMARK                            x       y       z     vdW  Elec       q    Type
REMARK                         _______ _______ _______ _____ _____    ______ ____
ROOT
ATOM      1  C   UNL     1       1.682   6.609  20.816  0.00  0.00    +0.000 C 
ENDROOT
BRANCH   1   2
ATOM      2  C   UNL     1       0.750   7.791  21.057  0.00  0.00    +0.000 C 
BRANCH   2   3
ATOM      3  C   UNL     1       1.447   8.901  21.844  0.00  0.00    +0.000 C 
BRANCH   3   4
ATOM      4  C   UNL     1       0.830  10.269  21.558  0.00  0.00    +0.000 C 
BRANCH   4   5
ATOM      5  C   UNL     1      -0.345  10.557  22.476  0.00  0.00    +0.000 C 
BRANCH   5   6
ATOM      6  C   UNL     1      -1.240  11.621  21.850  0.00  0.00    +0.000 C 
BRANCH   6   7
ATOM      7  C   UNL     1      -1.045  12.954  22.559  0.00  0.00    +0.000 C 
BRANCH   7   8
ATOM      8  C   UNL     1      -2.245  13.270  23.440  0.00  0.00    +0.000 C 
BRANCH   8   9
ATOM      9  C   UNL     1      -3.462  12.456  23.005  0.00  0.00    +0.000 C 
BRANCH   9  10
ATOM     10  C   UNL     1      -4.552  13.392  22.495  0.00  0.00    +0.000 C 
BRANCH  10  11
ATOM     11  C   UNL     1      -4.269  13.892  21.083  0.00  0.00    +0.000 C 
BRANCH  11  12
ATOM     12  C   UNL     1      -4.470  12.770  20.079  0.00  0.00    +0.000 C 
ATOM     13  O   UNL     1      -5.491  12.085  20.028  0.00  0.00    +0.000 OA
ATOM     14  N   UNL     1      -3.404  12.578  19.239  0.00  0.00    +0.000 N 
ATOM     15  H   UNL     1      -2.589  13.174  19.297  0.00  0.00    +0.000 HD
BRANCH  14  16
ATOM     16  C   UNL     1      -3.447  11.524  18.254  0.00  0.00    +0.000 C 
BRANCH  16  17
ATOM     17  C   UNL     1      -2.350  10.543  18.499  0.00  0.00    +0.000 C 
ATOM     18  C   UNL     1      -1.609   9.898  17.352  0.00  0.00    +0.000 C 
ATOM     19  C   UNL     1      -0.914  10.916  18.210  0.00  0.00    +0.000 C 
ENDBRANCH  16  17
ENDBRANCH  14  16
ENDBRANCH  11  12
ENDBRANCH  10  11
ENDBRANCH   9  10
ENDBRANCH   8   9
ENDBRANCH   7   8
ENDBRANCH   6   7
ENDBRANCH   5   6
ENDBRANCH   4   5
ENDBRANCH   3   4
ENDBRANCH   2   3
ENDBRANCH   1   2
BRANCH   1  20
ATOM     20  O   UNL     1       2.209   6.648  19.492  0.00  0.00    +0.000 OA
BRANCH  20  25
ATOM     21  C   UNL     1       5.527   5.158  18.630  0.00  0.00    +0.000 A 
ATOM     22  C   UNL     1       5.203   3.816  18.870  0.00  0.00    +0.000 A 
ATOM     23  C   UNL     1       3.920   3.460  19.283  0.00  0.00    +0.000 A 
ATOM     24  C   UNL     1       2.937   4.426  19.480  0.00  0.00    +0.000 A 
ATOM     25  C   UNL     1       3.237   5.767  19.262  0.00  0.00    +0.000 A 
ATOM     26  C   UNL     1       4.527   6.119  18.842  0.00  0.00    +0.000 A 
BRANCH  21  27
ATOM     27  C   UNL     1       6.902   5.598  18.094  0.00  0.00    +0.000 C 
ATOM     28  C   UNL     1       7.975   5.727  19.201  0.00  0.00    +0.000 C 
ATOM     29  C   UNL     1       6.762   6.995  17.446  0.00  0.00    +0.000 C 
BRANCH  27  30
ATOM     30  C   UNL     1       7.387   4.576  17.019  0.00  0.00    +0.000 C 
BRANCH  30  31
ATOM     31  C   UNL     1       6.920   4.938  15.605  0.00  0.00    +0.000 C 
BRANCH  31  32
ATOM     32  C   UNL     1       5.614   4.258  15.229  0.00  0.00    +0.000 C 
BRANCH  32  33
ATOM     33  C   UNL     1       5.410   4.388  13.723  0.00  0.00    +0.000 C 
BRANCH  33  35
ATOM     34  C   UNL     1       5.499   2.851  11.754  0.00  0.00    +0.000 C 
ATOM     35  C   UNL     1       6.248   3.368  12.970  0.00  0.00    +0.000 C 
ENDBRANCH  33  35
ENDBRANCH  32  33
ENDBRANCH  31  32
ENDBRANCH  30  31
ENDBRANCH  27  30
ENDBRANCH  21  27
BRANCH  23  36
ATOM     36  O   UNL     1       3.598   2.154  19.500  0.00  0.00    +0.000 OA
ATOM     37  H   UNL     1       3.738   1.954  20.440  0.00  0.00    +0.000 HD
ENDBRANCH  23  36
ENDBRANCH  20  25
ENDBRANCH   1  20
TORSDOF 22
ENDMDL
MODEL 9
REMARK VINA RESULT:      -5.9      3.226      5.990
REMARK  Name = 
REMARK  25 active torsions:
REMARK  status: ('A' for Active; 'I' for Inactive)
REMARK    1  A    between atoms: C_1  and  C_2
REMARK    2  A    between atoms: C_2  and  C_3
REMARK    3  A    between atoms: C_3  and  C_4
REMARK    4  A    between atoms: C_4  and  C_5
REMARK    5  A    between atoms: C_5  and  C_6
REMARK    6  A    between atoms: C_6  and  C_7
REMARK    7  A    between atoms: C_7  and  C_8
REMARK    8  A    between atoms: C_7  and  C_9
REMARK    9  A    between atoms: C_7  and  C_10
REMARK   10  A    between atoms: C_12  and  O_13
REMARK   11  A    between atoms: C_15  and  O_16
REMARK   12  A    between atoms: O_16  and  C_17
REMARK   13  A    between atoms: C_17  and  C_18
REMARK   14  A    between atoms: C_18  and  C_19
REMARK   15  A    between atoms: C_19  and  C_20
REMARK   16  A    between atoms: C_20  and  C_21
REMARK   17  A    between atoms: C_21  and  C_22
REMARK   18  A    between atoms: C_22  and  C_23
REMARK   19  A    between atoms: C_23  and  C_24
REMARK   20  A    between atoms: C_24  and  C_25
REMARK   21  A    between atoms: C_25  and  C_26
REMARK   22  A    between atoms: C_26  and  C_27
REMARK   23  A    between atoms: C_27  and  C_28
REMARK   24  A    between atoms: N_30  and  C_31
REMARK   25  A    between atoms: C_31  and  C_32
REMARK                            x       y       z     vdW  Elec       q    Type
REMARK                         _______ _______ _______ _____ _____    ______ ____
ROOT
ATOM      1  C   UNL     1       2.259   7.318  19.918  0.00  0.00    +0.000 C 
ENDROOT
BRANCH   1   2
ATOM      2  C   UNL     1       1.270   6.292  20.460  0.00  0.00    +0.000 C 
BRANCH   2   3
ATOM      3  C   UNL     1       1.983   5.027  20.941  0.00  0.00    +0.000 C 
BRANCH   3   4
ATOM      4  C   UNL     1       1.156   3.773  20.666  0.00  0.00    +0.000 C 
BRANCH   4   5
ATOM      5  C   UNL     1       2.037   2.580  20.339  0.00  0.00    +0.000 C 
BRANCH   5   6
ATOM      6  C   UNL     1       1.684   2.041  18.957  0.00  0.00    +0.000 C 
BRANCH   6   7
ATOM      7  C   UNL     1       2.856   2.231  18.005  0.00  0.00    +0.000 C 
BRANCH   7   8
ATOM      8  C   UNL     1       2.617   3.427  17.096  0.00  0.00    +0.000 C 
BRANCH   8   9
ATOM      9  C   UNL     1       3.305   4.672  17.650  0.00  0.00    +0.000 C 
BRANCH   9  10
ATOM     10  C   UNL     1       4.791   4.395  17.851  0.00  0.00    +0.000 C 
BRANCH  10  11
ATOM     11  C   UNL     1       5.351   5.108  19.076  0.00  0.00    +0.000 C 
BRANCH  11  12
ATOM     12  C   UNL     1       6.692   5.739  18.747  0.00  0.00    +0.000 C 
ATOM     13  O   UNL     1       7.755   5.359  19.236  0.00  0.00    +0.000 OA
ATOM     14  N   UNL     1       6.613   6.784  17.862  0.00  0.00    +0.000 N 
ATOM     15  H   UNL     1       5.724   7.055  17.465  0.00  0.00    +0.000 HD
BRANCH  14  16
ATOM     16  C   UNL     1       7.810   7.496  17.484  0.00  0.00    +0.000 C 
BRANCH  16  17
ATOM     17  C   UNL     1       7.784   8.880  18.038  0.00  0.00    +0.000 C 
ATOM     18  C   UNL     1       8.872   9.372  18.963  0.00  0.00    +0.000 C 
ATOM     19  C   UNL     1       8.782   9.912  17.564  0.00  0.00    +0.000 C 
ENDBRANCH  16  17
ENDBRANCH  14  16
ENDBRANCH  11  12
ENDBRANCH  10  11
ENDBRANCH   9  10
ENDBRANCH   8   9
ENDBRANCH   7   8
ENDBRANCH   6   7
ENDBRANCH   5   6
ENDBRANCH   4   5
ENDBRANCH   3   4
ENDBRANCH   2   3
ENDBRANCH   1   2
BRANCH   1  20
ATOM     20  O   UNL     1       1.575   8.347  19.208  0.00  0.00    +0.000 OA
BRANCH  20  25
ATOM     21  C   UNL     1      -0.488  11.214  20.434  0.00  0.00    +0.000 A 
ATOM     22  C   UNL     1      -0.396  10.945  21.805  0.00  0.00    +0.000 A 
ATOM     23  C   UNL     1       0.344   9.856  22.265  0.00  0.00    +0.000 A 
ATOM     24  C   UNL     1       0.996   9.006  21.377  0.00  0.00    +0.000 A 
ATOM     25  C   UNL     1       0.909   9.244  20.008  0.00  0.00    +0.000 A 
ATOM     26  C   UNL     1       0.168  10.341  19.551  0.00  0.00    +0.000 A 
BRANCH  21  27
ATOM     27  C   UNL     1      -1.222  12.447  19.876  0.00  0.00    +0.000 C 
ATOM     28  C   UNL     1      -2.725  12.479  20.242  0.00  0.00    +0.000 C 
ATOM     29  C   UNL     1      -1.141  12.422  18.332  0.00  0.00    +0.000 C 
BRANCH  27  30
ATOM     30  C   UNL     1      -0.532  13.742  20.408  0.00  0.00    +0.000 C 
BRANCH  30  31
ATOM     31  C   UNL     1      -0.505  14.868  19.370  0.00  0.00    +0.000 C 
BRANCH  31  32
ATOM     32  C   UNL     1       0.902  15.190  18.894  0.00  0.00    +0.000 C 
BRANCH  32  33
ATOM     33  C   UNL     1       1.900  14.457  19.785  0.00  0.00    +0.000 C 
BRANCH  33  35
ATOM     34  C   UNL     1       3.720  14.460  18.072  0.00  0.00    +0.000 C 
ATOM     35  C   UNL     1       2.839  13.595  18.956  0.00  0.00    +0.000 C 
ENDBRANCH  33  35
ENDBRANCH  32  33
ENDBRANCH  31  32
ENDBRANCH  30  31
ENDBRANCH  27  30
ENDBRANCH  21  27
BRANCH  23  36
ATOM     36  O   UNL     1       0.450   9.603  23.600  0.00  0.00    +0.000 OA
ATOM     37  H   UNL     1       1.269  10.011  23.927  0.00  0.00    +0.000 HD
ENDBRANCH  23  36
ENDBRANCH  20  25
ENDBRANCH   1  20
TORSDOF 22
ENDMDL
