MODEL 1
REMARK VINA RESULT:      -8.0      0.000      0.000
REMARK  Name = 
REMARK  7 active torsions:
REMARK  status: ('A' for Active; 'I' for Inactive)
REMARK    1  A    between atoms: C_1  and  C_2
REMARK    2  A    between atoms: C_2  and  C_3
REMARK    3  A    between atoms: C_2  and  C_4
REMARK    4  A    between atoms: C_2  and  O_6
REMARK    5  A    between atoms: C_4  and  N_5
REMARK    6  A    between atoms: O_6  and  C_7
REMARK    7  A    between atoms: C_10  and  C_11
REMARK                            x       y       z     vdW  Elec       q    Type
REMARK                         _______ _______ _______ _____ _____    ______ ____
ROOT
ATOM      1  C   UNL     1      -0.537   9.497  20.442  0.00  0.00    +0.000 C 
ATOM      2  C   UNL     1      -0.737   9.323  21.981  0.00  0.00    +0.000 C 
ATOM      3  C   UNL     1      -0.314  10.485  22.919  0.00  0.00    +0.000 C 
ATOM      4  C   UNL     1      -0.662  11.850  22.327  0.00  0.00    +0.000 C 
ATOM      5  C   UNL     1      -0.025  11.926  20.938  0.00  0.00    +0.000 C 
ATOM      6  C   UNL     1      -0.705  10.958  19.990  0.00  0.00    +0.000 C 
ATOM      7  O   UNL     1      -0.201  12.981  23.053  0.00  0.00    +0.000 OA
ATOM      8  O   UNL     1      -1.166  14.016  22.609  0.00  0.00    +0.000 OA
ATOM      9  C   UNL     1      -2.400  13.299  22.662  0.00  0.00    +0.000 C 
ATOM     10  O   UNL     1      -2.090  11.946  22.303  0.00  0.00    +0.000 OA
ATOM     11  C   UNL     1      -2.934  13.427  24.110  0.00  0.00    +0.000 C 
ATOM     12  C   UNL     1      -4.180  12.551  24.293  0.00  0.00    +0.000 C 
ATOM     13  C   UNL     1      -5.279  12.999  23.318  0.00  0.00    +0.000 C 
ATOM     14  C   UNL     1      -5.647  14.462  23.618  0.00  0.00    +0.000 C 
ATOM     15  C   UNL     1      -4.415  15.365  23.422  0.00  0.00    +0.000 C 
ATOM     16  C   UNL     1      -3.304  14.908  24.383  0.00  0.00    +0.000 C 
ATOM     17  C   UNL     1      -3.908  15.240  21.975  0.00  0.00    +0.000 C 
ATOM     18  C   UNL     1      -3.500  13.786  21.686  0.00  0.00    +0.000 C 
ATOM     19  C   UNL     1      -4.760  12.896  21.869  0.00  0.00    +0.000 C 
ENDROOT
BRANCH   1  23
ATOM     20  C   UNL     1       2.873   7.495  18.524  0.00  0.00    +0.000 A 
ATOM     21  C   UNL     1       2.471   7.212  19.826  0.00  0.00    +0.000 A 
ATOM     22  C   UNL     1       1.403   7.894  20.423  0.00  0.00    +0.000 A 
ATOM     23  C   UNL     1       0.683   8.900  19.745  0.00  0.00    +0.000 A 
ATOM     24  C   UNL     1       1.129   9.219  18.460  0.00  0.00    +0.000 A 
ATOM     25  C   UNL     1       2.224   8.537  17.862  0.00  0.00    +0.000 A 
BRANCH  20  26
ATOM     26  O   UNL     1       3.886   6.705  18.061  0.00  0.00    +0.000 OA
BRANCH  26  28
ATOM     27  C   UNL     1       4.609   4.971  16.618  0.00  0.00    +0.000 C 
ATOM     28  C   UNL     1       3.860   5.263  17.946  0.00  0.00    +0.000 C 
ATOM     29  C   UNL     1       2.415   4.777  17.758  0.00  0.00    +0.000 C 
BRANCH  28  30
ATOM     30  C   UNL     1       4.622   4.521  19.086  0.00  0.00    +0.000 C 
BRANCH  30  31
ATOM     31  N   UNL     1       5.959   4.025  18.734  0.00  0.00    +0.000 NA
ATOM     32  H   UNL     1       6.375   4.629  18.025  0.00  0.00    +0.000 HD
ATOM     33  H   UNL     1       5.868   3.108  18.298  0.00  0.00    +0.000 HD
ENDBRANCH  30  31
ENDBRANCH  28  30
ENDBRANCH  26  28
ENDBRANCH  20  26
ENDBRANCH   1  23
TORSDOF 5
ENDMDL
MODEL 2
REMARK VINA RESULT:      -7.7      1.317      2.467
REMARK  Name = 
REMARK  7 active torsions:
REMARK  status: ('A' for Active; 'I' for Inactive)
REMARK    1  A    between atoms: C_1  and  C_2
REMARK    2  A    between atoms: C_2  and  C_3
REMARK    3  A    between atoms: C_2  and  C_4
REMARK    4  A    between atoms: C_2  and  O_6
REMARK    5  A    between atoms: C_4  and  N_5
REMARK    6  A    between atoms: O_6  and  C_7
REMARK    7  A    between atoms: C_10  and  C_11
REMARK                            x       y       z     vdW  Elec       q    Type
REMARK                         _______ _______ _______ _____ _____    ______ ____
ROOT
ATOM      1  C   UNL     1       0.905   9.893  20.654  0.00  0.00    +0.000 C 
ATOM      2  C   UNL     1       1.240  11.366  20.256  0.00  0.00    +0.000 C 
ATOM      3  C   UNL     1       0.245  12.129  19.342  0.00  0.00    +0.000 C 
ATOM      4  C   UNL     1      -1.208  11.822  19.700  0.00  0.00    +0.000 C 
ATOM      5  C   UNL     1      -1.383  10.303  19.654  0.00  0.00    +0.000 C 
ATOM      6  C   UNL     1      -0.608   9.648  20.779  0.00  0.00    +0.000 C 
ATOM      7  O   UNL     1      -2.193  12.376  18.838  0.00  0.00    +0.000 OA
ATOM      8  O   UNL     1      -3.365  12.431  19.744  0.00  0.00    +0.000 OA
ATOM      9  C   UNL     1      -2.775  12.928  20.946  0.00  0.00    +0.000 C 
ATOM     10  O   UNL     1      -1.450  12.384  20.994  0.00  0.00    +0.000 OA
ATOM     11  C   UNL     1      -2.785  14.474  20.846  0.00  0.00    +0.000 C 
ATOM     12  C   UNL     1      -2.024  15.084  22.029  0.00  0.00    +0.000 C 
ATOM     13  C   UNL     1      -2.692  14.668  23.349  0.00  0.00    +0.000 C 
ATOM     14  C   UNL     1      -4.139  15.190  23.361  0.00  0.00    +0.000 C 
ATOM     15  C   UNL     1      -4.930  14.576  22.192  0.00  0.00    +0.000 C 
ATOM     16  C   UNL     1      -4.253  14.973  20.868  0.00  0.00    +0.000 C 
ATOM     17  C   UNL     1      -4.927  13.042  22.315  0.00  0.00    +0.000 C 
ATOM     18  C   UNL     1      -3.484  12.515  22.261  0.00  0.00    +0.000 C 
ATOM     19  C   UNL     1      -2.710  13.130  23.459  0.00  0.00    +0.000 C 
ENDROOT
BRANCH   1  23
ATOM     20  C   UNL     1       2.927   6.731  18.366  0.00  0.00    +0.000 A 
ATOM     21  C   UNL     1       2.538   7.940  17.795  0.00  0.00    +0.000 A 
ATOM     22  C   UNL     1       1.862   8.914  18.542  0.00  0.00    +0.000 A 
ATOM     23  C   UNL     1       1.537   8.724  19.901  0.00  0.00    +0.000 A 
ATOM     24  C   UNL     1       1.878   7.485  20.451  0.00  0.00    +0.000 A 
ATOM     25  C   UNL     1       2.550   6.492  19.687  0.00  0.00    +0.000 A 
BRANCH  20  26
ATOM     26  O   UNL     1       3.630   5.912  17.529  0.00  0.00    +0.000 OA
BRANCH  26  28
ATOM     27  C   UNL     1       4.564   4.060  16.385  0.00  0.00    +0.000 C 
ATOM     28  C   UNL     1       3.730   4.472  17.628  0.00  0.00    +0.000 C 
ATOM     29  C   UNL     1       2.342   3.837  17.463  0.00  0.00    +0.000 C 
BRANCH  28  30
ATOM     30  C   UNL     1       4.496   3.975  18.891  0.00  0.00    +0.000 C 
BRANCH  30  31
ATOM     31  N   UNL     1       5.958   3.921  18.764  0.00  0.00    +0.000 NA
ATOM     32  H   UNL     1       6.307   3.048  19.160  0.00  0.00    +0.000 HD
ATOM     33  H   UNL     1       6.367   4.664  19.330  0.00  0.00    +0.000 HD
ENDBRANCH  30  31
ENDBRANCH  28  30
ENDBRANCH  26  28
ENDBRANCH  20  26
ENDBRANCH   1  23
TORSDOF 5
ENDMDL
MODEL 3
REMARK VINA RESULT:      -7.7      3.051      3.965
REMARK  Name = 
REMARK  7 active torsions:
REMARK  status: ('A' for Active; 'I' for Inactive)
REMARK    1  A    between atoms: C_1  and  C_2
REMARK    2  A    between atoms: C_2  and  C_3
REMARK    3  A    between atoms: C_2  and  C_4
REMARK    4  A    between atoms: C_2  and  O_6
REMARK    5  A    between atoms: C_4  and  N_5
REMARK    6  A    between atoms: O_6  and  C_7
REMARK    7  A    between atoms: C_10  and  C_11
REMARK                            x       y       z     vdW  Elec       q    Type
REMARK                         _______ _______ _______ _____ _____    ______ ____
ROOT
ATOM      1  C   UNL     1       0.413  10.975  18.980  0.00  0.00    +0.000 C 
ATOM      2  C   UNL     1      -0.839  11.343  19.839  0.00  0.00    +0.000 C 
ATOM      3  C   UNL     1      -0.625  12.141  21.152  0.00  0.00    +0.000 C 
ATOM      4  C   UNL     1       0.448  13.218  20.997  0.00  0.00    +0.000 C 
ATOM      5  C   UNL     1       1.718  12.533  20.488  0.00  0.00    +0.000 C 
ATOM      6  C   UNL     1       1.520  12.039  19.069  0.00  0.00    +0.000 C 
ATOM      7  O   UNL     1       0.804  13.919  22.180  0.00  0.00    +0.000 OA
ATOM      8  O   UNL     1       1.324  15.187  21.613  0.00  0.00    +0.000 OA
ATOM      9  C   UNL     1       0.354  15.469  20.605  0.00  0.00    +0.000 C 
ATOM     10  O   UNL     1      -0.070  14.200  20.092  0.00  0.00    +0.000 OA
ATOM     11  C   UNL     1      -0.794  16.252  21.291  0.00  0.00    +0.000 C 
ATOM     12  C   UNL     1      -1.954  16.457  20.309  0.00  0.00    +0.000 C 
ATOM     13  C   UNL     1      -1.469  17.257  19.090  0.00  0.00    +0.000 C 
ATOM     14  C   UNL     1      -0.964  18.630  19.562  0.00  0.00    +0.000 C 
ATOM     15  C   UNL     1       0.215  18.450  20.537  0.00  0.00    +0.000 C 
ATOM     16  C   UNL     1      -0.260  17.633  21.750  0.00  0.00    +0.000 C 
ATOM     17  C   UNL     1       1.353  17.689  19.835  0.00  0.00    +0.000 C 
ATOM     18  C   UNL     1       0.862  16.299  19.398  0.00  0.00    +0.000 C 
ATOM     19  C   UNL     1      -0.312  16.503  18.402  0.00  0.00    +0.000 C 
ENDROOT
BRANCH   1  23
ATOM     20  C   UNL     1       2.483   7.101  19.129  0.00  0.00    +0.000 A 
ATOM     21  C   UNL     1       2.352   7.838  17.955  0.00  0.00    +0.000 A 
ATOM     22  C   UNL     1       1.654   9.053  17.932  0.00  0.00    +0.000 A 
ATOM     23  C   UNL     1       1.047   9.589  19.086  0.00  0.00    +0.000 A 
ATOM     24  C   UNL     1       1.132   8.816  20.247  0.00  0.00    +0.000 A 
ATOM     25  C   UNL     1       1.828   7.576  20.264  0.00  0.00    +0.000 A 
BRANCH  20  26
ATOM     26  O   UNL     1       3.243   5.973  19.004  0.00  0.00    +0.000 OA
BRANCH  26  28
ATOM     27  C   UNL     1       3.992   3.775  18.535  0.00  0.00    +0.000 C 
ATOM     28  C   UNL     1       2.751   4.614  18.941  0.00  0.00    +0.000 C 
ATOM     29  C   UNL     1       1.730   4.478  17.801  0.00  0.00    +0.000 C 
BRANCH  28  30
ATOM     30  C   UNL     1       2.237   4.060  20.305  0.00  0.00    +0.000 C 
BRANCH  30  31
ATOM     31  N   UNL     1       0.787   3.849  20.396  0.00  0.00    +0.000 NA
ATOM     32  H   UNL     1       0.306   4.749  20.377  0.00  0.00    +0.000 HD
ATOM     33  H   UNL     1       0.568   3.437  21.302  0.00  0.00    +0.000 HD
ENDBRANCH  30  31
ENDBRANCH  28  30
ENDBRANCH  26  28
ENDBRANCH  20  26
ENDBRANCH   1  23
TORSDOF 5
ENDMDL
MODEL 4
REMARK VINA RESULT:      -7.7      2.967      3.921
REMARK  Name = 
REMARK  7 active torsions:
REMARK  status: ('A' for Active; 'I' for Inactive)
REMARK    1  A    between atoms: C_1  and  C_2
REMARK    2  A    between atoms: C_2  and  C_3
REMARK    3  A    between atoms: C_2  and  C_4
REMARK    4  A    between atoms: C_2  and  O_6
REMARK    5  A    between atoms: C_4  and  N_5
REMARK    6  A    between atoms: O_6  and  C_7
REMARK    7  A    between atoms: C_10  and  C_11
REMARK                            x       y       z     vdW  Elec       q    Type
REMARK                         _______ _______ _______ _____ _____    ______ ____
ROOT
ATOM      1  C   UNL     1       0.487  10.990  18.992  0.00  0.00    +0.000 C 
ATOM      2  C   UNL     1      -0.644  11.355  20.005  0.00  0.00    +0.000 C 
ATOM      3  C   UNL     1      -0.272  12.188  21.261  0.00  0.00    +0.000 C 
ATOM      4  C   UNL     1       0.747  13.280  20.939  0.00  0.00    +0.000 C 
ATOM      5  C   UNL     1       1.951  12.607  20.277  0.00  0.00    +0.000 C 
ATOM      6  C   UNL     1       1.573  12.077  18.908  0.00  0.00    +0.000 C 
ATOM      7  O   UNL     1       1.245  14.015  22.048  0.00  0.00    +0.000 OA
ATOM      8  O   UNL     1       1.656  15.279  21.390  0.00  0.00    +0.000 OA
ATOM      9  C   UNL     1       0.552  15.520  20.517  0.00  0.00    +0.000 C 
ATOM     10  O   UNL     1       0.090  14.231  20.093  0.00  0.00    +0.000 OA
ATOM     11  C   UNL     1      -0.508  16.297  21.336  0.00  0.00    +0.000 C 
ATOM     12  C   UNL     1      -1.795  16.458  20.516  0.00  0.00    +0.000 C 
ATOM     13  C   UNL     1      -1.496  17.238  19.226  0.00  0.00    +0.000 C 
ATOM     14  C   UNL     1      -0.961  18.631  19.598  0.00  0.00    +0.000 C 
ATOM     15  C   UNL     1       0.343  18.495  20.406  0.00  0.00    +0.000 C 
ATOM     16  C   UNL     1       0.053  17.698  21.690  0.00  0.00    +0.000 C 
ATOM     17  C   UNL     1       1.391  17.738  19.573  0.00  0.00    +0.000 C 
ATOM     18  C   UNL     1       0.875  16.330  19.236  0.00  0.00    +0.000 C 
ATOM     19  C   UNL     1      -0.427  16.489  18.404  0.00  0.00    +0.000 C 
ENDROOT
BRANCH   1  23
ATOM     20  C   UNL     1       2.672   7.177  18.998  0.00  0.00    +0.000 A 
ATOM     21  C   UNL     1       2.593   7.996  17.875  0.00  0.00    +0.000 A 
ATOM     22  C   UNL     1       1.858   9.188  17.893  0.00  0.00    +0.000 A 
ATOM     23  C   UNL     1       1.159   9.619  19.040  0.00  0.00    +0.000 A 
ATOM     24  C   UNL     1       1.195   8.765  20.145  0.00  0.00    +0.000 A 
ATOM     25  C   UNL     1       1.929   7.547  20.119  0.00  0.00    +0.000 A 
BRANCH  20  26
ATOM     26  O   UNL     1       3.476   6.084  18.844  0.00  0.00    +0.000 OA
BRANCH  26  28
ATOM     27  C   UNL     1       1.828   4.638  17.947  0.00  0.00    +0.000 C 
ATOM     28  C   UNL     1       3.056   4.700  18.894  0.00  0.00    +0.000 C 
ATOM     29  C   UNL     1       2.549   4.356  20.303  0.00  0.00    +0.000 C 
BRANCH  28  30
ATOM     30  C   UNL     1       4.116   3.694  18.351  0.00  0.00    +0.000 C 
BRANCH  30  31
ATOM     31  N   UNL     1       5.108   3.232  19.330  0.00  0.00    +0.000 NA
ATOM     32  H   UNL     1       6.026   3.610  19.096  0.00  0.00    +0.000 HD
ATOM     33  H   UNL     1       5.199   2.219  19.257  0.00  0.00    +0.000 HD
ENDBRANCH  30  31
ENDBRANCH  28  30
ENDBRANCH  26  28
ENDBRANCH  20  26
ENDBRANCH   1  23
TORSDOF 5
ENDMDL
MODEL 5
REMARK VINA RESULT:      -7.6      1.418      2.438
REMARK  Name = 
REMARK  7 active torsions:
REMARK  status: ('A' for Active; 'I' for Inactive)
REMARK    1  A    between atoms: C_1  and  C_2
REMARK    2  A    between atoms: C_2  and  C_3
REMARK    3  A    between atoms: C_2  and  C_4
REMARK    4  A    between atoms: C_2  and  O_6
REMARK    5  A    between atoms: C_4  and  N_5
REMARK    6  A    between atoms: O_6  and  C_7
REMARK    7  A    between atoms: C_10  and  C_11
REMARK                            x       y       z     vdW  Elec       q    Type
REMARK                         _______ _______ _______ _____ _____    ______ ____
ROOT
ATOM      1  C   UNL     1       0.999   9.942  20.515  0.00  0.00    +0.000 C 
ATOM      2  C   UNL     1       1.280  11.420  20.096  0.00  0.00    +0.000 C 
ATOM      3  C   UNL     1       0.233  12.151  19.213  0.00  0.00    +0.000 C 
ATOM      4  C   UNL     1      -1.198  11.809  19.626  0.00  0.00    +0.000 C 
ATOM      5  C   UNL     1      -1.335  10.285  19.597  0.00  0.00    +0.000 C 
ATOM      6  C   UNL     1      -0.503   9.659  20.697  0.00  0.00    +0.000 C 
ATOM      7  O   UNL     1      -2.228  12.330  18.797  0.00  0.00    +0.000 OA
ATOM      8  O   UNL     1      -3.367  12.362  19.746  0.00  0.00    +0.000 OA
ATOM      9  C   UNL     1      -2.747  12.884  20.922  0.00  0.00    +0.000 C 
ATOM     10  O   UNL     1      -1.407  12.374  20.925  0.00  0.00    +0.000 OA
ATOM     11  C   UNL     1      -2.801  14.428  20.812  0.00  0.00    +0.000 C 
ATOM     12  C   UNL     1      -2.013  15.067  21.963  0.00  0.00    +0.000 C 
ATOM     13  C   UNL     1      -2.622  14.643  23.309  0.00  0.00    +0.000 C 
ATOM     14  C   UNL     1      -4.080  15.128  23.371  0.00  0.00    +0.000 C 
ATOM     15  C   UNL     1      -4.897  14.484  22.235  0.00  0.00    +0.000 C 
ATOM     16  C   UNL     1      -4.279  14.889  20.885  0.00  0.00    +0.000 C 
ATOM     17  C   UNL     1      -4.849  12.952  22.368  0.00  0.00    +0.000 C 
ATOM     18  C   UNL     1      -3.396  12.462  22.265  0.00  0.00    +0.000 C 
ATOM     19  C   UNL     1      -2.595  13.106  23.429  0.00  0.00    +0.000 C 
ENDROOT
BRANCH   1  23
ATOM     20  C   UNL     1       2.600   6.424  18.424  0.00  0.00    +0.000 A 
ATOM     21  C   UNL     1       2.278   6.411  19.778  0.00  0.00    +0.000 A 
ATOM     22  C   UNL     1       1.804   7.560  20.425  0.00  0.00    +0.000 A 
ATOM     23  C   UNL     1       1.632   8.784  19.747  0.00  0.00    +0.000 A 
ATOM     24  C   UNL     1       2.012   8.805  18.402  0.00  0.00    +0.000 A 
ATOM     25  C   UNL     1       2.508   7.642  17.751  0.00  0.00    +0.000 A 
BRANCH  20  26
ATOM     26  O   UNL     1       2.988   5.213  17.925  0.00  0.00    +0.000 OA
BRANCH  26  28
ATOM     27  C   UNL     1       4.641   4.130  16.618  0.00  0.00    +0.000 C 
ATOM     28  C   UNL     1       4.301   4.618  18.051  0.00  0.00    +0.000 C 
ATOM     29  C   UNL     1       4.226   3.368  18.942  0.00  0.00    +0.000 C 
BRANCH  28  30
ATOM     30  C   UNL     1       5.414   5.621  18.480  0.00  0.00    +0.000 C 
BRANCH  30  31
ATOM     31  N   UNL     1       6.285   5.171  19.574  0.00  0.00    +0.000 NA
ATOM     32  H   UNL     1       5.942   5.540  20.461  0.00  0.00    +0.000 HD
ATOM     33  H   UNL     1       7.213   5.573  19.446  0.00  0.00    +0.000 HD
ENDBRANCH  30  31
ENDBRANCH  28  30
ENDBRANCH  26  28
ENDBRANCH  20  26
ENDBRANCH   1  23
TORSDOF 5
ENDMDL
MODEL 6
REMARK VINA RESULT:      -7.6      1.538      2.672
REMARK  Name = 
REMARK  7 active torsions:
REMARK  status: ('A' for Active; 'I' for Inactive)
REMARK    1  A    between atoms: C_1  and  C_2
REMARK    2  A    between atoms: C_2  and  C_3
REMARK    3  A    between atoms: C_2  and  C_4
REMARK    4  A    between atoms: C_2  and  O_6
REMARK    5  A    between atoms: C_4  and  N_5
REMARK    6  A    between atoms: O_6  and  C_7
REMARK    7  A    between atoms: C_10  and  C_11
REMARK                            x       y       z     vdW  Elec       q    Type
REMARK                         _______ _______ _______ _____ _____    ______ ____
ROOT
ATOM      1  C   UNL     1       0.955   9.819  20.619  0.00  0.00    +0.000 C 
ATOM      2  C   UNL     1       1.319  11.300  20.287  0.00  0.00    +0.000 C 
ATOM      3  C   UNL     1       0.358  12.112  19.379  0.00  0.00    +0.000 C 
ATOM      4  C   UNL     1      -1.108  11.812  19.688  0.00  0.00    +0.000 C 
ATOM      5  C   UNL     1      -1.302  10.298  19.579  0.00  0.00    +0.000 C 
ATOM      6  C   UNL     1      -0.564   9.590  20.698  0.00  0.00    +0.000 C 
ATOM      7  O   UNL     1      -2.064  12.412  18.824  0.00  0.00    +0.000 OA
ATOM      8  O   UNL     1      -3.258  12.449  19.702  0.00  0.00    +0.000 OA
ATOM      9  C   UNL     1      -2.692  12.892  20.936  0.00  0.00    +0.000 C 
ATOM     10  O   UNL     1      -1.376  12.328  20.997  0.00  0.00    +0.000 OA
ATOM     11  C   UNL     1      -2.679  14.440  20.896  0.00  0.00    +0.000 C 
ATOM     12  C   UNL     1      -1.940  14.994  22.121  0.00  0.00    +0.000 C 
ATOM     13  C   UNL     1      -2.647  14.538  23.406  0.00  0.00    +0.000 C 
ATOM     14  C   UNL     1      -4.087  15.079  23.403  0.00  0.00    +0.000 C 
ATOM     15  C   UNL     1      -4.856  14.521  22.191  0.00  0.00    +0.000 C 
ATOM     16  C   UNL     1      -4.140  14.958  20.901  0.00  0.00    +0.000 C 
ATOM     17  C   UNL     1      -4.876  12.984  22.255  0.00  0.00    +0.000 C 
ATOM     18  C   UNL     1      -3.439  12.439  22.217  0.00  0.00    +0.000 C 
ATOM     19  C   UNL     1      -2.687  12.997  23.456  0.00  0.00    +0.000 C 
ENDROOT
BRANCH   1  23
ATOM     20  C   UNL     1       2.999   6.716  18.271  0.00  0.00    +0.000 A 
ATOM     21  C   UNL     1       2.678   7.965  17.747  0.00  0.00    +0.000 A 
ATOM     22  C   UNL     1       1.993   8.920  18.509  0.00  0.00    +0.000 A 
ATOM     23  C   UNL     1       1.590   8.670  19.838  0.00  0.00    +0.000 A 
ATOM     24  C   UNL     1       1.864   7.394  20.337  0.00  0.00    +0.000 A 
ATOM     25  C   UNL     1       2.545   6.420  19.556  0.00  0.00    +0.000 A 
BRANCH  20  26
ATOM     26  O   UNL     1       3.721   5.919  17.428  0.00  0.00    +0.000 OA
BRANCH  26  28
ATOM     27  C   UNL     1       5.373   4.516  16.473  0.00  0.00    +0.000 C 
ATOM     28  C   UNL     1       5.134   5.625  17.532  0.00  0.00    +0.000 C 
ATOM     29  C   UNL     1       5.441   5.006  18.903  0.00  0.00    +0.000 C 
BRANCH  28  30
ATOM     30  C   UNL     1       6.060   6.826  17.170  0.00  0.00    +0.000 C 
BRANCH  30  31
ATOM     31  N   UNL     1       7.326   6.472  16.514  0.00  0.00    +0.000 NA
ATOM     32  H   UNL     1       7.136   5.959  15.653  0.00  0.00    +0.000 HD
ATOM     33  H   UNL     1       7.841   5.828  17.113  0.00  0.00    +0.000 HD
ENDBRANCH  30  31
ENDBRANCH  28  30
ENDBRANCH  26  28
ENDBRANCH  20  26
ENDBRANCH   1  23
TORSDOF 5
ENDMDL
MODEL 7
REMARK VINA RESULT:      -7.5      0.741      1.076
REMARK  Name = 
REMARK  7 active torsions:
REMARK  status: ('A' for Active; 'I' for Inactive)
REMARK    1  A    between atoms: C_1  and  C_2
REMARK    2  A    between atoms: C_2  and  C_3
REMARK    3  A    between atoms: C_2  and  C_4
REMARK    4  A    between atoms: C_2  and  O_6
REMARK    5  A    between atoms: C_4  and  N_5
REMARK    6  A    between atoms: O_6  and  C_7
REMARK    7  A    between atoms: C_10  and  C_11
REMARK                            x       y       z     vdW  Elec       q    Type
REMARK                         _______ _______ _______ _____ _____    ______ ____
ROOT
ATOM      1  C   UNL     1      -0.494   9.528  20.375  0.00  0.00    +0.000 C 
ATOM      2  C   UNL     1      -0.710   9.345  21.910  0.00  0.00    +0.000 C 
ATOM      3  C   UNL     1      -0.285  10.496  22.860  0.00  0.00    +0.000 C 
ATOM      4  C   UNL     1      -0.614  11.869  22.273  0.00  0.00    +0.000 C 
ATOM      5  C   UNL     1       0.038  11.948  20.891  0.00  0.00    +0.000 C 
ATOM      6  C   UNL     1      -0.643  10.993  19.931  0.00  0.00    +0.000 C 
ATOM      7  O   UNL     1      -0.149  12.990  23.011  0.00  0.00    +0.000 OA
ATOM      8  O   UNL     1      -1.100  14.037  22.566  0.00  0.00    +0.000 OA
ATOM      9  C   UNL     1      -2.341  13.332  22.602  0.00  0.00    +0.000 C 
ATOM     10  O   UNL     1      -2.041  11.979  22.237  0.00  0.00    +0.000 OA
ATOM     11  C   UNL     1      -2.888  13.457  24.045  0.00  0.00    +0.000 C 
ATOM     12  C   UNL     1      -4.144  12.591  24.211  0.00  0.00    +0.000 C 
ATOM     13  C   UNL     1      -5.229  13.056  23.228  0.00  0.00    +0.000 C 
ATOM     14  C   UNL     1      -5.586  14.520  23.534  0.00  0.00    +0.000 C 
ATOM     15  C   UNL     1      -4.344  15.413  23.356  0.00  0.00    +0.000 C 
ATOM     16  C   UNL     1      -3.246  14.939  24.325  0.00  0.00    +0.000 C 
ATOM     17  C   UNL     1      -3.824  15.293  21.913  0.00  0.00    +0.000 C 
ATOM     18  C   UNL     1      -3.427  13.837  21.618  0.00  0.00    +0.000 C 
ATOM     19  C   UNL     1      -4.697  12.958  21.783  0.00  0.00    +0.000 C 
ENDROOT
BRANCH   1  23
ATOM     20  C   UNL     1       2.921   7.506  18.485  0.00  0.00    +0.000 A 
ATOM     21  C   UNL     1       2.526   7.248  19.795  0.00  0.00    +0.000 A 
ATOM     22  C   UNL     1       1.456   7.936  20.382  0.00  0.00    +0.000 A 
ATOM     23  C   UNL     1       0.728   8.923  19.685  0.00  0.00    +0.000 A 
ATOM     24  C   UNL     1       1.166   9.217  18.391  0.00  0.00    +0.000 A 
ATOM     25  C   UNL     1       2.262   8.529  17.803  0.00  0.00    +0.000 A 
BRANCH  20  26
ATOM     26  O   UNL     1       3.937   6.712  18.035  0.00  0.00    +0.000 OA
BRANCH  26  28
ATOM     27  C   UNL     1       4.610   4.635  18.953  0.00  0.00    +0.000 C 
ATOM     28  C   UNL     1       3.858   5.293  17.766  0.00  0.00    +0.000 C 
ATOM     29  C   UNL     1       4.650   4.955  16.494  0.00  0.00    +0.000 C 
BRANCH  28  30
ATOM     30  C   UNL     1       2.404   4.728  17.762  0.00  0.00    +0.000 C 
BRANCH  30  31
ATOM     31  N   UNL     1       2.241   3.406  17.143  0.00  0.00    +0.000 NA
ATOM     32  H   UNL     1       1.451   3.424  16.498  0.00  0.00    +0.000 HD
ATOM     33  H   UNL     1       1.995   2.730  17.864  0.00  0.00    +0.000 HD
ENDBRANCH  30  31
ENDBRANCH  28  30
ENDBRANCH  26  28
ENDBRANCH  20  26
ENDBRANCH   1  23
TORSDOF 5
ENDMDL
MODEL 8
REMARK VINA RESULT:      -7.4      1.648      2.094
REMARK  Name = 
REMARK  7 active torsions:
REMARK  status: ('A' for Active; 'I' for Inactive)
REMARK    1  A    between atoms: C_1  and  C_2
REMARK    2  A    between atoms: C_2  and  C_3
REMARK    3  A    between atoms: C_2  and  C_4
REMARK    4  A    between atoms: C_2  and  O_6
REMARK    5  A    between atoms: C_4  and  N_5
REMARK    6  A    between atoms: O_6  and  C_7
REMARK    7  A    between atoms: C_10  and  C_11
REMARK                            x       y       z     vdW  Elec       q    Type
REMARK                         _______ _______ _______ _____ _____    ______ ____
ROOT
ATOM      1  C   UNL     1       0.678   8.798  19.624  0.00  0.00    +0.000 C 
ATOM      2  C   UNL     1       0.488   8.830  21.174  0.00  0.00    +0.000 C 
ATOM      3  C   UNL     1       0.932  10.100  21.948  0.00  0.00    +0.000 C 
ATOM      4  C   UNL     1       0.597  11.380  21.183  0.00  0.00    +0.000 C 
ATOM      5  C   UNL     1       1.226  11.263  19.792  0.00  0.00    +0.000 C 
ATOM      6  C   UNL     1       0.526  10.189  18.984  0.00  0.00    +0.000 C 
ATOM      7  O   UNL     1       1.078  12.590  21.751  0.00  0.00    +0.000 OA
ATOM      8  O   UNL     1       0.123  13.571  21.180  0.00  0.00    +0.000 OA
ATOM      9  C   UNL     1      -1.119  12.884  21.334  0.00  0.00    +0.000 C 
ATOM     10  O   UNL     1      -0.830  11.492  21.155  0.00  0.00    +0.000 OA
ATOM     11  C   UNL     1      -1.641  13.209  22.755  0.00  0.00    +0.000 C 
ATOM     12  C   UNL     1      -2.897  12.382  23.059  0.00  0.00    +0.000 C 
ATOM     13  C   UNL     1      -3.997  12.713  22.039  0.00  0.00    +0.000 C 
ATOM     14  C   UNL     1      -4.344  14.207  22.145  0.00  0.00    +0.000 C 
ATOM     15  C   UNL     1      -3.102  15.059  21.826  0.00  0.00    +0.000 C 
ATOM     16  C   UNL     1      -1.990  14.718  22.832  0.00  0.00    +0.000 C 
ATOM     17  C   UNL     1      -2.607  14.738  20.405  0.00  0.00    +0.000 C 
ATOM     18  C   UNL     1      -2.220  13.254  20.308  0.00  0.00    +0.000 C 
ATOM     19  C   UNL     1      -3.490  12.413  20.613  0.00  0.00    +0.000 C 
ENDROOT
BRANCH   1  23
ATOM     20  C   UNL     1       4.003   6.509  17.885  0.00  0.00    +0.000 A 
ATOM     21  C   UNL     1       3.402   6.162  19.092  0.00  0.00    +0.000 A 
ATOM     22  C   UNL     1       2.368   6.933  19.639  0.00  0.00    +0.000 A 
ATOM     23  C   UNL     1       1.886   8.097  19.005  0.00  0.00    +0.000 A 
ATOM     24  C   UNL     1       2.532   8.472  17.825  0.00  0.00    +0.000 A 
ATOM     25  C   UNL     1       3.592   7.696  17.279  0.00  0.00    +0.000 A 
BRANCH  20  26
ATOM     26  O   UNL     1       4.951   5.626  17.452  0.00  0.00    +0.000 OA
BRANCH  26  28
ATOM     27  C   UNL     1       6.846   7.047  17.388  0.00  0.00    +0.000 C 
ATOM     28  C   UNL     1       6.354   5.636  17.807  0.00  0.00    +0.000 C 
ATOM     29  C   UNL     1       7.120   4.622  16.945  0.00  0.00    +0.000 C 
BRANCH  28  30
ATOM     30  C   UNL     1       6.622   5.482  19.335  0.00  0.00    +0.000 C 
BRANCH  30  31
ATOM     31  N   UNL     1       8.035   5.516  19.735  0.00  0.00    +0.000 NA
ATOM     32  H   UNL     1       8.578   4.894  19.136  0.00  0.00    +0.000 HD
ATOM     33  H   UNL     1       8.122   5.138  20.678  0.00  0.00    +0.000 HD
ENDBRANCH  30  31
ENDBRANCH  28  30
ENDBRANCH  26  28
ENDBRANCH  20  26
ENDBRANCH   1  23
TORSDOF 5
ENDMDL
MODEL 9
REMARK VINA RESULT:      -7.4      0.608      1.065
REMARK  Name = 
REMARK  7 active torsions:
REMARK  status: ('A' for Active; 'I' for Inactive)
REMARK    1  A    between atoms: C_1  and  C_2
REMARK    2  A    between atoms: C_2  and  C_3
REMARK    3  A    between atoms: C_2  and  C_4
REMARK    4  A    between atoms: C_2  and  O_6
REMARK    5  A    between atoms: C_4  and  N_5
REMARK    6  A    between atoms: O_6  and  C_7
REMARK    7  A    between atoms: C_10  and  C_11
REMARK                            x       y       z     vdW  Elec       q    Type
REMARK                         _______ _______ _______ _____ _____    ______ ____
ROOT
ATOM      1  C   UNL     1      -0.399   9.240  20.411  0.00  0.00    +0.000 C 
ATOM      2  C   UNL     1      -0.557   9.177  21.963  0.00  0.00    +0.000 C 
ATOM      3  C   UNL     1      -0.092  10.395  22.804  0.00  0.00    +0.000 C 
ATOM      4  C   UNL     1      -0.437  11.721  22.127  0.00  0.00    +0.000 C 
ATOM      5  C   UNL     1       0.161  11.689  20.719  0.00  0.00    +0.000 C 
ATOM      6  C   UNL     1      -0.559  10.668  19.861  0.00  0.00    +0.000 C 
ATOM      7  O   UNL     1       0.060  12.892  22.758  0.00  0.00    +0.000 OA
ATOM      8  O   UNL     1      -0.903  13.909  22.269  0.00  0.00    +0.000 OA
ATOM      9  C   UNL     1      -2.144  13.217  22.406  0.00  0.00    +0.000 C 
ATOM     10  O   UNL     1      -1.864  11.838  22.136  0.00  0.00    +0.000 OA
ATOM     11  C   UNL     1      -2.636  13.455  23.856  0.00  0.00    +0.000 C 
ATOM     12  C   UNL     1      -3.888  12.614  24.134  0.00  0.00    +0.000 C 
ATOM     13  C   UNL     1      -5.008  13.010  23.160  0.00  0.00    +0.000 C 
ATOM     14  C   UNL     1      -5.347  14.496  23.366  0.00  0.00    +0.000 C 
ATOM     15  C   UNL     1      -4.109  15.363  23.073  0.00  0.00    +0.000 C 
ATOM     16  C   UNL     1      -2.977  14.957  24.033  0.00  0.00    +0.000 C 
ATOM     17  C   UNL     1      -3.645  15.129  21.626  0.00  0.00    +0.000 C 
ATOM     18  C   UNL     1      -3.266  13.652  21.429  0.00  0.00    +0.000 C 
ATOM     19  C   UNL     1      -4.532  12.797  21.709  0.00  0.00    +0.000 C 
ENDROOT
BRANCH   1  23
ATOM     20  C   UNL     1       3.129   7.614  18.354  0.00  0.00    +0.000 A 
ATOM     21  C   UNL     1       2.288   8.558  17.771  0.00  0.00    +0.000 A 
ATOM     22  C   UNL     1       1.150   9.030  18.438  0.00  0.00    +0.000 A 
ATOM     23  C   UNL     1       0.793   8.575  19.724  0.00  0.00    +0.000 A 
ATOM     24  C   UNL     1       1.609   7.586  20.279  0.00  0.00    +0.000 A 
ATOM     25  C   UNL     1       2.754   7.096  19.594  0.00  0.00    +0.000 A 
BRANCH  20  26
ATOM     26  O   UNL     1       4.228   7.300  17.607  0.00  0.00    +0.000 OA
BRANCH  26  28
ATOM     27  C   UNL     1       5.312   6.035  15.923  0.00  0.00    +0.000 C 
ATOM     28  C   UNL     1       4.747   5.971  17.367  0.00  0.00    +0.000 C 
ATOM     29  C   UNL     1       3.596   4.954  17.350  0.00  0.00    +0.000 C 
BRANCH  28  30
ATOM     30  C   UNL     1       5.921   5.567  18.311  0.00  0.00    +0.000 C 
BRANCH  30  31
ATOM     31  N   UNL     1       6.078   4.125  18.542  0.00  0.00    +0.000 NA
ATOM     32  H   UNL     1       5.993   3.925  19.539  0.00  0.00    +0.000 HD
ATOM     33  H   UNL     1       7.026   3.850  18.285  0.00  0.00    +0.000 HD
ENDBRANCH  30  31
ENDBRANCH  28  30
ENDBRANCH  26  28
ENDBRANCH  20  26
ENDBRANCH   1  23
TORSDOF 5
ENDMDL
