MODEL 1
REMARK VINA RESULT:      -7.8      0.000      0.000
REMARK  Name = 
REMARK  7 active torsions:
REMARK  status: ('A' for Active; 'I' for Inactive)
REMARK    1  A    between atoms: C_1  and  O_2
REMARK    2  A    between atoms: O_2  and  C_3
REMARK    3  A    between atoms: C_6  and  C_7
REMARK    4  A    between atoms: C_7  and  C_8
REMARK    5  A    between atoms: C_8  and  N_9
REMARK    6  A    between atoms: C_10  and  C_12
REMARK    7  A    between atoms: C_16  and  C_17
REMARK                            x       y       z     vdW  Elec       q    Type
REMARK                         _______ _______ _______ _____ _____    ______ ____
ROOT
ATOM      1  N   UNL     1       5.373   6.459  16.092  0.00  0.00    +0.000 N 
ATOM      2  C   UNL     1       5.877   5.184  15.923  0.00  0.00    +0.000 C 
ATOM      3  O   UNL     1       6.046   4.402  16.850  0.00  0.00    +0.000 OA
ATOM      4  H   UNL     1       5.122   7.021  15.290  0.00  0.00    +0.000 HD
ENDROOT
BRANCH   2   5
ATOM      5  C   UNL     1       6.202   4.760  14.535  0.00  0.00    +0.000 A 
ATOM      6  C   UNL     1       7.451   5.130  14.018  0.00  0.00    +0.000 A 
ATOM      7  C   UNL     1       7.796   4.803  12.709  0.00  0.00    +0.000 A 
ATOM      8  C   UNL     1       6.893   4.119  11.901  0.00  0.00    +0.000 A 
ATOM      9  C   UNL     1       5.624   3.755  12.393  0.00  0.00    +0.000 A 
ATOM     10  C   UNL     1       5.289   4.078  13.720  0.00  0.00    +0.000 A 
BRANCH   9  11
ATOM     11  C   UNL     1       4.631   3.049  11.501  0.00  0.00    +0.000 C 
ATOM     12  F   UNL     1       5.060   1.837  11.054  0.00  0.00    +0.000 F 
ATOM     13  F   UNL     1       3.446   2.816  12.132  0.00  0.00    +0.000 F 
ATOM     14  F   UNL     1       4.326   3.772  10.388  0.00  0.00    +0.000 F 
ENDBRANCH   9  11
ENDBRANCH   2   5
BRANCH   1  15
ATOM     15  C   UNL     1       5.055   6.958  17.423  0.00  0.00    +0.000 C 
BRANCH  15  16
ATOM     16  C   UNL     1       3.568   7.285  17.595  0.00  0.00    +0.000 C 
BRANCH  16  20
ATOM     17  C   UNL     1       1.472   4.266  19.892  0.00  0.00    +0.000 A 
ATOM     18  C   UNL     1       1.782   5.502  20.462  0.00  0.00    +0.000 A 
ATOM     19  C   UNL     1       2.449   6.481  19.716  0.00  0.00    +0.000 A 
ATOM     20  C   UNL     1       2.830   6.233  18.393  0.00  0.00    +0.000 A 
ATOM     21  C   UNL     1       2.528   4.985  17.831  0.00  0.00    +0.000 A 
ATOM     22  C   UNL     1       1.853   4.009  18.576  0.00  0.00    +0.000 A 
BRANCH  17  24
ATOM     23  C   UNL     1       1.677   2.651  21.603  0.00  0.00    +0.000 C 
ATOM     24  O   UNL     1       0.833   3.380  20.717  0.00  0.00    +0.000 OA
ENDBRANCH  17  24
ENDBRANCH  16  20
ENDBRANCH  15  16
ENDBRANCH   1  15
TORSDOF 6
ENDMDL
MODEL 2
REMARK VINA RESULT:      -7.4      5.523      8.371
REMARK  Name = 
REMARK  7 active torsions:
REMARK  status: ('A' for Active; 'I' for Inactive)
REMARK    1  A    between atoms: C_1  and  O_2
REMARK    2  A    between atoms: O_2  and  C_3
REMARK    3  A    between atoms: C_6  and  C_7
REMARK    4  A    between atoms: C_7  and  C_8
REMARK    5  A    between atoms: C_8  and  N_9
REMARK    6  A    between atoms: C_10  and  C_12
REMARK    7  A    between atoms: C_16  and  C_17
REMARK                            x       y       z     vdW  Elec       q    Type
REMARK                         _______ _______ _______ _____ _____    ______ ____
ROOT
ATOM      1  N   UNL     1       3.588   5.446  17.527  0.00  0.00    +0.000 N 
ATOM      2  C   UNL     1       3.367   5.913  18.808  0.00  0.00    +0.000 C 
ATOM      3  O   UNL     1       3.813   5.364  19.807  0.00  0.00    +0.000 OA
ATOM      4  H   UNL     1       3.318   6.001  16.726  0.00  0.00    +0.000 HD
ENDROOT
BRANCH   2   5
ATOM      5  C   UNL     1       2.562   7.156  18.949  0.00  0.00    +0.000 A 
ATOM      6  C   UNL     1       2.521   8.031  17.855  0.00  0.00    +0.000 A 
ATOM      7  C   UNL     1       1.822   9.233  17.941  0.00  0.00    +0.000 A 
ATOM      8  C   UNL     1       1.173   9.578  19.123  0.00  0.00    +0.000 A 
ATOM      9  C   UNL     1       1.218   8.723  20.242  0.00  0.00    +0.000 A 
ATOM     10  C   UNL     1       1.914   7.506  20.141  0.00  0.00    +0.000 A 
BRANCH   9  11
ATOM     11  C   UNL     1       0.546   9.118  21.534  0.00  0.00    +0.000 C 
ATOM     12  F   UNL     1       1.329   8.949  22.634  0.00  0.00    +0.000 F 
ATOM     13  F   UNL     1       0.171  10.428  21.541  0.00  0.00    +0.000 F 
ATOM     14  F   UNL     1      -0.589   8.404  21.770  0.00  0.00    +0.000 F 
ENDBRANCH   9  11
ENDBRANCH   2   5
BRANCH   1  15
ATOM     15  C   UNL     1       4.344   4.221  17.306  0.00  0.00    +0.000 C 
BRANCH  15  16
ATOM     16  C   UNL     1       5.668   4.464  16.574  0.00  0.00    +0.000 C 
BRANCH  16  20
ATOM     17  C   UNL     1       8.109   7.504  18.466  0.00  0.00    +0.000 A 
ATOM     18  C   UNL     1       7.397   7.791  17.300  0.00  0.00    +0.000 A 
ATOM     19  C   UNL     1       6.599   6.813  16.696  0.00  0.00    +0.000 A 
ATOM     20  C   UNL     1       6.514   5.526  17.240  0.00  0.00    +0.000 A 
ATOM     21  C   UNL     1       7.243   5.240  18.402  0.00  0.00    +0.000 A 
ATOM     22  C   UNL     1       8.034   6.223  19.011  0.00  0.00    +0.000 A 
BRANCH  17  24
ATOM     23  C   UNL     1       8.667   9.796  18.336  0.00  0.00    +0.000 C 
ATOM     24  O   UNL     1       8.867   8.531  18.961  0.00  0.00    +0.000 OA
ENDBRANCH  17  24
ENDBRANCH  16  20
ENDBRANCH  15  16
ENDBRANCH   1  15
TORSDOF 6
ENDMDL
MODEL 3
REMARK VINA RESULT:      -7.4      5.738      8.329
REMARK  Name = 
REMARK  7 active torsions:
REMARK  status: ('A' for Active; 'I' for Inactive)
REMARK    1  A    between atoms: C_1  and  O_2
REMARK    2  A    between atoms: O_2  and  C_3
REMARK    3  A    between atoms: C_6  and  C_7
REMARK    4  A    between atoms: C_7  and  C_8
REMARK    5  A    between atoms: C_8  and  N_9
REMARK    6  A    between atoms: C_10  and  C_12
REMARK    7  A    between atoms: C_16  and  C_17
REMARK                            x       y       z     vdW  Elec       q    Type
REMARK                         _______ _______ _______ _____ _____    ______ ____
ROOT
ATOM      1  N   UNL     1       1.459   9.262  17.938  0.00  0.00    +0.000 N 
ATOM      2  C   UNL     1       0.725   9.777  18.988  0.00  0.00    +0.000 C 
ATOM      3  O   UNL     1       1.102   9.734  20.152  0.00  0.00    +0.000 OA
ATOM      4  H   UNL     1       1.178   9.437  16.982  0.00  0.00    +0.000 HD
ENDROOT
BRANCH   2   5
ATOM      5  C   UNL     1      -0.571  10.427  18.657  0.00  0.00    +0.000 A 
ATOM      6  C   UNL     1      -1.125  11.293  19.610  0.00  0.00    +0.000 A 
ATOM      7  C   UNL     1      -2.359  11.897  19.379  0.00  0.00    +0.000 A 
ATOM      8  C   UNL     1      -3.056  11.630  18.204  0.00  0.00    +0.000 A 
ATOM      9  C   UNL     1      -2.528  10.746  17.242  0.00  0.00    +0.000 A 
ATOM     10  C   UNL     1      -1.276  10.152  17.478  0.00  0.00    +0.000 A 
BRANCH   9  11
ATOM     11  C   UNL     1      -3.305  10.428  15.988  0.00  0.00    +0.000 C 
ATOM     12  F   UNL     1      -3.385   9.097  15.715  0.00  0.00    +0.000 F 
ATOM     13  F   UNL     1      -4.590  10.875  16.050  0.00  0.00    +0.000 F 
ATOM     14  F   UNL     1      -2.762  11.004  14.880  0.00  0.00    +0.000 F 
ENDBRANCH   9  11
ENDBRANCH   2   5
BRANCH   1  15
ATOM     15  C   UNL     1       2.726   8.586  18.181  0.00  0.00    +0.000 C 
BRANCH  15  16
ATOM     16  C   UNL     1       2.820   7.228  17.479  0.00  0.00    +0.000 C 
BRANCH  16  20
ATOM     17  C   UNL     1       1.458   3.963  19.982  0.00  0.00    +0.000 A 
ATOM     18  C   UNL     1       1.474   3.832  18.593  0.00  0.00    +0.000 A 
ATOM     19  C   UNL     1       1.925   4.882  17.785  0.00  0.00    +0.000 A 
ATOM     20  C   UNL     1       2.352   6.087  18.355  0.00  0.00    +0.000 A 
ATOM     21  C   UNL     1       2.319   6.218  19.749  0.00  0.00    +0.000 A 
ATOM     22  C   UNL     1       1.876   5.163  20.557  0.00  0.00    +0.000 A 
BRANCH  17  24
ATOM     23  C   UNL     1       1.691   2.556  21.865  0.00  0.00    +0.000 C 
ATOM     24  O   UNL     1       0.983   2.879  20.672  0.00  0.00    +0.000 OA
ENDBRANCH  17  24
ENDBRANCH  16  20
ENDBRANCH  15  16
ENDBRANCH   1  15
TORSDOF 6
ENDMDL
MODEL 4
REMARK VINA RESULT:      -7.3      0.539      1.138
REMARK  Name = 
REMARK  7 active torsions:
REMARK  status: ('A' for Active; 'I' for Inactive)
REMARK    1  A    between atoms: C_1  and  O_2
REMARK    2  A    between atoms: O_2  and  C_3
REMARK    3  A    between atoms: C_6  and  C_7
REMARK    4  A    between atoms: C_7  and  C_8
REMARK    5  A    between atoms: C_8  and  N_9
REMARK    6  A    between atoms: C_10  and  C_12
REMARK    7  A    between atoms: C_16  and  C_17
REMARK                            x       y       z     vdW  Elec       q    Type
REMARK                         _______ _______ _______ _____ _____    ______ ____
ROOT
ATOM      1  N   UNL     1       5.470   6.436  16.082  0.00  0.00    +0.000 N 
ATOM      2  C   UNL     1       5.685   5.090  15.859  0.00  0.00    +0.000 C 
ATOM      3  O   UNL     1       5.456   4.228  16.699  0.00  0.00    +0.000 OA
ATOM      4  H   UNL     1       5.543   7.098  15.321  0.00  0.00    +0.000 HD
ENDROOT
BRANCH   2   5
ATOM      5  C   UNL     1       6.199   4.695  14.520  0.00  0.00    +0.000 A 
ATOM      6  C   UNL     1       7.358   5.331  14.057  0.00  0.00    +0.000 A 
ATOM      7  C   UNL     1       7.863   5.039  12.791  0.00  0.00    +0.000 A 
ATOM      8  C   UNL     1       7.208   4.122  11.975  0.00  0.00    +0.000 A 
ATOM      9  C   UNL     1       6.029   3.486  12.413  0.00  0.00    +0.000 A 
ATOM     10  C   UNL     1       5.534   3.777  13.696  0.00  0.00    +0.000 A 
BRANCH   9  11
ATOM     11  C   UNL     1       5.299   2.522  11.510  0.00  0.00    +0.000 C 
ATOM     12  F   UNL     1       5.499   1.214  11.826  0.00  0.00    +0.000 F 
ATOM     13  F   UNL     1       3.950   2.711  11.538  0.00  0.00    +0.000 F 
ATOM     14  F   UNL     1       5.667   2.652  10.205  0.00  0.00    +0.000 F 
ENDBRANCH   9  11
ENDBRANCH   2   5
BRANCH   1  15
ATOM     15  C   UNL     1       4.993   6.906  17.375  0.00  0.00    +0.000 C 
BRANCH  15  16
ATOM     16  C   UNL     1       3.473   7.092  17.416  0.00  0.00    +0.000 C 
BRANCH  16  20
ATOM     17  C   UNL     1       1.492   4.217  19.984  0.00  0.00    +0.000 A 
ATOM     18  C   UNL     1       1.587   3.993  18.610  0.00  0.00    +0.000 A 
ATOM     19  C   UNL     1       2.237   4.915  17.782  0.00  0.00    +0.000 A 
ATOM     20  C   UNL     1       2.789   6.086  18.315  0.00  0.00    +0.000 A 
ATOM     21  C   UNL     1       2.678   6.312  19.693  0.00  0.00    +0.000 A 
ATOM     22  C   UNL     1       2.035   5.383  20.522  0.00  0.00    +0.000 A 
BRANCH  17  24
ATOM     23  C   UNL     1       1.594   2.573  21.677  0.00  0.00    +0.000 C 
ATOM     24  O   UNL     1       0.823   3.256  20.693  0.00  0.00    +0.000 OA
ENDBRANCH  17  24
ENDBRANCH  16  20
ENDBRANCH  15  16
ENDBRANCH   1  15
TORSDOF 6
ENDMDL
MODEL 5
REMARK VINA RESULT:      -7.2      5.473      8.187
REMARK  Name = 
REMARK  7 active torsions:
REMARK  status: ('A' for Active; 'I' for Inactive)
REMARK    1  A    between atoms: C_1  and  O_2
REMARK    2  A    between atoms: O_2  and  C_3
REMARK    3  A    between atoms: C_6  and  C_7
REMARK    4  A    between atoms: C_7  and  C_8
REMARK    5  A    between atoms: C_8  and  N_9
REMARK    6  A    between atoms: C_10  and  C_12
REMARK    7  A    between atoms: C_16  and  C_17
REMARK                            x       y       z     vdW  Elec       q    Type
REMARK                         _______ _______ _______ _____ _____    ______ ____
ROOT
ATOM      1  N   UNL     1       6.552   6.417  18.027  0.00  0.00    +0.000 N 
ATOM      2  C   UNL     1       6.179   5.485  18.975  0.00  0.00    +0.000 C 
ATOM      3  O   UNL     1       6.835   5.259  19.985  0.00  0.00    +0.000 OA
ATOM      4  H   UNL     1       5.918   6.670  17.280  0.00  0.00    +0.000 HD
ENDROOT
BRANCH   2   5
ATOM      5  C   UNL     1       4.907   4.751  18.744  0.00  0.00    +0.000 A 
ATOM      6  C   UNL     1       4.641   4.305  17.442  0.00  0.00    +0.000 A 
ATOM      7  C   UNL     1       3.445   3.652  17.152  0.00  0.00    +0.000 A 
ATOM      8  C   UNL     1       2.500   3.452  18.154  0.00  0.00    +0.000 A 
ATOM      9  C   UNL     1       2.737   3.910  19.465  0.00  0.00    +0.000 A 
ATOM     10  C   UNL     1       3.952   4.557  19.751  0.00  0.00    +0.000 A 
BRANCH   9  11
ATOM     11  C   UNL     1       1.693   3.728  20.539  0.00  0.00    +0.000 C 
ATOM     12  F   UNL     1       2.173   3.884  21.803  0.00  0.00    +0.000 F 
ATOM     13  F   UNL     1       0.667   4.616  20.418  0.00  0.00    +0.000 F 
ATOM     14  F   UNL     1       1.123   2.492  20.506  0.00  0.00    +0.000 F 
ENDBRANCH   9  11
ENDBRANCH   2   5
BRANCH   1  15
ATOM     15  C   UNL     1       7.797   7.159  18.167  0.00  0.00    +0.000 C 
BRANCH  15  16
ATOM     16  C   UNL     1       7.824   8.440  17.327  0.00  0.00    +0.000 C 
BRANCH  16  20
ATOM     17  C   UNL     1       9.498  11.813  19.472  0.00  0.00    +0.000 A 
ATOM     18  C   UNL     1       8.882  11.996  18.233  0.00  0.00    +0.000 A 
ATOM     19  C   UNL     1       8.330  10.909  17.546  0.00  0.00    +0.000 A 
ATOM     20  C   UNL     1       8.402   9.617  18.081  0.00  0.00    +0.000 A 
ATOM     21  C   UNL     1       9.036   9.438  19.318  0.00  0.00    +0.000 A 
ATOM     22  C   UNL     1       9.579  10.529  20.009  0.00  0.00    +0.000 A 
BRANCH  17  24
ATOM     23  C   UNL     1       9.843  13.047  21.456  0.00  0.00    +0.000 C 
ATOM     24  O   UNL     1      10.015  12.944  20.046  0.00  0.00    +0.000 OA
ENDBRANCH  17  24
ENDBRANCH  16  20
ENDBRANCH  15  16
ENDBRANCH   1  15
TORSDOF 6
ENDMDL
MODEL 6
REMARK VINA RESULT:      -7.2      5.721      8.256
REMARK  Name = 
REMARK  7 active torsions:
REMARK  status: ('A' for Active; 'I' for Inactive)
REMARK    1  A    between atoms: C_1  and  O_2
REMARK    2  A    between atoms: O_2  and  C_3
REMARK    3  A    between atoms: C_6  and  C_7
REMARK    4  A    between atoms: C_7  and  C_8
REMARK    5  A    between atoms: C_8  and  N_9
REMARK    6  A    between atoms: C_10  and  C_12
REMARK    7  A    between atoms: C_16  and  C_17
REMARK                            x       y       z     vdW  Elec       q    Type
REMARK                         _______ _______ _______ _____ _____    ______ ____
ROOT
ATOM      1  N   UNL     1       7.441   7.080  18.379  0.00  0.00    +0.000 N 
ATOM      2  C   UNL     1       7.169   6.441  17.186  0.00  0.00    +0.000 C 
ATOM      3  O   UNL     1       7.865   6.564  16.186  0.00  0.00    +0.000 OA
ATOM      4  H   UNL     1       6.923   6.847  19.215  0.00  0.00    +0.000 HD
ENDROOT
BRANCH   2   5
ATOM      5  C   UNL     1       5.978   5.549  17.149  0.00  0.00    +0.000 A 
ATOM      6  C   UNL     1       6.099   4.334  16.461  0.00  0.00    +0.000 A 
ATOM      7  C   UNL     1       5.006   3.476  16.351  0.00  0.00    +0.000 A 
ATOM      8  C   UNL     1       3.783   3.832  16.913  0.00  0.00    +0.000 A 
ATOM      9  C   UNL     1       3.634   5.058  17.590  0.00  0.00    +0.000 A 
ATOM     10  C   UNL     1       4.746   5.911  17.708  0.00  0.00    +0.000 A 
BRANCH   9  11
ATOM     11  C   UNL     1       2.296   5.458  18.163  0.00  0.00    +0.000 C 
ATOM     12  F   UNL     1       2.203   5.287  19.510  0.00  0.00    +0.000 F 
ATOM     13  F   UNL     1       2.008   6.769  17.932  0.00  0.00    +0.000 F 
ATOM     14  F   UNL     1       1.266   4.748  17.624  0.00  0.00    +0.000 F 
ENDBRANCH   9  11
ENDBRANCH   2   5
BRANCH   1  15
ATOM     15  C   UNL     1       8.573   7.990  18.489  0.00  0.00    +0.000 C 
BRANCH  15  16
ATOM     16  C   UNL     1       8.222   9.427  18.090  0.00  0.00    +0.000 C 
BRANCH  16  20
ATOM     17  C   UNL     1      11.107  12.302  19.569  0.00  0.00    +0.000 A 
ATOM     18  C   UNL     1      11.017  12.026  18.204  0.00  0.00    +0.000 A 
ATOM     19  C   UNL     1      10.077  11.107  17.725  0.00  0.00    +0.000 A 
ATOM     20  C   UNL     1       9.223  10.436  18.607  0.00  0.00    +0.000 A 
ATOM     21  C   UNL     1       9.328  10.706  19.978  0.00  0.00    +0.000 A 
ATOM     22  C   UNL     1      10.263  11.634  20.455  0.00  0.00    +0.000 A 
BRANCH  17  24
ATOM     23  C   UNL     1      11.653  14.569  19.949  0.00  0.00    +0.000 C 
ATOM     24  O   UNL     1      12.071  13.207  19.925  0.00  0.00    +0.000 OA
ENDBRANCH  17  24
ENDBRANCH  16  20
ENDBRANCH  15  16
ENDBRANCH   1  15
TORSDOF 6
ENDMDL
MODEL 7
REMARK VINA RESULT:      -7.2      1.989      3.108
REMARK  Name = 
REMARK  7 active torsions:
REMARK  status: ('A' for Active; 'I' for Inactive)
REMARK    1  A    between atoms: C_1  and  O_2
REMARK    2  A    between atoms: O_2  and  C_3
REMARK    3  A    between atoms: C_6  and  C_7
REMARK    4  A    between atoms: C_7  and  C_8
REMARK    5  A    between atoms: C_8  and  N_9
REMARK    6  A    between atoms: C_10  and  C_12
REMARK    7  A    between atoms: C_16  and  C_17
REMARK                            x       y       z     vdW  Elec       q    Type
REMARK                         _______ _______ _______ _____ _____    ______ ____
ROOT
ATOM      1  N   UNL     1       4.101   2.650  17.415  0.00  0.00    +0.000 N 
ATOM      2  C   UNL     1       5.160   3.519  17.588  0.00  0.00    +0.000 C 
ATOM      3  O   UNL     1       5.535   3.909  18.687  0.00  0.00    +0.000 OA
ATOM      4  H   UNL     1       3.910   2.248  16.507  0.00  0.00    +0.000 HD
ENDROOT
BRANCH   2   5
ATOM      5  C   UNL     1       5.874   3.972  16.364  0.00  0.00    +0.000 A 
ATOM      6  C   UNL     1       6.845   4.971  16.511  0.00  0.00    +0.000 A 
ATOM      7  C   UNL     1       7.517   5.470  15.397  0.00  0.00    +0.000 A 
ATOM      8  C   UNL     1       7.213   4.987  14.127  0.00  0.00    +0.000 A 
ATOM      9  C   UNL     1       6.225   3.998  13.954  0.00  0.00    +0.000 A 
ATOM     10  C   UNL     1       5.563   3.491  15.086  0.00  0.00    +0.000 A 
BRANCH   9  11
ATOM     11  C   UNL     1       5.870   3.505  12.572  0.00  0.00    +0.000 C 
ATOM     12  F   UNL     1       4.564   3.693  12.242  0.00  0.00    +0.000 F 
ATOM     13  F   UNL     1       6.594   4.128  11.601  0.00  0.00    +0.000 F 
ATOM     14  F   UNL     1       6.107   2.173  12.418  0.00  0.00    +0.000 F 
ENDBRANCH   9  11
ENDBRANCH   2   5
BRANCH   1  15
ATOM     15  C   UNL     1       3.334   2.181  18.561  0.00  0.00    +0.000 C 
BRANCH  15  16
ATOM     16  C   UNL     1       1.931   2.793  18.628  0.00  0.00    +0.000 C 
BRANCH  16  20
ATOM     17  C   UNL     1       1.972   6.988  19.716  0.00  0.00    +0.000 A 
ATOM     18  C   UNL     1       1.648   6.014  20.661  0.00  0.00    +0.000 A 
ATOM     19  C   UNL     1       1.646   4.658  20.313  0.00  0.00    +0.000 A 
ATOM     20  C   UNL     1       1.953   4.257  19.007  0.00  0.00    +0.000 A 
ATOM     21  C   UNL     1       2.264   5.241  18.060  0.00  0.00    +0.000 A 
ATOM     22  C   UNL     1       2.274   6.597  18.412  0.00  0.00    +0.000 A 
BRANCH  17  24
ATOM     23  C   UNL     1       1.249   8.478  21.400  0.00  0.00    +0.000 C 
ATOM     24  O   UNL     1       1.927   8.281  20.163  0.00  0.00    +0.000 OA
ENDBRANCH  17  24
ENDBRANCH  16  20
ENDBRANCH  15  16
ENDBRANCH   1  15
TORSDOF 6
ENDMDL
MODEL 8
REMARK VINA RESULT:      -7.2      5.490      8.253
REMARK  Name = 
REMARK  7 active torsions:
REMARK  status: ('A' for Active; 'I' for Inactive)
REMARK    1  A    between atoms: C_1  and  O_2
REMARK    2  A    between atoms: O_2  and  C_3
REMARK    3  A    between atoms: C_6  and  C_7
REMARK    4  A    between atoms: C_7  and  C_8
REMARK    5  A    between atoms: C_8  and  N_9
REMARK    6  A    between atoms: C_10  and  C_12
REMARK    7  A    between atoms: C_16  and  C_17
REMARK                            x       y       z     vdW  Elec       q    Type
REMARK                         _______ _______ _______ _____ _____    ______ ____
ROOT
ATOM      1  N   UNL     1       2.454   4.714  18.395  0.00  0.00    +0.000 N 
ATOM      2  C   UNL     1       2.727   5.589  19.428  0.00  0.00    +0.000 C 
ATOM      3  O   UNL     1       3.389   5.280  20.410  0.00  0.00    +0.000 OA
ATOM      4  H   UNL     1       2.021   5.045  17.544  0.00  0.00    +0.000 HD
ENDROOT
BRANCH   2   5
ATOM      5  C   UNL     1       2.196   6.973  19.304  0.00  0.00    +0.000 A 
ATOM      6  C   UNL     1       2.315   7.606  18.060  0.00  0.00    +0.000 A 
ATOM      7  C   UNL     1       1.879   8.918  17.892  0.00  0.00    +0.000 A 
ATOM      8  C   UNL     1       1.335   9.614  18.968  0.00  0.00    +0.000 A 
ATOM      9  C   UNL     1       1.225   9.004  20.234  0.00  0.00    +0.000 A 
ATOM     10  C   UNL     1       1.655   7.675  20.390  0.00  0.00    +0.000 A 
BRANCH   9  11
ATOM     11  C   UNL     1       0.672   9.774  21.408  0.00  0.00    +0.000 C 
ATOM     12  F   UNL     1      -0.637   9.511  21.670  0.00  0.00    +0.000 F 
ATOM     13  F   UNL     1       1.345   9.508  22.562  0.00  0.00    +0.000 F 
ATOM     14  F   UNL     1       0.753  11.122  21.231  0.00  0.00    +0.000 F 
ENDBRANCH   9  11
ENDBRANCH   2   5
BRANCH   1  15
ATOM     15  C   UNL     1       2.916   3.334  18.453  0.00  0.00    +0.000 C 
BRANCH  15  16
ATOM     16  C   UNL     1       3.899   2.989  17.330  0.00  0.00    +0.000 C 
BRANCH  16  20
ATOM     17  C   UNL     1       6.859   6.095  16.723  0.00  0.00    +0.000 A 
ATOM     18  C   UNL     1       6.852   5.343  17.898  0.00  0.00    +0.000 A 
ATOM     19  C   UNL     1       5.903   4.332  18.089  0.00  0.00    +0.000 A 
ATOM     20  C   UNL     1       4.936   4.068  17.112  0.00  0.00    +0.000 A 
ATOM     21  C   UNL     1       4.940   4.837  15.941  0.00  0.00    +0.000 A 
ATOM     22  C   UNL     1       5.896   5.842  15.747  0.00  0.00    +0.000 A 
BRANCH  17  24
ATOM     23  C   UNL     1       7.736   8.087  17.640  0.00  0.00    +0.000 C 
ATOM     24  O   UNL     1       7.822   7.066  16.650  0.00  0.00    +0.000 OA
ENDBRANCH  17  24
ENDBRANCH  16  20
ENDBRANCH  15  16
ENDBRANCH   1  15
TORSDOF 6
ENDMDL
MODEL 9
REMARK VINA RESULT:      -7.2      2.776      3.747
REMARK  Name = 
REMARK  7 active torsions:
REMARK  status: ('A' for Active; 'I' for Inactive)
REMARK    1  A    between atoms: C_1  and  O_2
REMARK    2  A    between atoms: O_2  and  C_3
REMARK    3  A    between atoms: C_6  and  C_7
REMARK    4  A    between atoms: C_7  and  C_8
REMARK    5  A    between atoms: C_8  and  N_9
REMARK    6  A    between atoms: C_10  and  C_12
REMARK    7  A    between atoms: C_16  and  C_17
REMARK                            x       y       z     vdW  Elec       q    Type
REMARK                         _______ _______ _______ _____ _____    ______ ____
ROOT
ATOM      1  N   UNL     1       3.501   5.228  17.435  0.00  0.00    +0.000 N 
ATOM      2  C   UNL     1       4.227   4.093  17.128  0.00  0.00    +0.000 C 
ATOM      3  O   UNL     1       4.049   3.015  17.681  0.00  0.00    +0.000 OA
ATOM      4  H   UNL     1       3.584   6.059  16.864  0.00  0.00    +0.000 HD
ENDROOT
BRANCH   2   5
ATOM      5  C   UNL     1       5.252   4.211  16.057  0.00  0.00    +0.000 A 
ATOM      6  C   UNL     1       6.444   4.878  16.369  0.00  0.00    +0.000 A 
ATOM      7  C   UNL     1       7.424   5.062  15.396  0.00  0.00    +0.000 A 
ATOM      8  C   UNL     1       7.216   4.594  14.102  0.00  0.00    +0.000 A 
ATOM      9  C   UNL     1       6.017   3.939  13.760  0.00  0.00    +0.000 A 
ATOM     10  C   UNL     1       5.039   3.746  14.752  0.00  0.00    +0.000 A 
BRANCH   9  11
ATOM     11  C   UNL     1       5.777   3.468  12.346  0.00  0.00    +0.000 C 
ATOM     12  F   UNL     1       5.946   2.129  12.177  0.00  0.00    +0.000 F 
ATOM     13  F   UNL     1       4.514   3.743  11.919  0.00  0.00    +0.000 F 
ATOM     14  F   UNL     1       6.612   4.066  11.451  0.00  0.00    +0.000 F 
ENDBRANCH   9  11
ENDBRANCH   2   5
BRANCH   1  15
ATOM     15  C   UNL     1       2.498   5.202  18.489  0.00  0.00    +0.000 C 
BRANCH  15  16
ATOM     16  C   UNL     1       2.839   6.132  19.658  0.00  0.00    +0.000 C 
BRANCH  16  20
ATOM     17  C   UNL     1       0.802   9.948  19.384  0.00  0.00    +0.000 A 
ATOM     18  C   UNL     1       0.816   9.236  20.584  0.00  0.00    +0.000 A 
ATOM     19  C   UNL     1       1.484   8.010  20.676  0.00  0.00    +0.000 A 
ATOM     20  C   UNL     1       2.135   7.468  19.562  0.00  0.00    +0.000 A 
ATOM     21  C   UNL     1       2.104   8.180  18.355  0.00  0.00    +0.000 A 
ATOM     22  C   UNL     1       1.443   9.412  18.268  0.00  0.00    +0.000 A 
BRANCH  17  24
ATOM     23  C   UNL     1      -0.933  11.242  18.438  0.00  0.00    +0.000 C 
ATOM     24  O   UNL     1       0.106  11.127  19.405  0.00  0.00    +0.000 OA
ENDBRANCH  17  24
ENDBRANCH  16  20
ENDBRANCH  15  16
ENDBRANCH   1  15
TORSDOF 6
ENDMDL
