MODEL 1
REMARK VINA RESULT:      -7.1      0.000      0.000
REMARK  Name = 
REMARK  13 active torsions:
REMARK  status: ('A' for Active; 'I' for Inactive)
REMARK    1  A    between atoms: C_1  and  C_2
REMARK    2  A    between atoms: C_2  and  C_3
REMARK    3  A    between atoms: C_3  and  O_4
REMARK    4  A    between atoms: O_4  and  C_5
REMARK    5  A    between atoms: C_8  and  C_9
REMARK    6  A    between atoms: C_9  and  N_10
REMARK    7  A    between atoms: C_11  and  S_12
REMARK    8  A    between atoms: N_13  and  C_14
REMARK    9  A    between atoms: C_14  and  C_15
REMARK   10  A    between atoms: C_18  and  O_19
REMARK   11  A    between atoms: O_19  and  C_20
REMARK   12  A    between atoms: C_20  and  C_21
REMARK   13  A    between atoms: C_20  and  C_22
REMARK                            x       y       z     vdW  Elec       q    Type
REMARK                         _______ _______ _______ _____ _____    ______ ____
ROOT
ATOM      1  N   UNL     1       3.887   5.249  19.239  0.00  0.00    +0.000 NA
ATOM      2  C   UNL     1       4.430   4.096  19.368  0.00  0.00    +0.000 C 
ATOM      3  N   UNL     1       5.531   3.740  18.653  0.00  0.00    +0.000 N 
ATOM      4  H   UNL     1       5.859   2.789  18.746  0.00  0.00    +0.000 HD
ENDROOT
BRANCH   2   5
ATOM      5  S   UNL     1       3.919   2.803  20.433  0.00  0.00    +0.000 S 
ATOM      6  H   UNL     1       3.376   1.987  19.526  0.00  0.00    +0.000 HD
ENDBRANCH   2   5
BRANCH   1   7
ATOM      7  C   UNL     1       2.716   5.695  19.974  0.00  0.00    +0.000 C 
BRANCH   7  11
ATOM      8  C   UNL     1       1.262   9.637  18.910  0.00  0.00    +0.000 A 
ATOM      9  C   UNL     1       1.099   9.118  20.198  0.00  0.00    +0.000 A 
ATOM     10  C   UNL     1       1.562   7.845  20.523  0.00  0.00    +0.000 A 
ATOM     11  C   UNL     1       2.188   7.048  19.562  0.00  0.00    +0.000 A 
ATOM     12  C   UNL     1       2.361   7.569  18.271  0.00  0.00    +0.000 A 
ATOM     13  C   UNL     1       1.897   8.848  17.950  0.00  0.00    +0.000 A 
BRANCH   8  14
ATOM     14  O   UNL     1       0.849  10.884  18.507  0.00  0.00    +0.000 OA
BRANCH  14  15
ATOM     15  C   UNL     1       1.810  11.923  18.716  0.00  0.00    +0.000 C 
BRANCH  15  17
ATOM     16  C   UNL     1      -0.294  13.215  18.403  0.00  0.00    +0.000 C 
ATOM     17  C   UNL     1       1.227  13.291  18.390  0.00  0.00    +0.000 C 
ENDBRANCH  15  17
ENDBRANCH  14  15
ENDBRANCH   8  14
ENDBRANCH   7  11
ENDBRANCH   1   7
BRANCH   3  18
ATOM     18  C   UNL     1       6.410   4.681  18.005  0.00  0.00    +0.000 C 
BRANCH  18  19
ATOM     19  C   UNL     1       6.364   4.505  16.510  0.00  0.00    +0.000 A 
ATOM     20  C   UNL     1       5.269   3.883  15.896  0.00  0.00    +0.000 A 
ATOM     21  C   UNL     1       5.244   3.697  14.511  0.00  0.00    +0.000 A 
ATOM     22  C   UNL     1       6.293   4.155  13.713  0.00  0.00    +0.000 A 
ATOM     23  C   UNL     1       7.365   4.812  14.315  0.00  0.00    +0.000 A 
ATOM     24  C   UNL     1       7.407   4.974  15.704  0.00  0.00    +0.000 A 
BRANCH  22  25
ATOM     25  O   UNL     1       6.200   3.843  12.386  0.00  0.00    +0.000 OA
BRANCH  25  26
ATOM     26  C   UNL     1       5.364   2.743  12.007  0.00  0.00    +0.000 C 
ATOM     27  C   UNL     1       4.215   3.200  11.111  0.00  0.00    +0.000 C 
ATOM     28  C   UNL     1       6.252   1.784  11.212  0.00  0.00    +0.000 C 
ENDBRANCH  25  26
ENDBRANCH  22  25
ENDBRANCH  18  19
ENDBRANCH   3  18
TORSDOF 10
ENDMDL
MODEL 2
REMARK VINA RESULT:      -7.1      0.624      1.241
REMARK  Name = 
REMARK  13 active torsions:
REMARK  status: ('A' for Active; 'I' for Inactive)
REMARK    1  A    between atoms: C_1  and  C_2
REMARK    2  A    between atoms: C_2  and  C_3
REMARK    3  A    between atoms: C_3  and  O_4
REMARK    4  A    between atoms: O_4  and  C_5
REMARK    5  A    between atoms: C_8  and  C_9
REMARK    6  A    between atoms: C_9  and  N_10
REMARK    7  A    between atoms: C_11  and  S_12
REMARK    8  A    between atoms: N_13  and  C_14
REMARK    9  A    between atoms: C_14  and  C_15
REMARK   10  A    between atoms: C_18  and  O_19
REMARK   11  A    between atoms: O_19  and  C_20
REMARK   12  A    between atoms: C_20  and  C_21
REMARK   13  A    between atoms: C_20  and  C_22
REMARK                            x       y       z     vdW  Elec       q    Type
REMARK                         _______ _______ _______ _____ _____    ______ ____
ROOT
ATOM      1  N   UNL     1       3.883   5.174  19.236  0.00  0.00    +0.000 NA
ATOM      2  C   UNL     1       4.433   4.025  19.376  0.00  0.00    +0.000 C 
ATOM      3  N   UNL     1       5.545   3.674  18.677  0.00  0.00    +0.000 N 
ATOM      4  H   UNL     1       5.878   2.725  18.779  0.00  0.00    +0.000 HD
ENDROOT
BRANCH   2   5
ATOM      5  S   UNL     1       3.916   2.733  20.440  0.00  0.00    +0.000 S 
ATOM      6  H   UNL     1       2.685   3.167  20.714  0.00  0.00    +0.000 HD
ENDBRANCH   2   5
BRANCH   1   7
ATOM      7  C   UNL     1       2.700   5.615  19.953  0.00  0.00    +0.000 C 
BRANCH   7  11
ATOM      8  C   UNL     1       1.276   9.551  18.827  0.00  0.00    +0.000 A 
ATOM      9  C   UNL     1       1.904   8.707  17.907  0.00  0.00    +0.000 A 
ATOM     10  C   UNL     1       2.367   7.448  18.285  0.00  0.00    +0.000 A 
ATOM     11  C   UNL     1       2.228   7.005  19.602  0.00  0.00    +0.000 A 
ATOM     12  C   UNL     1       1.590   7.845  20.526  0.00  0.00    +0.000 A 
ATOM     13  C   UNL     1       1.124   9.107  20.142  0.00  0.00    +0.000 A 
BRANCH   8  14
ATOM     14  O   UNL     1       0.780  10.799  18.538  0.00  0.00    +0.000 OA
BRANCH  14  15
ATOM     15  C   UNL     1      -0.648  10.885  18.544  0.00  0.00    +0.000 C 
BRANCH  15  17
ATOM     16  C   UNL     1       0.056  12.995  19.659  0.00  0.00    +0.000 C 
ATOM     17  C   UNL     1      -1.128  12.094  19.334  0.00  0.00    +0.000 C 
ENDBRANCH  15  17
ENDBRANCH  14  15
ENDBRANCH   8  14
ENDBRANCH   7  11
ENDBRANCH   1   7
BRANCH   3  18
ATOM     18  C   UNL     1       6.425   4.619  18.036  0.00  0.00    +0.000 C 
BRANCH  18  19
ATOM     19  C   UNL     1       6.377   4.456  16.540  0.00  0.00    +0.000 A 
ATOM     20  C   UNL     1       5.340   3.736  15.931  0.00  0.00    +0.000 A 
ATOM     21  C   UNL     1       5.314   3.564  14.545  0.00  0.00    +0.000 A 
ATOM     22  C   UNL     1       6.302   4.134  13.740  0.00  0.00    +0.000 A 
ATOM     23  C   UNL     1       7.312   4.886  14.337  0.00  0.00    +0.000 A 
ATOM     24  C   UNL     1       7.357   5.035  15.727  0.00  0.00    +0.000 A 
BRANCH  22  25
ATOM     25  O   UNL     1       6.221   3.829  12.410  0.00  0.00    +0.000 OA
BRANCH  25  26
ATOM     26  C   UNL     1       5.389   2.731  12.017  0.00  0.00    +0.000 C 
ATOM     27  C   UNL     1       4.227   3.200  11.143  0.00  0.00    +0.000 C 
ATOM     28  C   UNL     1       6.275   1.796  11.191  0.00  0.00    +0.000 C 
ENDBRANCH  25  26
ENDBRANCH  22  25
ENDBRANCH  18  19
ENDBRANCH   3  18
TORSDOF 10
ENDMDL
MODEL 3
REMARK VINA RESULT:      -7.0      5.765      9.064
REMARK  Name = 
REMARK  13 active torsions:
REMARK  status: ('A' for Active; 'I' for Inactive)
REMARK    1  A    between atoms: C_1  and  C_2
REMARK    2  A    between atoms: C_2  and  C_3
REMARK    3  A    between atoms: C_3  and  O_4
REMARK    4  A    between atoms: O_4  and  C_5
REMARK    5  A    between atoms: C_8  and  C_9
REMARK    6  A    between atoms: C_9  and  N_10
REMARK    7  A    between atoms: C_11  and  S_12
REMARK    8  A    between atoms: N_13  and  C_14
REMARK    9  A    between atoms: C_14  and  C_15
REMARK   10  A    between atoms: C_18  and  O_19
REMARK   11  A    between atoms: O_19  and  C_20
REMARK   12  A    between atoms: C_20  and  C_21
REMARK   13  A    between atoms: C_20  and  C_22
REMARK                            x       y       z     vdW  Elec       q    Type
REMARK                         _______ _______ _______ _____ _____    ______ ____
ROOT
ATOM      1  N   UNL     1       7.319   6.933  16.808  0.00  0.00    +0.000 NA
ATOM      2  C   UNL     1       7.847   7.075  17.967  0.00  0.00    +0.000 C 
ATOM      3  N   UNL     1       8.437   8.240  18.348  0.00  0.00    +0.000 N 
ATOM      4  H   UNL     1       8.901   8.255  19.246  0.00  0.00    +0.000 HD
ENDROOT
BRANCH   2   5
ATOM      5  S   UNL     1       7.914   5.880  19.247  0.00  0.00    +0.000 S 
ATOM      6  H   UNL     1       6.606   5.719  19.452  0.00  0.00    +0.000 HD
ENDBRANCH   2   5
BRANCH   1   7
ATOM      7  C   UNL     1       6.671   5.722  16.341  0.00  0.00    +0.000 C 
BRANCH   7  11
ATOM      8  C   UNL     1       2.730   5.035  18.010  0.00  0.00    +0.000 A 
ATOM      9  C   UNL     1       3.215   6.325  17.783  0.00  0.00    +0.000 A 
ATOM     10  C   UNL     1       4.489   6.532  17.256  0.00  0.00    +0.000 A 
ATOM     11  C   UNL     1       5.319   5.450  16.956  0.00  0.00    +0.000 A 
ATOM     12  C   UNL     1       4.831   4.153  17.173  0.00  0.00    +0.000 A 
ATOM     13  C   UNL     1       3.552   3.950  17.699  0.00  0.00    +0.000 A 
BRANCH   8  14
ATOM     14  O   UNL     1       1.486   4.739  18.513  0.00  0.00    +0.000 OA
BRANCH  14  15
ATOM     15  C   UNL     1       1.459   4.503  19.924  0.00  0.00    +0.000 C 
BRANCH  15  17
ATOM     16  C   UNL     1       1.631   2.636  21.561  0.00  0.00    +0.000 C 
ATOM     17  C   UNL     1       1.018   3.080  20.239  0.00  0.00    +0.000 C 
ENDBRANCH  15  17
ENDBRANCH  14  15
ENDBRANCH   8  14
ENDBRANCH   7  11
ENDBRANCH   1   7
BRANCH   3  18
ATOM     18  C   UNL     1       8.207   9.507  17.702  0.00  0.00    +0.000 C 
BRANCH  18  19
ATOM     19  C   UNL     1       8.847  10.624  18.485  0.00  0.00    +0.000 A 
ATOM     20  C   UNL     1       9.265  10.422  19.807  0.00  0.00    +0.000 A 
ATOM     21  C   UNL     1       9.832  11.469  20.539  0.00  0.00    +0.000 A 
ATOM     22  C   UNL     1      10.022  12.723  19.956  0.00  0.00    +0.000 A 
ATOM     23  C   UNL     1       9.647  12.916  18.628  0.00  0.00    +0.000 A 
ATOM     24  C   UNL     1       9.051  11.879  17.902  0.00  0.00    +0.000 A 
BRANCH  22  25
ATOM     25  O   UNL     1      10.507  13.690  20.791  0.00  0.00    +0.000 OA
BRANCH  25  26
ATOM     26  C   UNL     1       9.651  14.175  21.832  0.00  0.00    +0.000 C 
ATOM     27  C   UNL     1      10.267  15.379  22.543  0.00  0.00    +0.000 C 
ATOM     28  C   UNL     1       8.356  14.622  21.150  0.00  0.00    +0.000 C 
ENDBRANCH  25  26
ENDBRANCH  22  25
ENDBRANCH  18  19
ENDBRANCH   3  18
TORSDOF 10
ENDMDL
MODEL 4
REMARK VINA RESULT:      -6.8      3.759     10.013
REMARK  Name = 
REMARK  13 active torsions:
REMARK  status: ('A' for Active; 'I' for Inactive)
REMARK    1  A    between atoms: C_1  and  C_2
REMARK    2  A    between atoms: C_2  and  C_3
REMARK    3  A    between atoms: C_3  and  O_4
REMARK    4  A    between atoms: O_4  and  C_5
REMARK    5  A    between atoms: C_8  and  C_9
REMARK    6  A    between atoms: C_9  and  N_10
REMARK    7  A    between atoms: C_11  and  S_12
REMARK    8  A    between atoms: N_13  and  C_14
REMARK    9  A    between atoms: C_14  and  C_15
REMARK   10  A    between atoms: C_18  and  O_19
REMARK   11  A    between atoms: O_19  and  C_20
REMARK   12  A    between atoms: C_20  and  C_21
REMARK   13  A    between atoms: C_20  and  C_22
REMARK                            x       y       z     vdW  Elec       q    Type
REMARK                         _______ _______ _______ _____ _____    ______ ____
ROOT
ATOM      1  N   UNL     1       1.733   8.074  19.437  0.00  0.00    +0.000 NA
ATOM      2  C   UNL     1       1.168   8.963  20.166  0.00  0.00    +0.000 C 
ATOM      3  N   UNL     1       0.673  10.115  19.638  0.00  0.00    +0.000 N 
ATOM      4  H   UNL     1       0.312  10.805  20.281  0.00  0.00    +0.000 HD
ENDROOT
BRANCH   2   5
ATOM      5  S   UNL     1       0.911   8.898  21.898  0.00  0.00    +0.000 S 
ATOM      6  H   UNL     1      -0.407   9.101  21.922  0.00  0.00    +0.000 HD
ENDBRANCH   2   5
BRANCH   1   7
ATOM      7  C   UNL     1       2.277   6.824  19.935  0.00  0.00    +0.000 C 
BRANCH   7  11
ATOM      8  C   UNL     1       4.766   4.712  17.083  0.00  0.00    +0.000 A 
ATOM      9  C   UNL     1       4.527   6.084  16.973  0.00  0.00    +0.000 A 
ATOM     10  C   UNL     1       3.716   6.749  17.891  0.00  0.00    +0.000 A 
ATOM     11  C   UNL     1       3.107   6.053  18.937  0.00  0.00    +0.000 A 
ATOM     12  C   UNL     1       3.352   4.677  19.056  0.00  0.00    +0.000 A 
ATOM     13  C   UNL     1       4.169   4.014  18.135  0.00  0.00    +0.000 A 
BRANCH   8  14
ATOM     14  O   UNL     1       5.560   3.980  16.233  0.00  0.00    +0.000 OA
BRANCH  14  15
ATOM     15  C   UNL     1       6.800   4.608  15.894  0.00  0.00    +0.000 C 
BRANCH  15  17
ATOM     16  C   UNL     1       5.956   3.855  13.677  0.00  0.00    +0.000 C 
ATOM     17  C   UNL     1       6.946   4.769  14.387  0.00  0.00    +0.000 C 
ENDBRANCH  15  17
ENDBRANCH  14  15
ENDBRANCH   8  14
ENDBRANCH   7  11
ENDBRANCH   1   7
BRANCH   3  18
ATOM     18  C   UNL     1       0.375  10.295  18.239  0.00  0.00    +0.000 C 
BRANCH  18  19
ATOM     19  C   UNL     1      -1.103  10.504  18.036  0.00  0.00    +0.000 A 
ATOM     20  C   UNL     1      -1.809  11.429  18.818  0.00  0.00    +0.000 A 
ATOM     21  C   UNL     1      -3.185  11.599  18.646  0.00  0.00    +0.000 A 
ATOM     22  C   UNL     1      -3.874  10.876  17.672  0.00  0.00    +0.000 A 
ATOM     23  C   UNL     1      -3.169   9.985  16.864  0.00  0.00    +0.000 A 
ATOM     24  C   UNL     1      -1.797   9.791  17.054  0.00  0.00    +0.000 A 
BRANCH  22  25
ATOM     25  O   UNL     1      -5.228  11.062  17.651  0.00  0.00    +0.000 OA
BRANCH  25  26
ATOM     26  C   UNL     1      -5.847  11.646  18.803  0.00  0.00    +0.000 C 
ATOM     27  C   UNL     1      -6.664  12.882  18.429  0.00  0.00    +0.000 C 
ATOM     28  C   UNL     1      -6.797  10.585  19.363  0.00  0.00    +0.000 C 
ENDBRANCH  25  26
ENDBRANCH  22  25
ENDBRANCH  18  19
ENDBRANCH   3  18
TORSDOF 10
ENDMDL
MODEL 5
REMARK VINA RESULT:      -6.8      2.594     10.059
REMARK  Name = 
REMARK  13 active torsions:
REMARK  status: ('A' for Active; 'I' for Inactive)
REMARK    1  A    between atoms: C_1  and  C_2
REMARK    2  A    between atoms: C_2  and  C_3
REMARK    3  A    between atoms: C_3  and  O_4
REMARK    4  A    between atoms: O_4  and  C_5
REMARK    5  A    between atoms: C_8  and  C_9
REMARK    6  A    between atoms: C_9  and  N_10
REMARK    7  A    between atoms: C_11  and  S_12
REMARK    8  A    between atoms: N_13  and  C_14
REMARK    9  A    between atoms: C_14  and  C_15
REMARK   10  A    between atoms: C_18  and  O_19
REMARK   11  A    between atoms: O_19  and  C_20
REMARK   12  A    between atoms: C_20  and  C_21
REMARK   13  A    between atoms: C_20  and  C_22
REMARK                            x       y       z     vdW  Elec       q    Type
REMARK                         _______ _______ _______ _____ _____    ______ ____
ROOT
ATOM      1  N   UNL     1       3.422   5.265  19.889  0.00  0.00    +0.000 NA
ATOM      2  C   UNL     1       2.188   5.205  20.231  0.00  0.00    +0.000 C 
ATOM      3  N   UNL     1       1.484   6.319  20.569  0.00  0.00    +0.000 N 
ATOM      4  H   UNL     1       0.539   6.188  20.903  0.00  0.00    +0.000 HD
ENDROOT
BRANCH   2   5
ATOM      5  S   UNL     1       1.188   3.770  20.322  0.00  0.00    +0.000 S 
ATOM      6  H   UNL     1      -0.006   4.354  20.442  0.00  0.00    +0.000 HD
ENDBRANCH   2   5
BRANCH   1   7
ATOM      7  C   UNL     1       4.228   4.118  19.512  0.00  0.00    +0.000 C 
BRANCH   7  11
ATOM      8  C   UNL     1       6.709   4.595  15.990  0.00  0.00    +0.000 A 
ATOM      9  C   UNL     1       7.178   4.917  17.266  0.00  0.00    +0.000 A 
ATOM     10  C   UNL     1       6.366   4.769  18.389  0.00  0.00    +0.000 A 
ATOM     11  C   UNL     1       5.053   4.309  18.262  0.00  0.00    +0.000 A 
ATOM     12  C   UNL     1       4.582   3.976  16.984  0.00  0.00    +0.000 A 
ATOM     13  C   UNL     1       5.401   4.123  15.860  0.00  0.00    +0.000 A 
BRANCH   8  14
ATOM     14  O   UNL     1       7.443   4.698  14.833  0.00  0.00    +0.000 OA
BRANCH  14  15
ATOM     15  C   UNL     1       6.721   4.367  13.642  0.00  0.00    +0.000 C 
BRANCH  15  17
ATOM     16  C   UNL     1       8.515   5.854  12.768  0.00  0.00    +0.000 C 
ATOM     17  C   UNL     1       7.480   4.801  12.395  0.00  0.00    +0.000 C 
ENDBRANCH  15  17
ENDBRANCH  14  15
ENDBRANCH   8  14
ENDBRANCH   7  11
ENDBRANCH   1   7
BRANCH   3  18
ATOM     18  C   UNL     1       1.884   7.660  20.224  0.00  0.00    +0.000 C 
BRANCH  18  19
ATOM     19  C   UNL     1       1.083   8.668  21.006  0.00  0.00    +0.000 A 
ATOM     20  C   UNL     1       1.192   8.743  22.401  0.00  0.00    +0.000 A 
ATOM     21  C   UNL     1       0.427   9.660  23.124  0.00  0.00    +0.000 A 
ATOM     22  C   UNL     1      -0.435  10.540  22.468  0.00  0.00    +0.000 A 
ATOM     23  C   UNL     1      -0.516  10.499  21.077  0.00  0.00    +0.000 A 
ATOM     24  C   UNL     1       0.227   9.561  20.353  0.00  0.00    +0.000 A 
BRANCH  22  25
ATOM     25  O   UNL     1      -1.194  11.334  23.282  0.00  0.00    +0.000 OA
BRANCH  25  26
ATOM     26  C   UNL     1      -1.855  12.464  22.700  0.00  0.00    +0.000 C 
ATOM     27  C   UNL     1      -3.245  12.665  23.301  0.00  0.00    +0.000 C 
ATOM     28  C   UNL     1      -0.996  13.684  23.039  0.00  0.00    +0.000 C 
ENDBRANCH  25  26
ENDBRANCH  22  25
ENDBRANCH  18  19
ENDBRANCH   3  18
TORSDOF 10
ENDMDL
MODEL 6
REMARK VINA RESULT:      -6.8      4.076      9.920
REMARK  Name = 
REMARK  13 active torsions:
REMARK  status: ('A' for Active; 'I' for Inactive)
REMARK    1  A    between atoms: C_1  and  C_2
REMARK    2  A    between atoms: C_2  and  C_3
REMARK    3  A    between atoms: C_3  and  O_4
REMARK    4  A    between atoms: O_4  and  C_5
REMARK    5  A    between atoms: C_8  and  C_9
REMARK    6  A    between atoms: C_9  and  N_10
REMARK    7  A    between atoms: C_11  and  S_12
REMARK    8  A    between atoms: N_13  and  C_14
REMARK    9  A    between atoms: C_14  and  C_15
REMARK   10  A    between atoms: C_18  and  O_19
REMARK   11  A    between atoms: O_19  and  C_20
REMARK   12  A    between atoms: C_20  and  C_21
REMARK   13  A    between atoms: C_20  and  C_22
REMARK                            x       y       z     vdW  Elec       q    Type
REMARK                         _______ _______ _______ _____ _____    ______ ____
ROOT
ATOM      1  N   UNL     1       0.982   8.620  20.497  0.00  0.00    +0.000 NA
ATOM      2  C   UNL     1       0.490   9.637  21.101  0.00  0.00    +0.000 C 
ATOM      3  N   UNL     1       0.311  10.828  20.468  0.00  0.00    +0.000 N 
ATOM      4  H   UNL     1      -0.007  11.608  21.026  0.00  0.00    +0.000 HD
ENDROOT
BRANCH   2   5
ATOM      5  S   UNL     1      -0.041   9.718  22.768  0.00  0.00    +0.000 S 
ATOM      6  H   UNL     1       1.140   9.925  23.354  0.00  0.00    +0.000 HD
ENDBRANCH   2   5
BRANCH   1   7
ATOM      7  C   UNL     1       1.193   7.321  21.110  0.00  0.00    +0.000 C 
BRANCH   7  11
ATOM      8  C   UNL     1       3.735   4.692  18.782  0.00  0.00    +0.000 A 
ATOM      9  C   UNL     1       3.518   6.021  18.410  0.00  0.00    +0.000 A 
ATOM     10  C   UNL     1       2.690   6.853  19.161  0.00  0.00    +0.000 A 
ATOM     11  C   UNL     1       2.041   6.370  20.300  0.00  0.00    +0.000 A 
ATOM     12  C   UNL     1       2.264   5.039  20.682  0.00  0.00    +0.000 A 
ATOM     13  C   UNL     1       3.098   4.209  19.927  0.00  0.00    +0.000 A 
BRANCH   8  14
ATOM     14  O   UNL     1       4.543   3.808  18.109  0.00  0.00    +0.000 OA
BRANCH  14  15
ATOM     15  C   UNL     1       4.383   3.824  16.687  0.00  0.00    +0.000 C 
BRANCH  15  17
ATOM     16  C   UNL     1       5.507   5.485  15.214  0.00  0.00    +0.000 C 
ATOM     17  C   UNL     1       5.686   4.185  15.986  0.00  0.00    +0.000 C 
ENDBRANCH  15  17
ENDBRANCH  14  15
ENDBRANCH   8  14
ENDBRANCH   7  11
ENDBRANCH   1   7
BRANCH   3  18
ATOM     18  C   UNL     1       0.274  10.981  19.036  0.00  0.00    +0.000 C 
BRANCH  18  19
ATOM     19  C   UNL     1      -1.149  10.975  18.540  0.00  0.00    +0.000 A 
ATOM     20  C   UNL     1      -2.079  11.906  19.023  0.00  0.00    +0.000 A 
ATOM     21  C   UNL     1      -3.404  11.879  18.582  0.00  0.00    +0.000 A 
ATOM     22  C   UNL     1      -3.817  10.946  17.629  0.00  0.00    +0.000 A 
ATOM     23  C   UNL     1      -2.885  10.046  17.114  0.00  0.00    +0.000 A 
ATOM     24  C   UNL     1      -1.565  10.052  17.576  0.00  0.00    +0.000 A 
BRANCH  22  25
ATOM     25  O   UNL     1      -5.152  10.959  17.336  0.00  0.00    +0.000 OA
BRANCH  25  26
ATOM     26  C   UNL     1      -6.060  11.420  18.343  0.00  0.00    +0.000 C 
ATOM     27  C   UNL     1      -7.110  12.362  17.755  0.00  0.00    +0.000 C 
ATOM     28  C   UNL     1      -6.769  10.176  18.883  0.00  0.00    +0.000 C 
ENDBRANCH  25  26
ENDBRANCH  22  25
ENDBRANCH  18  19
ENDBRANCH   3  18
TORSDOF 10
ENDMDL
MODEL 7
REMARK VINA RESULT:      -6.7      3.423      7.746
REMARK  Name = 
REMARK  13 active torsions:
REMARK  status: ('A' for Active; 'I' for Inactive)
REMARK    1  A    between atoms: C_1  and  C_2
REMARK    2  A    between atoms: C_2  and  C_3
REMARK    3  A    between atoms: C_3  and  O_4
REMARK    4  A    between atoms: O_4  and  C_5
REMARK    5  A    between atoms: C_8  and  C_9
REMARK    6  A    between atoms: C_9  and  N_10
REMARK    7  A    between atoms: C_11  and  S_12
REMARK    8  A    between atoms: N_13  and  C_14
REMARK    9  A    between atoms: C_14  and  C_15
REMARK   10  A    between atoms: C_18  and  O_19
REMARK   11  A    between atoms: O_19  and  C_20
REMARK   12  A    between atoms: C_20  and  C_21
REMARK   13  A    between atoms: C_20  and  C_22
REMARK                            x       y       z     vdW  Elec       q    Type
REMARK                         _______ _______ _______ _____ _____    ______ ____
ROOT
ATOM      1  N   UNL     1       4.144   4.369  19.588  0.00  0.00    +0.000 NA
ATOM      2  C   UNL     1       2.979   4.080  19.139  0.00  0.00    +0.000 C 
ATOM      3  N   UNL     1       1.849   4.381  19.833  0.00  0.00    +0.000 N 
ATOM      4  H   UNL     1       0.970   4.054  19.456  0.00  0.00    +0.000 HD
ENDROOT
BRANCH   2   5
ATOM      5  S   UNL     1       2.601   3.291  17.621  0.00  0.00    +0.000 S 
ATOM      6  H   UNL     1       3.750   2.638  17.433  0.00  0.00    +0.000 HD
ENDBRANCH   2   5
BRANCH   1   7
ATOM      7  C   UNL     1       5.388   4.081  18.898  0.00  0.00    +0.000 C 
BRANCH   7  11
ATOM      8  C   UNL     1       7.522   7.658  17.698  0.00  0.00    +0.000 A 
ATOM      9  C   UNL     1       6.299   7.305  17.121  0.00  0.00    +0.000 A 
ATOM     10  C   UNL     1       5.628   6.147  17.509  0.00  0.00    +0.000 A 
ATOM     11  C   UNL     1       6.174   5.298  18.475  0.00  0.00    +0.000 A 
ATOM     12  C   UNL     1       7.397   5.654  19.063  0.00  0.00    +0.000 A 
ATOM     13  C   UNL     1       8.065   6.819  18.673  0.00  0.00    +0.000 A 
BRANCH   8  14
ATOM     14  O   UNL     1       8.243   8.785  17.386  0.00  0.00    +0.000 OA
BRANCH  14  15
ATOM     15  C   UNL     1       8.815   9.453  18.514  0.00  0.00    +0.000 C 
BRANCH  15  17
ATOM     16  C   UNL     1      10.350  11.302  19.161  0.00  0.00    +0.000 C 
ATOM     17  C   UNL     1       9.318  10.841  18.141  0.00  0.00    +0.000 C 
ENDBRANCH  15  17
ENDBRANCH  14  15
ENDBRANCH   8  14
ENDBRANCH   7  11
ENDBRANCH   1   7
BRANCH   3  18
ATOM     18  C   UNL     1       1.791   5.355  20.894  0.00  0.00    +0.000 C 
BRANCH  18  19
ATOM     19  C   UNL     1       1.633   6.743  20.330  0.00  0.00    +0.000 A 
ATOM     20  C   UNL     1       0.961   7.737  21.054  0.00  0.00    +0.000 A 
ATOM     21  C   UNL     1       0.791   9.015  20.516  0.00  0.00    +0.000 A 
ATOM     22  C   UNL     1       1.317   9.333  19.262  0.00  0.00    +0.000 A 
ATOM     23  C   UNL     1       2.023   8.361  18.557  0.00  0.00    +0.000 A 
ATOM     24  C   UNL     1       2.168   7.072  19.081  0.00  0.00    +0.000 A 
BRANCH  22  25
ATOM     25  O   UNL     1       1.017  10.585  18.802  0.00  0.00    +0.000 OA
BRANCH  25  26
ATOM     26  C   UNL     1      -0.311  11.081  19.007  0.00  0.00    +0.000 C 
ATOM     27  C   UNL     1      -0.357  12.605  18.900  0.00  0.00    +0.000 C 
ATOM     28  C   UNL     1      -1.169  10.487  17.889  0.00  0.00    +0.000 C 
ENDBRANCH  25  26
ENDBRANCH  22  25
ENDBRANCH  18  19
ENDBRANCH   3  18
TORSDOF 10
ENDMDL
MODEL 8
REMARK VINA RESULT:      -6.6      1.968      2.637
REMARK  Name = 
REMARK  13 active torsions:
REMARK  status: ('A' for Active; 'I' for Inactive)
REMARK    1  A    between atoms: C_1  and  C_2
REMARK    2  A    between atoms: C_2  and  C_3
REMARK    3  A    between atoms: C_3  and  O_4
REMARK    4  A    between atoms: O_4  and  C_5
REMARK    5  A    between atoms: C_8  and  C_9
REMARK    6  A    between atoms: C_9  and  N_10
REMARK    7  A    between atoms: C_11  and  S_12
REMARK    8  A    between atoms: N_13  and  C_14
REMARK    9  A    between atoms: C_14  and  C_15
REMARK   10  A    between atoms: C_18  and  O_19
REMARK   11  A    between atoms: O_19  and  C_20
REMARK   12  A    between atoms: C_20  and  C_21
REMARK   13  A    between atoms: C_20  and  C_22
REMARK                            x       y       z     vdW  Elec       q    Type
REMARK                         _______ _______ _______ _____ _____    ______ ____
ROOT
ATOM      1  N   UNL     1       2.625   6.801  20.087  0.00  0.00    +0.000 NA
ATOM      2  C   UNL     1       2.542   5.544  19.851  0.00  0.00    +0.000 C 
ATOM      3  N   UNL     1       3.476   4.892  19.107  0.00  0.00    +0.000 N 
ATOM      4  H   UNL     1       3.306   3.919  18.895  0.00  0.00    +0.000 HD
ENDROOT
BRANCH   2   5
ATOM      5  S   UNL     1       1.294   4.448  20.406  0.00  0.00    +0.000 S 
ATOM      6  H   UNL     1       1.611   4.409  21.702  0.00  0.00    +0.000 HD
ENDBRANCH   2   5
BRANCH   1   7
ATOM      7  C   UNL     1       1.668   7.556  20.875  0.00  0.00    +0.000 C 
BRANCH   7  11
ATOM      8  C   UNL     1      -0.393  10.620  18.606  0.00  0.00    +0.000 A 
ATOM      9  C   UNL     1       0.650   9.874  18.051  0.00  0.00    +0.000 A 
ATOM     10  C   UNL     1       1.312   8.899  18.796  0.00  0.00    +0.000 A 
ATOM     11  C   UNL     1       0.956   8.655  20.124  0.00  0.00    +0.000 A 
ATOM     12  C   UNL     1      -0.097   9.396  20.681  0.00  0.00    +0.000 A 
ATOM     13  C   UNL     1      -0.760  10.371  19.930  0.00  0.00    +0.000 A 
BRANCH   8  14
ATOM     14  O   UNL     1      -1.106  11.589  17.942  0.00  0.00    +0.000 OA
BRANCH  14  15
ATOM     15  C   UNL     1      -2.526  11.489  18.096  0.00  0.00    +0.000 C 
BRANCH  15  17
ATOM     16  C   UNL     1      -2.744  10.845  15.703  0.00  0.00    +0.000 C 
ATOM     17  C   UNL     1      -3.118  10.472  17.131  0.00  0.00    +0.000 C 
ENDBRANCH  15  17
ENDBRANCH  14  15
ENDBRANCH   8  14
ENDBRANCH   7  11
ENDBRANCH   1   7
BRANCH   3  18
ATOM     18  C   UNL     1       4.797   5.404  18.845  0.00  0.00    +0.000 C 
BRANCH  18  19
ATOM     19  C   UNL     1       5.162   5.210  17.396  0.00  0.00    +0.000 A 
ATOM     20  C   UNL     1       5.614   3.967  16.932  0.00  0.00    +0.000 A 
ATOM     21  C   UNL     1       5.978   3.799  15.594  0.00  0.00    +0.000 A 
ATOM     22  C   UNL     1       5.868   4.856  14.689  0.00  0.00    +0.000 A 
ATOM     23  C   UNL     1       5.379   6.082  15.137  0.00  0.00    +0.000 A 
ATOM     24  C   UNL     1       5.042   6.262  16.482  0.00  0.00    +0.000 A 
BRANCH  22  25
ATOM     25  O   UNL     1       6.332   4.601  13.429  0.00  0.00    +0.000 OA
BRANCH  25  26
ATOM     26  C   UNL     1       5.940   3.374  12.801  0.00  0.00    +0.000 C 
ATOM     27  C   UNL     1       4.611   3.528  12.063  0.00  0.00    +0.000 C 
ATOM     28  C   UNL     1       7.031   3.049  11.779  0.00  0.00    +0.000 C 
ENDBRANCH  25  26
ENDBRANCH  22  25
ENDBRANCH  18  19
ENDBRANCH   3  18
TORSDOF 10
ENDMDL
MODEL 9
REMARK VINA RESULT:      -6.6      5.974      8.792
REMARK  Name = 
REMARK  13 active torsions:
REMARK  status: ('A' for Active; 'I' for Inactive)
REMARK    1  A    between atoms: C_1  and  C_2
REMARK    2  A    between atoms: C_2  and  C_3
REMARK    3  A    between atoms: C_3  and  O_4
REMARK    4  A    between atoms: O_4  and  C_5
REMARK    5  A    between atoms: C_8  and  C_9
REMARK    6  A    between atoms: C_9  and  N_10
REMARK    7  A    between atoms: C_11  and  S_12
REMARK    8  A    between atoms: N_13  and  C_14
REMARK    9  A    between atoms: C_14  and  C_15
REMARK   10  A    between atoms: C_18  and  O_19
REMARK   11  A    between atoms: O_19  and  C_20
REMARK   12  A    between atoms: C_20  and  C_21
REMARK   13  A    between atoms: C_20  and  C_22
REMARK                            x       y       z     vdW  Elec       q    Type
REMARK                         _______ _______ _______ _____ _____    ______ ____
ROOT
ATOM      1  N   UNL     1       6.996   6.565  16.813  0.00  0.00    +0.000 NA
ATOM      2  C   UNL     1       7.570   6.871  17.916  0.00  0.00    +0.000 C 
ATOM      3  N   UNL     1       8.030   8.127  18.161  0.00  0.00    +0.000 N 
ATOM      4  H   UNL     1       8.542   8.277  19.019  0.00  0.00    +0.000 HD
ENDROOT
BRANCH   2   5
ATOM      5  S   UNL     1       7.866   5.810  19.279  0.00  0.00    +0.000 S 
ATOM      6  H   UNL     1       7.631   4.638  18.687  0.00  0.00    +0.000 HD
ENDBRANCH   2   5
BRANCH   1   7
ATOM      7  C   UNL     1       6.478   5.248  16.490  0.00  0.00    +0.000 C 
BRANCH   7  11
ATOM      8  C   UNL     1       2.508   4.341  17.975  0.00  0.00    +0.000 A 
ATOM      9  C   UNL     1       3.227   3.429  17.198  0.00  0.00    +0.000 A 
ATOM     10  C   UNL     1       4.498   3.737  16.718  0.00  0.00    +0.000 A 
ATOM     11  C   UNL     1       5.080   4.978  16.990  0.00  0.00    +0.000 A 
ATOM     12  C   UNL     1       4.365   5.893  17.777  0.00  0.00    +0.000 A 
ATOM     13  C   UNL     1       3.091   5.578  18.260  0.00  0.00    +0.000 A 
BRANCH   8  14
ATOM     14  O   UNL     1       1.258   4.116  18.499  0.00  0.00    +0.000 OA
BRANCH  14  15
ATOM     15  C   UNL     1       0.971   2.742  18.777  0.00  0.00    +0.000 C 
BRANCH  15  17
ATOM     16  C   UNL     1       1.316   3.644  21.070  0.00  0.00    +0.000 C 
ATOM     17  C   UNL     1       1.314   2.383  20.216  0.00  0.00    +0.000 C 
ENDBRANCH  15  17
ENDBRANCH  14  15
ENDBRANCH   8  14
ENDBRANCH   7  11
ENDBRANCH   1   7
BRANCH   3  18
ATOM     18  C   UNL     1       7.603   9.296  17.433  0.00  0.00    +0.000 C 
BRANCH  18  19
ATOM     19  C   UNL     1       8.359  10.514  17.897  0.00  0.00    +0.000 A 
ATOM     20  C   UNL     1       9.464  10.387  18.751  0.00  0.00    +0.000 A 
ATOM     21  C   UNL     1      10.145  11.521  19.202  0.00  0.00    +0.000 A 
ATOM     22  C   UNL     1       9.758  12.796  18.784  0.00  0.00    +0.000 A 
ATOM     23  C   UNL     1       8.687  12.923  17.902  0.00  0.00    +0.000 A 
ATOM     24  C   UNL     1       7.984  11.792  17.473  0.00  0.00    +0.000 A 
BRANCH  22  25
ATOM     25  O   UNL     1      10.442  13.832  19.355  0.00  0.00    +0.000 OA
BRANCH  25  26
ATOM     26  C   UNL     1      11.787  14.073  18.924  0.00  0.00    +0.000 C 
ATOM     27  C   UNL     1      11.828  14.556  17.475  0.00  0.00    +0.000 C 
ATOM     28  C   UNL     1      12.333  15.183  19.825  0.00  0.00    +0.000 C 
ENDBRANCH  25  26
ENDBRANCH  22  25
ENDBRANCH  18  19
ENDBRANCH   3  18
TORSDOF 10
ENDMDL
