MODEL 1
REMARK VINA RESULT:      -7.8      0.000      0.000
REMARK  Name = 
REMARK  7 active torsions:
REMARK  status: ('A' for Active; 'I' for Inactive)
REMARK    1  A    between atoms: C_1  and  C_2
REMARK    2  A    between atoms: C_2  and  C_3
REMARK    3  A    between atoms: C_3  and  C_4
REMARK    4  A    between atoms: C_9  and  C_10
REMARK    5  A    between atoms: C_13  and  C_14
REMARK    6  A    between atoms: C_17  and  C_18
REMARK    7  A    between atoms: C_18  and  O_20
REMARK                            x       y       z     vdW  Elec       q    Type
REMARK                         _______ _______ _______ _____ _____    ______ ____
ROOT
ATOM      1  C   UNL     1       1.778   7.661  20.096  0.00  0.00    +0.000 A 
ATOM      2  C   UNL     1       1.897   6.335  20.457  0.00  0.00    +0.000 A 
ATOM      3  N   UNL     1       2.644   5.539  19.598  0.00  0.00    +0.000 NA
ATOM      4  C   UNL     1       3.106   6.273  18.600  0.00  0.00    +0.000 A 
ATOM      5  S   UNL     1       2.626   7.921  18.643  0.00  0.00    +0.000 S 
ENDROOT
BRANCH   1  11
ATOM      6  C   UNL     1      -1.139  11.524  21.428  0.00  0.00    +0.000 A 
ATOM      7  C   UNL     1      -1.600  11.879  20.146  0.00  0.00    +0.000 A 
ATOM      8  C   UNL     1      -1.213  11.183  19.006  0.00  0.00    +0.000 A 
ATOM      9  C   UNL     1      -0.337  10.103  19.100  0.00  0.00    +0.000 A 
ATOM     10  C   UNL     1       0.155   9.710  20.363  0.00  0.00    +0.000 A 
ATOM     11  C   UNL     1       1.028   8.699  20.873  0.00  0.00    +0.000 A 
ATOM     12  N   UNL     1       1.132   8.763  22.209  0.00  0.00    +0.000 NA
ATOM     13  N   UNL     1       0.356   9.807  22.542  0.00  0.00    +0.000 N 
ATOM     14  C   UNL     1      -0.263  10.423  21.485  0.00  0.00    +0.000 A 
ATOM     15  H   UNL     1       0.285  10.054  23.522  0.00  0.00    +0.000 HD
BRANCH   6  16
ATOM     16  C   UNL     1      -1.604  12.301  22.636  0.00  0.00    +0.000 C 
BRANCH  16  18
ATOM     17  C   UNL     1      -3.735  12.455  24.029  0.00  0.00    +0.000 C 
ATOM     18  C   UNL     1      -3.111  12.582  22.647  0.00  0.00    +0.000 C 
ENDBRANCH  16  18
ENDBRANCH   6  16
ENDBRANCH   1  11
BRANCH   4  19
ATOM     19  C   UNL     1       3.969   5.779  17.511  0.00  0.00    +0.000 A 
ATOM     20  C   UNL     1       4.087   4.413  17.261  0.00  0.00    +0.000 A 
ATOM     21  C   UNL     1       4.942   3.976  16.247  0.00  0.00    +0.000 A 
ATOM     22  C   UNL     1       5.654   4.918  15.502  0.00  0.00    +0.000 A 
ATOM     23  C   UNL     1       5.491   6.258  15.820  0.00  0.00    +0.000 A 
ATOM     24  N   UNL     1       4.658   6.705  16.794  0.00  0.00    +0.000 NA
BRANCH  22  25
ATOM     25  C   UNL     1       6.611   4.570  14.434  0.00  0.00    +0.000 C 
ATOM     26  O   UNL     1       7.557   5.282  14.144  0.00  0.00    +0.000 OA
BRANCH  25  27
ATOM     27  O   UNL     1       6.329   3.421  13.787  0.00  0.00    +0.000 OA
ATOM     28  H   UNL     1       5.646   2.857  14.194  0.00  0.00    +0.000 HD
ENDBRANCH  25  27
ENDBRANCH  22  25
ENDBRANCH   4  19
TORSDOF 6
ENDMDL
MODEL 2
REMARK VINA RESULT:      -7.7      4.886      9.989
REMARK  Name = 
REMARK  7 active torsions:
REMARK  status: ('A' for Active; 'I' for Inactive)
REMARK    1  A    between atoms: C_1  and  C_2
REMARK    2  A    between atoms: C_2  and  C_3
REMARK    3  A    between atoms: C_3  and  C_4
REMARK    4  A    between atoms: C_9  and  C_10
REMARK    5  A    between atoms: C_13  and  C_14
REMARK    6  A    between atoms: C_17  and  C_18
REMARK    7  A    between atoms: C_18  and  O_20
REMARK                            x       y       z     vdW  Elec       q    Type
REMARK                         _______ _______ _______ _____ _____    ______ ____
ROOT
ATOM      1  C   UNL     1       2.017   8.374  18.554  0.00  0.00    +0.000 A 
ATOM      2  C   UNL     1       1.456   9.407  17.833  0.00  0.00    +0.000 A 
ATOM      3  N   UNL     1       0.583  10.230  18.534  0.00  0.00    +0.000 NA
ATOM      4  C   UNL     1       0.504   9.827  19.791  0.00  0.00    +0.000 A 
ATOM      5  S   UNL     1       1.439   8.433  20.155  0.00  0.00    +0.000 S 
ENDROOT
BRANCH   1  11
ATOM      6  C   UNL     1       4.244   4.134  17.046  0.00  0.00    +0.000 A 
ATOM      7  C   UNL     1       3.187   3.245  17.317  0.00  0.00    +0.000 A 
ATOM      8  C   UNL     1       1.974   3.681  17.838  0.00  0.00    +0.000 A 
ATOM      9  C   UNL     1       1.770   5.030  18.121  0.00  0.00    +0.000 A 
ATOM     10  C   UNL     1       2.799   5.961  17.869  0.00  0.00    +0.000 A 
ATOM     11  C   UNL     1       2.987   7.372  18.008  0.00  0.00    +0.000 A 
ATOM     12  N   UNL     1       4.198   7.755  17.576  0.00  0.00    +0.000 NA
ATOM     13  N   UNL     1       4.779   6.608  17.190  0.00  0.00    +0.000 N 
ATOM     14  C   UNL     1       3.999   5.491  17.336  0.00  0.00    +0.000 A 
ATOM     15  H   UNL     1       5.724   6.651  16.827  0.00  0.00    +0.000 HD
BRANCH   6  16
ATOM     16  C   UNL     1       5.536   3.613  16.463  0.00  0.00    +0.000 C 
BRANCH  16  18
ATOM     17  C   UNL     1       6.969   4.828  14.738  0.00  0.00    +0.000 C 
ATOM     18  C   UNL     1       5.735   3.972  14.986  0.00  0.00    +0.000 C 
ENDBRANCH  16  18
ENDBRANCH   6  16
ENDBRANCH   1  11
BRANCH   4  19
ATOM     19  C   UNL     1      -0.298  10.478  20.842  0.00  0.00    +0.000 A 
ATOM     20  C   UNL     1      -0.291   9.991  22.147  0.00  0.00    +0.000 A 
ATOM     21  C   UNL     1      -1.093  10.607  23.111  0.00  0.00    +0.000 A 
ATOM     22  C   UNL     1      -1.878  11.702  22.746  0.00  0.00    +0.000 A 
ATOM     23  C   UNL     1      -1.840  12.120  21.424  0.00  0.00    +0.000 A 
ATOM     24  N   UNL     1      -1.061  11.542  20.475  0.00  0.00    +0.000 NA
BRANCH  22  25
ATOM     25  C   UNL     1      -2.788  12.406  23.670  0.00  0.00    +0.000 C 
ATOM     26  O   UNL     1      -3.762  11.868  24.167  0.00  0.00    +0.000 OA
BRANCH  25  27
ATOM     27  O   UNL     1      -2.470  13.699  23.887  0.00  0.00    +0.000 OA
ATOM     28  H   UNL     1      -2.291  14.235  23.093  0.00  0.00    +0.000 HD
ENDBRANCH  25  27
ENDBRANCH  22  25
ENDBRANCH   4  19
TORSDOF 6
ENDMDL
MODEL 3
REMARK VINA RESULT:      -7.7      1.002      1.237
REMARK  Name = 
REMARK  7 active torsions:
REMARK  status: ('A' for Active; 'I' for Inactive)
REMARK    1  A    between atoms: C_1  and  C_2
REMARK    2  A    between atoms: C_2  and  C_3
REMARK    3  A    between atoms: C_3  and  C_4
REMARK    4  A    between atoms: C_9  and  C_10
REMARK    5  A    between atoms: C_13  and  C_14
REMARK    6  A    between atoms: C_17  and  C_18
REMARK    7  A    between atoms: C_18  and  O_20
REMARK                            x       y       z     vdW  Elec       q    Type
REMARK                         _______ _______ _______ _____ _____    ______ ____
ROOT
ATOM      1  C   UNL     1       1.504   8.543  19.586  0.00  0.00    +0.000 A 
ATOM      2  C   UNL     1       1.798   7.393  20.290  0.00  0.00    +0.000 A 
ATOM      3  N   UNL     1       2.625   6.484  19.643  0.00  0.00    +0.000 NA
ATOM      4  C   UNL     1       2.971   6.960  18.459  0.00  0.00    +0.000 A 
ATOM      5  S   UNL     1       2.285   8.487  18.074  0.00  0.00    +0.000 S 
ENDROOT
BRANCH   1  11
ATOM      6  C   UNL     1      -1.986  12.126  20.026  0.00  0.00    +0.000 A 
ATOM      7  C   UNL     1      -2.637  11.924  18.794  0.00  0.00    +0.000 A 
ATOM      8  C   UNL     1      -2.235  10.935  17.902  0.00  0.00    +0.000 A 
ATOM      9  C   UNL     1      -1.153  10.110  18.202  0.00  0.00    +0.000 A 
ATOM     10  C   UNL     1      -0.466  10.274  19.423  0.00  0.00    +0.000 A 
ATOM     11  C   UNL     1       0.642   9.661  20.088  0.00  0.00    +0.000 A 
ATOM     12  N   UNL     1       0.866  10.212  21.290  0.00  0.00    +0.000 NA
ATOM     13  N   UNL     1      -0.068  11.173  21.381  0.00  0.00    +0.000 N 
ATOM     14  C   UNL     1      -0.903  11.267  20.299  0.00  0.00    +0.000 A 
ATOM     15  H   UNL     1      -0.087  11.739  22.221  0.00  0.00    +0.000 HD
BRANCH   6  16
ATOM     16  C   UNL     1      -2.473  13.201  20.967  0.00  0.00    +0.000 C 
BRANCH  16  18
ATOM     17  C   UNL     1      -4.888  12.758  21.659  0.00  0.00    +0.000 C 
ATOM     18  C   UNL     1      -3.421  12.684  22.056  0.00  0.00    +0.000 C 
ENDBRANCH  16  18
ENDBRANCH   6  16
ENDBRANCH   1  11
BRANCH   4  19
ATOM     19  C   UNL     1       3.870   6.287  17.503  0.00  0.00    +0.000 A 
ATOM     20  C   UNL     1       3.959   4.897  17.468  0.00  0.00    +0.000 A 
ATOM     21  C   UNL     1       4.849   4.293  16.576  0.00  0.00    +0.000 A 
ATOM     22  C   UNL     1       5.623   5.095  15.737  0.00  0.00    +0.000 A 
ATOM     23  C   UNL     1       5.485   6.471  15.840  0.00  0.00    +0.000 A 
ATOM     24  N   UNL     1       4.620   7.078  16.691  0.00  0.00    +0.000 NA
BRANCH  22  25
ATOM     25  C   UNL     1       6.619   4.567  14.784  0.00  0.00    +0.000 C 
ATOM     26  O   UNL     1       7.637   5.174  14.498  0.00  0.00    +0.000 OA
BRANCH  25  27
ATOM     27  O   UNL     1       6.290   3.381  14.234  0.00  0.00    +0.000 OA
ATOM     28  H   UNL     1       5.416   3.024  14.476  0.00  0.00    +0.000 HD
ENDBRANCH  25  27
ENDBRANCH  22  25
ENDBRANCH   4  19
TORSDOF 6
ENDMDL
MODEL 4
REMARK VINA RESULT:      -7.5      1.360      1.835
REMARK  Name = 
REMARK  7 active torsions:
REMARK  status: ('A' for Active; 'I' for Inactive)
REMARK    1  A    between atoms: C_1  and  C_2
REMARK    2  A    between atoms: C_2  and  C_3
REMARK    3  A    between atoms: C_3  and  C_4
REMARK    4  A    between atoms: C_9  and  C_10
REMARK    5  A    between atoms: C_13  and  C_14
REMARK    6  A    between atoms: C_17  and  C_18
REMARK    7  A    between atoms: C_18  and  O_20
REMARK                            x       y       z     vdW  Elec       q    Type
REMARK                         _______ _______ _______ _____ _____    ______ ____
ROOT
ATOM      1  C   UNL     1       1.610   8.572  19.294  0.00  0.00    +0.000 A 
ATOM      2  C   UNL     1       1.972   7.486  20.064  0.00  0.00    +0.000 A 
ATOM      3  N   UNL     1       2.824   6.573  19.456  0.00  0.00    +0.000 NA
ATOM      4  C   UNL     1       3.122   6.984  18.236  0.00  0.00    +0.000 A 
ATOM      5  S   UNL     1       2.358   8.450  17.770  0.00  0.00    +0.000 S 
ENDROOT
BRANCH   1  11
ATOM      6  C   UNL     1      -1.360  11.586  21.998  0.00  0.00    +0.000 A 
ATOM      7  C   UNL     1      -1.268  10.907  23.228  0.00  0.00    +0.000 A 
ATOM      8  C   UNL     1      -0.494   9.762  23.380  0.00  0.00    +0.000 A 
ATOM      9  C   UNL     1       0.216   9.239  22.301  0.00  0.00    +0.000 A 
ATOM     10  C   UNL     1       0.154   9.881  21.047  0.00  0.00    +0.000 A 
ATOM     11  C   UNL     1       0.710   9.682  19.744  0.00  0.00    +0.000 A 
ATOM     12  N   UNL     1       0.328  10.644  18.890  0.00  0.00    +0.000 NA
ATOM     13  N   UNL     1      -0.472  11.429  19.628  0.00  0.00    +0.000 N 
ATOM     14  C   UNL     1      -0.622  11.033  20.932  0.00  0.00    +0.000 A 
ATOM     15  H   UNL     1      -0.893  12.235  19.181  0.00  0.00    +0.000 HD
BRANCH   6  16
ATOM     16  C   UNL     1      -2.200  12.835  21.889  0.00  0.00    +0.000 C 
BRANCH  16  18
ATOM     17  C   UNL     1      -4.435  13.721  22.739  0.00  0.00    +0.000 C 
ATOM     18  C   UNL     1      -3.104  13.079  23.102  0.00  0.00    +0.000 C 
ENDBRANCH  16  18
ENDBRANCH   6  16
ENDBRANCH   1  11
BRANCH   4  19
ATOM     19  C   UNL     1       4.028   6.290  17.302  0.00  0.00    +0.000 A 
ATOM     20  C   UNL     1       4.318   4.937  17.466  0.00  0.00    +0.000 A 
ATOM     21  C   UNL     1       5.211   4.319  16.587  0.00  0.00    +0.000 A 
ATOM     22  C   UNL     1       5.787   5.069  15.562  0.00  0.00    +0.000 A 
ATOM     23  C   UNL     1       5.458   6.413  15.473  0.00  0.00    +0.000 A 
ATOM     24  N   UNL     1       4.586   7.031  16.308  0.00  0.00    +0.000 NA
BRANCH  22  25
ATOM     25  C   UNL     1       6.769   4.530  14.600  0.00  0.00    +0.000 C 
ATOM     26  O   UNL     1       7.811   5.105  14.336  0.00  0.00    +0.000 OA
BRANCH  25  27
ATOM     27  O   UNL     1       6.398   3.373  14.016  0.00  0.00    +0.000 OA
ATOM     28  H   UNL     1       6.659   2.556  14.481  0.00  0.00    +0.000 HD
ENDBRANCH  25  27
ENDBRANCH  22  25
ENDBRANCH   4  19
TORSDOF 6
ENDMDL
MODEL 5
REMARK VINA RESULT:      -7.4      4.401      9.941
REMARK  Name = 
REMARK  7 active torsions:
REMARK  status: ('A' for Active; 'I' for Inactive)
REMARK    1  A    between atoms: C_1  and  C_2
REMARK    2  A    between atoms: C_2  and  C_3
REMARK    3  A    between atoms: C_3  and  C_4
REMARK    4  A    between atoms: C_9  and  C_10
REMARK    5  A    between atoms: C_13  and  C_14
REMARK    6  A    between atoms: C_17  and  C_18
REMARK    7  A    between atoms: C_18  and  O_20
REMARK                            x       y       z     vdW  Elec       q    Type
REMARK                         _______ _______ _______ _____ _____    ______ ____
ROOT
ATOM      1  C   UNL     1       2.599   6.241  19.092  0.00  0.00    +0.000 A 
ATOM      2  C   UNL     1       2.130   5.698  20.271  0.00  0.00    +0.000 A 
ATOM      3  N   UNL     1       1.446   6.571  21.108  0.00  0.00    +0.000 NA
ATOM      4  C   UNL     1       1.380   7.767  20.548  0.00  0.00    +0.000 A 
ATOM      5  S   UNL     1       2.170   7.888  19.027  0.00  0.00    +0.000 S 
ENDROOT
BRANCH   1  11
ATOM      6  C   UNL     1       6.076   4.707  15.811  0.00  0.00    +0.000 A 
ATOM      7  C   UNL     1       7.061   5.671  16.098  0.00  0.00    +0.000 A 
ATOM      8  C   UNL     1       6.874   6.648  17.070  0.00  0.00    +0.000 A 
ATOM      9  C   UNL     1       5.684   6.708  17.792  0.00  0.00    +0.000 A 
ATOM     10  C   UNL     1       4.665   5.766  17.540  0.00  0.00    +0.000 A 
ATOM     11  C   UNL     1       3.354   5.489  18.040  0.00  0.00    +0.000 A 
ATOM     12  N   UNL     1       2.813   4.417  17.443  0.00  0.00    +0.000 NA
ATOM     13  N   UNL     1       3.751   4.031  16.564  0.00  0.00    +0.000 N 
ATOM     14  C   UNL     1       4.890   4.794  16.567  0.00  0.00    +0.000 A 
ATOM     15  H   UNL     1       3.556   3.226  15.981  0.00  0.00    +0.000 HD
BRANCH   6  16
ATOM     16  C   UNL     1       6.335   3.656  14.759  0.00  0.00    +0.000 C 
BRANCH  16  18
ATOM     17  C   UNL     1       6.338   3.313  12.232  0.00  0.00    +0.000 C 
ATOM     18  C   UNL     1       5.625   3.927  13.428  0.00  0.00    +0.000 C 
ENDBRANCH  16  18
ENDBRANCH   6  16
ENDBRANCH   1  11
BRANCH   4  19
ATOM     19  C   UNL     1       0.699   8.939  21.126  0.00  0.00    +0.000 A 
ATOM     20  C   UNL     1       0.774  10.184  20.505  0.00  0.00    +0.000 A 
ATOM     21  C   UNL     1       0.149  11.283  21.100  0.00  0.00    +0.000 A 
ATOM     22  C   UNL     1      -0.541  11.107  22.300  0.00  0.00    +0.000 A 
ATOM     23  C   UNL     1      -0.558   9.840  22.863  0.00  0.00    +0.000 A 
ATOM     24  N   UNL     1       0.032   8.757  22.297  0.00  0.00    +0.000 NA
BRANCH  22  25
ATOM     25  C   UNL     1      -1.205  12.202  23.034  0.00  0.00    +0.000 C 
ATOM     26  O   UNL     1      -0.613  13.208  23.388  0.00  0.00    +0.000 OA
BRANCH  25  27
ATOM     27  O   UNL     1      -2.506  11.978  23.309  0.00  0.00    +0.000 OA
ATOM     28  H   UNL     1      -2.966  12.680  23.805  0.00  0.00    +0.000 HD
ENDBRANCH  25  27
ENDBRANCH  22  25
ENDBRANCH   4  19
TORSDOF 6
ENDMDL
MODEL 6
REMARK VINA RESULT:      -7.3      1.570      2.130
REMARK  Name = 
REMARK  7 active torsions:
REMARK  status: ('A' for Active; 'I' for Inactive)
REMARK    1  A    between atoms: C_1  and  C_2
REMARK    2  A    between atoms: C_2  and  C_3
REMARK    3  A    between atoms: C_3  and  C_4
REMARK    4  A    between atoms: C_9  and  C_10
REMARK    5  A    between atoms: C_13  and  C_14
REMARK    6  A    between atoms: C_17  and  C_18
REMARK    7  A    between atoms: C_18  and  O_20
REMARK                            x       y       z     vdW  Elec       q    Type
REMARK                         _______ _______ _______ _____ _____    ______ ____
ROOT
ATOM      1  C   UNL     1       1.273   8.904  19.395  0.00  0.00    +0.000 A 
ATOM      2  C   UNL     1       1.585   7.869  20.252  0.00  0.00    +0.000 A 
ATOM      3  N   UNL     1       2.435   6.896  19.741  0.00  0.00    +0.000 NA
ATOM      4  C   UNL     1       2.781   7.212  18.504  0.00  0.00    +0.000 A 
ATOM      5  S   UNL     1       2.067   8.656  17.909  0.00  0.00    +0.000 S 
ENDROOT
BRANCH   1  11
ATOM      6  C   UNL     1      -1.766  12.131  21.753  0.00  0.00    +0.000 A 
ATOM      7  C   UNL     1      -1.784  11.504  23.014  0.00  0.00    +0.000 A 
ATOM      8  C   UNL     1      -1.064  10.342  23.268  0.00  0.00    +0.000 A 
ATOM      9  C   UNL     1      -0.301   9.748  22.264  0.00  0.00    +0.000 A 
ATOM     10  C   UNL     1      -0.252  10.336  20.983  0.00  0.00    +0.000 A 
ATOM     11  C   UNL     1       0.385  10.061  19.733  0.00  0.00    +0.000 A 
ATOM     12  N   UNL     1       0.098  10.997  18.815  0.00  0.00    +0.000 NA
ATOM     13  N   UNL     1      -0.722  11.840  19.461  0.00  0.00    +0.000 N 
ATOM     14  C   UNL     1      -0.977  11.507  20.766  0.00  0.00    +0.000 A 
ATOM     15  H   UNL     1      -1.082  12.639  18.952  0.00  0.00    +0.000 HD
BRANCH   6  16
ATOM     16  C   UNL     1      -2.550  13.402  21.533  0.00  0.00    +0.000 C 
BRANCH  16  18
ATOM     17  C   UNL     1      -3.050  15.506  22.885  0.00  0.00    +0.000 C 
ATOM     18  C   UNL     1      -3.147  13.989  22.817  0.00  0.00    +0.000 C 
ENDBRANCH  16  18
ENDBRANCH   6  16
ENDBRANCH   1  11
BRANCH   4  19
ATOM     19  C   UNL     1       3.701   6.433  17.654  0.00  0.00    +0.000 A 
ATOM     20  C   UNL     1       3.551   5.055  17.522  0.00  0.00    +0.000 A 
ATOM     21  C   UNL     1       4.462   4.341  16.740  0.00  0.00    +0.000 A 
ATOM     22  C   UNL     1       5.498   5.027  16.104  0.00  0.00    +0.000 A 
ATOM     23  C   UNL     1       5.587   6.397  16.295  0.00  0.00    +0.000 A 
ATOM     24  N   UNL     1       4.707   7.111  17.042  0.00  0.00    +0.000 NA
BRANCH  22  25
ATOM     25  C   UNL     1       6.537   4.372  15.285  0.00  0.00    +0.000 C 
ATOM     26  O   UNL     1       6.268   3.661  14.331  0.00  0.00    +0.000 OA
BRANCH  25  27
ATOM     27  O   UNL     1       7.799   4.598  15.702  0.00  0.00    +0.000 OA
ATOM     28  H   UNL     1       7.965   4.471  16.653  0.00  0.00    +0.000 HD
ENDBRANCH  25  27
ENDBRANCH  22  25
ENDBRANCH   4  19
TORSDOF 6
ENDMDL
MODEL 7
REMARK VINA RESULT:      -7.2      3.858      4.954
REMARK  Name = 
REMARK  7 active torsions:
REMARK  status: ('A' for Active; 'I' for Inactive)
REMARK    1  A    between atoms: C_1  and  C_2
REMARK    2  A    between atoms: C_2  and  C_3
REMARK    3  A    between atoms: C_3  and  C_4
REMARK    4  A    between atoms: C_9  and  C_10
REMARK    5  A    between atoms: C_13  and  C_14
REMARK    6  A    between atoms: C_17  and  C_18
REMARK    7  A    between atoms: C_18  and  O_20
REMARK                            x       y       z     vdW  Elec       q    Type
REMARK                         _______ _______ _______ _____ _____    ______ ____
ROOT
ATOM      1  C   UNL     1       0.867  10.562  19.426  0.00  0.00    +0.000 A 
ATOM      2  C   UNL     1       0.771  10.005  20.685  0.00  0.00    +0.000 A 
ATOM      3  N   UNL     1       1.228   8.699  20.803  0.00  0.00    +0.000 NA
ATOM      4  C   UNL     1       1.690   8.280  19.637  0.00  0.00    +0.000 A 
ATOM      5  S   UNL     1       1.551   9.422  18.362  0.00  0.00    +0.000 S 
ENDROOT
BRANCH   1  11
ATOM      6  C   UNL     1       0.660  15.543  18.826  0.00  0.00    +0.000 A 
ATOM      7  C   UNL     1       1.914  15.863  19.381  0.00  0.00    +0.000 A 
ATOM      8  C   UNL     1       2.774  14.886  19.868  0.00  0.00    +0.000 A 
ATOM      9  C   UNL     1       2.411  13.541  19.832  0.00  0.00    +0.000 A 
ATOM     10  C   UNL     1       1.164  13.169  19.288  0.00  0.00    +0.000 A 
ATOM     11  C   UNL     1       0.444  11.953  19.068  0.00  0.00    +0.000 A 
ATOM     12  N   UNL     1      -0.735  12.178  18.469  0.00  0.00    +0.000 NA
ATOM     13  N   UNL     1      -0.775  13.513  18.329  0.00  0.00    +0.000 N 
ATOM     14  C   UNL     1       0.331  14.173  18.798  0.00  0.00    +0.000 A 
ATOM     15  H   UNL     1      -1.596  13.922  17.899  0.00  0.00    +0.000 HD
BRANCH   6  16
ATOM     16  C   UNL     1      -0.230  16.639  18.294  0.00  0.00    +0.000 C 
BRANCH  16  18
ATOM     17  C   UNL     1      -0.071  18.531  16.590  0.00  0.00    +0.000 C 
ATOM     18  C   UNL     1       0.535  17.883  17.827  0.00  0.00    +0.000 C 
ENDBRANCH  16  18
ENDBRANCH   6  16
ENDBRANCH   1  11
BRANCH   4  19
ATOM     19  C   UNL     1       2.289   6.956  19.387  0.00  0.00    +0.000 A 
ATOM     20  C   UNL     1       2.060   5.895  20.260  0.00  0.00    +0.000 A 
ATOM     21  C   UNL     1       2.673   4.664  20.014  0.00  0.00    +0.000 A 
ATOM     22  C   UNL     1       3.496   4.523  18.895  0.00  0.00    +0.000 A 
ATOM     23  C   UNL     1       3.683   5.630  18.081  0.00  0.00    +0.000 A 
ATOM     24  N   UNL     1       3.089   6.831  18.295  0.00  0.00    +0.000 NA
BRANCH  22  25
ATOM     25  C   UNL     1       4.222   3.283  18.559  0.00  0.00    +0.000 C 
ATOM     26  O   UNL     1       3.888   2.559  17.635  0.00  0.00    +0.000 OA
BRANCH  25  27
ATOM     27  O   UNL     1       5.256   3.004  19.377  0.00  0.00    +0.000 OA
ATOM     28  H   UNL     1       5.159   2.211  19.935  0.00  0.00    +0.000 HD
ENDBRANCH  25  27
ENDBRANCH  22  25
ENDBRANCH   4  19
TORSDOF 6
ENDMDL
MODEL 8
REMARK VINA RESULT:      -7.2      1.329      1.778
REMARK  Name = 
REMARK  7 active torsions:
REMARK  status: ('A' for Active; 'I' for Inactive)
REMARK    1  A    between atoms: C_1  and  C_2
REMARK    2  A    between atoms: C_2  and  C_3
REMARK    3  A    between atoms: C_3  and  C_4
REMARK    4  A    between atoms: C_9  and  C_10
REMARK    5  A    between atoms: C_13  and  C_14
REMARK    6  A    between atoms: C_17  and  C_18
REMARK    7  A    between atoms: C_18  and  O_20
REMARK                            x       y       z     vdW  Elec       q    Type
REMARK                         _______ _______ _______ _____ _____    ______ ____
ROOT
ATOM      1  C   UNL     1       1.281   8.807  19.642  0.00  0.00    +0.000 A 
ATOM      2  C   UNL     1       1.611   7.734  20.444  0.00  0.00    +0.000 A 
ATOM      3  N   UNL     1       2.457   6.790  19.874  0.00  0.00    +0.000 NA
ATOM      4  C   UNL     1       2.781   7.165  18.648  0.00  0.00    +0.000 A 
ATOM      5  S   UNL     1       2.051   8.633  18.133  0.00  0.00    +0.000 S 
ENDROOT
BRANCH   1  11
ATOM      6  C   UNL     1      -2.366  12.251  19.848  0.00  0.00    +0.000 A 
ATOM      7  C   UNL     1      -3.087  11.847  18.708  0.00  0.00    +0.000 A 
ATOM      8  C   UNL     1      -2.692  10.763  17.933  0.00  0.00    +0.000 A 
ATOM      9  C   UNL     1      -1.547  10.039  18.261  0.00  0.00    +0.000 A 
ATOM     10  C   UNL     1      -0.789  10.405  19.393  0.00  0.00    +0.000 A 
ATOM     11  C   UNL     1       0.394   9.943  20.049  0.00  0.00    +0.000 A 
ATOM     12  N   UNL     1       0.668  10.668  21.144  0.00  0.00    +0.000 NA
ATOM     13  N   UNL     1      -0.309  11.588  21.173  0.00  0.00    +0.000 N 
ATOM     14  C   UNL     1      -1.220  11.490  20.154  0.00  0.00    +0.000 A 
ATOM     15  H   UNL     1      -0.303  12.266  21.926  0.00  0.00    +0.000 HD
BRANCH   6  16
ATOM     16  C   UNL     1      -2.847  13.424  20.667  0.00  0.00    +0.000 C 
BRANCH  16  18
ATOM     17  C   UNL     1      -3.656  13.393  23.086  0.00  0.00    +0.000 C 
ATOM     18  C   UNL     1      -3.985  13.076  21.634  0.00  0.00    +0.000 C 
ENDBRANCH  16  18
ENDBRANCH   6  16
ENDBRANCH   1  11
BRANCH   4  19
ATOM     19  C   UNL     1       3.689   6.432  17.748  0.00  0.00    +0.000 A 
ATOM     20  C   UNL     1       4.447   7.109  16.796  0.00  0.00    +0.000 A 
ATOM     21  C   UNL     1       5.269   6.380  15.932  0.00  0.00    +0.000 A 
ATOM     22  C   UNL     1       5.317   4.990  16.048  0.00  0.00    +0.000 A 
ATOM     23  C   UNL     1       4.523   4.389  17.014  0.00  0.00    +0.000 A 
ATOM     24  N   UNL     1       3.727   5.078  17.869  0.00  0.00    +0.000 NA
BRANCH  22  25
ATOM     25  C   UNL     1       6.120   4.119  15.169  0.00  0.00    +0.000 C 
ATOM     26  O   UNL     1       6.774   4.553  14.236  0.00  0.00    +0.000 OA
BRANCH  25  27
ATOM     27  O   UNL     1       6.039   2.805  15.462  0.00  0.00    +0.000 OA
ATOM     28  H   UNL     1       6.879   2.311  15.449  0.00  0.00    +0.000 HD
ENDBRANCH  25  27
ENDBRANCH  22  25
ENDBRANCH   4  19
TORSDOF 6
ENDMDL
MODEL 9
REMARK VINA RESULT:      -7.2      2.905      3.703
REMARK  Name = 
REMARK  7 active torsions:
REMARK  status: ('A' for Active; 'I' for Inactive)
REMARK    1  A    between atoms: C_1  and  C_2
REMARK    2  A    between atoms: C_2  and  C_3
REMARK    3  A    between atoms: C_3  and  C_4
REMARK    4  A    between atoms: C_9  and  C_10
REMARK    5  A    between atoms: C_13  and  C_14
REMARK    6  A    between atoms: C_17  and  C_18
REMARK    7  A    between atoms: C_18  and  O_20
REMARK                            x       y       z     vdW  Elec       q    Type
REMARK                         _______ _______ _______ _____ _____    ______ ____
ROOT
ATOM      1  C   UNL     1       1.232   9.326  19.311  0.00  0.00    +0.000 A 
ATOM      2  C   UNL     1       1.879   9.169  18.102  0.00  0.00    +0.000 A 
ATOM      3  N   UNL     1       2.598   7.990  17.951  0.00  0.00    +0.000 NA
ATOM      4  C   UNL     1       2.474   7.249  19.039  0.00  0.00    +0.000 A 
ATOM      5  S   UNL     1       1.529   7.961  20.284  0.00  0.00    +0.000 S 
ENDROOT
BRANCH   1  11
ATOM      6  C   UNL     1      -1.702  12.577  21.767  0.00  0.00    +0.000 A 
ATOM      7  C   UNL     1      -1.787  11.886  22.990  0.00  0.00    +0.000 A 
ATOM      8  C   UNL     1      -1.135  10.676  23.198  0.00  0.00    +0.000 A 
ATOM      9  C   UNL     1      -0.375  10.097  22.183  0.00  0.00    +0.000 A 
ATOM     10  C   UNL     1      -0.261  10.750  20.937  0.00  0.00    +0.000 A 
ATOM     11  C   UNL     1       0.395  10.509  19.690  0.00  0.00    +0.000 A 
ATOM     12  N   UNL     1       0.182  11.506  18.818  0.00  0.00    +0.000 NA
ATOM     13  N   UNL     1      -0.612  12.355  19.489  0.00  0.00    +0.000 N 
ATOM     14  C   UNL     1      -0.919  11.967  20.767  0.00  0.00    +0.000 A 
ATOM     15  H   UNL     1      -0.916  13.198  19.015  0.00  0.00    +0.000 HD
BRANCH   6  16
ATOM     16  C   UNL     1      -2.414  13.897  21.597  0.00  0.00    +0.000 C 
BRANCH  16  18
ATOM     17  C   UNL     1      -4.506  13.091  20.382  0.00  0.00    +0.000 C 
ATOM     18  C   UNL     1      -3.942  13.781  21.615  0.00  0.00    +0.000 C 
ENDBRANCH  16  18
ENDBRANCH   6  16
ENDBRANCH   1  11
BRANCH   4  19
ATOM     19  C   UNL     1       3.071   5.914  19.230  0.00  0.00    +0.000 A 
ATOM     20  C   UNL     1       4.401   5.675  18.892  0.00  0.00    +0.000 A 
ATOM     21  C   UNL     1       4.924   4.389  19.050  0.00  0.00    +0.000 A 
ATOM     22  C   UNL     1       4.104   3.375  19.548  0.00  0.00    +0.000 A 
ATOM     23  C   UNL     1       2.787   3.691  19.849  0.00  0.00    +0.000 A 
ATOM     24  N   UNL     1       2.262   4.935  19.714  0.00  0.00    +0.000 NA
BRANCH  22  25
ATOM     25  C   UNL     1       4.538   1.975  19.720  0.00  0.00    +0.000 C 
ATOM     26  O   UNL     1       5.236   1.617  20.654  0.00  0.00    +0.000 OA
BRANCH  25  27
ATOM     27  O   UNL     1       4.129   1.141  18.744  0.00  0.00    +0.000 OA
ATOM     28  H   UNL     1       3.254   0.731  18.869  0.00  0.00    +0.000 HD
ENDBRANCH  25  27
ENDBRANCH  22  25
ENDBRANCH   4  19
TORSDOF 6
ENDMDL
