MODEL 1
REMARK VINA RESULT:      -7.8      0.000      0.000
REMARK  Name = 
REMARK  11 active torsions:
REMARK  status: ('A' for Active; 'I' for Inactive)
REMARK    1  A    between atoms: C_1  and  C_2
REMARK    2  A    between atoms: C_2  and  N_3
REMARK    3  A    between atoms: C_2  and  C_27
REMARK    4  A    between atoms: C_4  and  C_6
REMARK    5  A    between atoms: C_6  and  C_7
REMARK    6  A    between atoms: C_7  and  C_8
REMARK    7  A    between atoms: C_17  and  O_19
REMARK    8  A    between atoms: O_19  and  C_20
REMARK    9  A    between atoms: C_20  and  C_21
REMARK   10  A    between atoms: N_29  and  C_30
REMARK   11  A    between atoms: C_30  and  C_31
REMARK                            x       y       z     vdW  Elec       q    Type
REMARK                         _______ _______ _______ _____ _____    ______ ____
ROOT
ATOM      1  C   UNL     1      -1.325  12.409  20.636  0.00  0.00    +0.000 C 
ATOM      2  C   UNL     1      -1.687  11.714  21.993  0.00  0.00    +0.000 C 
ATOM      3  C   UNL     1      -0.805  12.726  22.721  0.00  0.00    +0.000 C 
ATOM      4  N   UNL     1      -0.287  13.101  21.424  0.00  0.00    +0.000 N 
ATOM      5  C   UNL     1       0.896  13.708  21.129  0.00  0.00    +0.000 C 
ATOM      6  O   UNL     1       1.691  14.066  21.989  0.00  0.00    +0.000 OA
ENDROOT
BRANCH   1   8
ATOM      7  N   UNL     1       0.285  10.591  19.971  0.00  0.00    +0.000 N 
ATOM      8  C   UNL     1      -0.722  11.431  19.531  0.00  0.00    +0.000 C 
ATOM      9  O   UNL     1      -1.124  11.360  18.364  0.00  0.00    +0.000 OA
ATOM     10  H   UNL     1       0.400  10.456  20.974  0.00  0.00    +0.000 HD
BRANCH   7  12
ATOM     11  C   UNL     1       1.894  10.113  18.161  0.00  0.00    +0.000 C 
ATOM     12  C   UNL     1       0.853   9.550  19.126  0.00  0.00    +0.000 C 
BRANCH  12  13
ATOM     13  C   UNL     1       1.487   8.473  20.037  0.00  0.00    +0.000 C 
ATOM     14  O   UNL     1       1.320   8.458  21.256  0.00  0.00    +0.000 OA
ATOM     15  N   UNL     1       2.232   7.533  19.364  0.00  0.00    +0.000 N 
ATOM     16  H   UNL     1       2.438   7.661  18.382  0.00  0.00    +0.000 HD
BRANCH  15  17
ATOM     17  C   UNL     1       2.832   6.395  20.018  0.00  0.00    +0.000 C 
BRANCH  17  18
ATOM     18  C   UNL     1       2.131   5.125  19.605  0.00  0.00    +0.000 A 
ATOM     19  C   UNL     1       1.589   4.253  20.556  0.00  0.00    +0.000 A 
ATOM     20  C   UNL     1       0.944   3.079  20.151  0.00  0.00    +0.000 A 
ATOM     21  C   UNL     1       0.824   2.773  18.796  0.00  0.00    +0.000 A 
ATOM     22  C   UNL     1       1.354   3.636  17.841  0.00  0.00    +0.000 A 
ATOM     23  C   UNL     1       2.006   4.801  18.244  0.00  0.00    +0.000 A 
ENDBRANCH  17  18
ENDBRANCH  15  17
ENDBRANCH  12  13
ENDBRANCH   7  12
ENDBRANCH   1   8
BRANCH   1  24
ATOM     24  C   UNL     1      -2.387  13.414  20.138  0.00  0.00    +0.000 C 
BRANCH  24  25
ATOM     25  C   UNL     1      -3.803  12.881  20.259  0.00  0.00    +0.000 A 
ATOM     26  C   UNL     1      -4.378  12.118  19.232  0.00  0.00    +0.000 A 
ATOM     27  C   UNL     1      -5.678  11.617  19.356  0.00  0.00    +0.000 A 
ATOM     28  C   UNL     1      -6.423  11.877  20.503  0.00  0.00    +0.000 A 
ATOM     29  C   UNL     1      -5.865  12.628  21.533  0.00  0.00    +0.000 A 
ATOM     30  C   UNL     1      -4.562  13.117  21.415  0.00  0.00    +0.000 A 
ENDBRANCH  24  25
ENDBRANCH   1  24
BRANCH   5  31
ATOM     31  O   UNL     1       1.046  13.933  19.800  0.00  0.00    +0.000 OA
BRANCH  31  32
ATOM     32  C   UNL     1       1.897  15.037  19.462  0.00  0.00    +0.000 C 
BRANCH  32  33
ATOM     33  C   UNL     1       1.199  16.109  18.662  0.00  0.00    +0.000 A 
ATOM     34  C   UNL     1      -0.196  16.245  18.744  0.00  0.00    +0.000 A 
ATOM     35  C   UNL     1      -0.852  17.298  18.103  0.00  0.00    +0.000 A 
ATOM     36  C   UNL     1      -0.122  18.226  17.368  0.00  0.00    +0.000 A 
ATOM     37  C   UNL     1       1.261  18.095  17.265  0.00  0.00    +0.000 A 
ATOM     38  C   UNL     1       1.920  17.043  17.911  0.00  0.00    +0.000 A 
ENDBRANCH  32  33
ENDBRANCH  31  32
ENDBRANCH   5  31
TORSDOF 10
ENDMDL
MODEL 2
REMARK VINA RESULT:      -7.7      1.973      3.130
REMARK  Name = 
REMARK  11 active torsions:
REMARK  status: ('A' for Active; 'I' for Inactive)
REMARK    1  A    between atoms: C_1  and  C_2
REMARK    2  A    between atoms: C_2  and  N_3
REMARK    3  A    between atoms: C_2  and  C_27
REMARK    4  A    between atoms: C_4  and  C_6
REMARK    5  A    between atoms: C_6  and  C_7
REMARK    6  A    between atoms: C_7  and  C_8
REMARK    7  A    between atoms: C_17  and  O_19
REMARK    8  A    between atoms: O_19  and  C_20
REMARK    9  A    between atoms: C_20  and  C_21
REMARK   10  A    between atoms: N_29  and  C_30
REMARK   11  A    between atoms: C_30  and  C_31
REMARK                            x       y       z     vdW  Elec       q    Type
REMARK                         _______ _______ _______ _____ _____    ______ ____
ROOT
ATOM      1  C   UNL     1      -1.777  12.655  21.353  0.00  0.00    +0.000 C 
ATOM      2  C   UNL     1      -3.305  12.692  21.698  0.00  0.00    +0.000 C 
ATOM      3  C   UNL     1      -3.146  14.143  22.148  0.00  0.00    +0.000 C 
ATOM      4  N   UNL     1      -1.717  13.926  22.099  0.00  0.00    +0.000 N 
ATOM      5  C   UNL     1      -0.735  14.611  22.748  0.00  0.00    +0.000 C 
ATOM      6  O   UNL     1      -0.963  15.580  23.464  0.00  0.00    +0.000 OA
ENDROOT
BRANCH   1   8
ATOM      7  N   UNL     1      -0.442  10.526  21.200  0.00  0.00    +0.000 N 
ATOM      8  C   UNL     1      -0.967  11.477  22.057  0.00  0.00    +0.000 C 
ATOM      9  O   UNL     1      -0.757  11.401  23.272  0.00  0.00    +0.000 OA
ATOM     10  H   UNL     1      -0.373  10.752  20.210  0.00  0.00    +0.000 HD
BRANCH   7  12
ATOM     11  C   UNL     1      -0.353   8.364  22.388  0.00  0.00    +0.000 C 
ATOM     12  C   UNL     1       0.430   9.457  21.666  0.00  0.00    +0.000 C 
BRANCH  12  13
ATOM     13  C   UNL     1       1.178   8.871  20.446  0.00  0.00    +0.000 C 
ATOM     14  O   UNL     1       1.318   9.495  19.394  0.00  0.00    +0.000 OA
ATOM     15  N   UNL     1       1.684   7.608  20.650  0.00  0.00    +0.000 N 
ATOM     16  H   UNL     1       1.437   7.094  21.485  0.00  0.00    +0.000 HD
BRANCH  15  17
ATOM     17  C   UNL     1       2.491   6.921  19.669  0.00  0.00    +0.000 C 
BRANCH  17  18
ATOM     18  C   UNL     1       1.992   5.511  19.477  0.00  0.00    +0.000 A 
ATOM     19  C   UNL     1       1.964   4.916  18.211  0.00  0.00    +0.000 A 
ATOM     20  C   UNL     1       1.497   3.607  18.055  0.00  0.00    +0.000 A 
ATOM     21  C   UNL     1       1.064   2.878  19.162  0.00  0.00    +0.000 A 
ATOM     22  C   UNL     1       1.092   3.456  20.428  0.00  0.00    +0.000 A 
ATOM     23  C   UNL     1       1.549   4.765  20.582  0.00  0.00    +0.000 A 
ENDBRANCH  17  18
ENDBRANCH  15  17
ENDBRANCH  12  13
ENDBRANCH   7  12
ENDBRANCH   1   8
BRANCH   1  24
ATOM     24  C   UNL     1      -1.461  12.889  19.859  0.00  0.00    +0.000 C 
BRANCH  24  25
ATOM     25  C   UNL     1      -2.185  11.917  18.945  0.00  0.00    +0.000 A 
ATOM     26  C   UNL     1      -3.585  11.920  18.851  0.00  0.00    +0.000 A 
ATOM     27  C   UNL     1      -4.246  11.031  17.996  0.00  0.00    +0.000 A 
ATOM     28  C   UNL     1      -3.518  10.125  17.230  0.00  0.00    +0.000 A 
ATOM     29  C   UNL     1      -2.129  10.112  17.308  0.00  0.00    +0.000 A 
ATOM     30  C   UNL     1      -1.469  11.009  18.152  0.00  0.00    +0.000 A 
ENDBRANCH  24  25
ENDBRANCH   1  24
BRANCH   5  31
ATOM     31  O   UNL     1       0.505  14.148  22.450  0.00  0.00    +0.000 OA
BRANCH  31  32
ATOM     32  C   UNL     1       1.352  15.079  21.762  0.00  0.00    +0.000 C 
BRANCH  32  33
ATOM     33  C   UNL     1       1.807  14.587  20.410  0.00  0.00    +0.000 A 
ATOM     34  C   UNL     1       2.338  15.494  19.479  0.00  0.00    +0.000 A 
ATOM     35  C   UNL     1       2.869  15.047  18.267  0.00  0.00    +0.000 A 
ATOM     36  C   UNL     1       2.872  13.689  17.969  0.00  0.00    +0.000 A 
ATOM     37  C   UNL     1       2.335  12.779  18.876  0.00  0.00    +0.000 A 
ATOM     38  C   UNL     1       1.807  13.225  20.093  0.00  0.00    +0.000 A 
ENDBRANCH  32  33
ENDBRANCH  31  32
ENDBRANCH   5  31
TORSDOF 10
ENDMDL
MODEL 3
REMARK VINA RESULT:      -7.7      4.309     11.343
REMARK  Name = 
REMARK  11 active torsions:
REMARK  status: ('A' for Active; 'I' for Inactive)
REMARK    1  A    between atoms: C_1  and  C_2
REMARK    2  A    between atoms: C_2  and  N_3
REMARK    3  A    between atoms: C_2  and  C_27
REMARK    4  A    between atoms: C_4  and  C_6
REMARK    5  A    between atoms: C_6  and  C_7
REMARK    6  A    between atoms: C_7  and  C_8
REMARK    7  A    between atoms: C_17  and  O_19
REMARK    8  A    between atoms: O_19  and  C_20
REMARK    9  A    between atoms: C_20  and  C_21
REMARK   10  A    between atoms: N_29  and  C_30
REMARK   11  A    between atoms: C_30  and  C_31
REMARK                            x       y       z     vdW  Elec       q    Type
REMARK                         _______ _______ _______ _____ _____    ______ ____
ROOT
ATOM      1  C   UNL     1       5.701   5.077  16.673  0.00  0.00    +0.000 C 
ATOM      2  C   UNL     1       6.357   6.412  16.179  0.00  0.00    +0.000 C 
ATOM      3  C   UNL     1       7.380   6.301  17.307  0.00  0.00    +0.000 C 
ATOM      4  N   UNL     1       6.541   5.268  17.871  0.00  0.00    +0.000 N 
ATOM      5  C   UNL     1       6.482   4.838  19.162  0.00  0.00    +0.000 C 
ATOM      6  O   UNL     1       7.210   5.278  20.043  0.00  0.00    +0.000 OA
ENDROOT
BRANCH   1   8
ATOM      7  N   UNL     1       3.745   6.316  17.660  0.00  0.00    +0.000 N 
ATOM      8  C   UNL     1       4.141   5.178  16.981  0.00  0.00    +0.000 C 
ATOM      9  O   UNL     1       3.300   4.348  16.617  0.00  0.00    +0.000 OA
ATOM     10  H   UNL     1       4.384   7.108  17.693  0.00  0.00    +0.000 HD
BRANCH   7  12
ATOM     11  C   UNL     1       1.835   5.958  19.182  0.00  0.00    +0.000 C 
ATOM     12  C   UNL     1       2.344   6.626  17.907  0.00  0.00    +0.000 C 
BRANCH  12  13
ATOM     13  C   UNL     1       2.193   8.162  18.003  0.00  0.00    +0.000 C 
ATOM     14  O   UNL     1       2.608   8.923  17.129  0.00  0.00    +0.000 OA
ATOM     15  N   UNL     1       1.543   8.594  19.135  0.00  0.00    +0.000 N 
ATOM     16  H   UNL     1       1.333   7.940  19.877  0.00  0.00    +0.000 HD
BRANCH  15  17
ATOM     17  C   UNL     1       1.222   9.982  19.372  0.00  0.00    +0.000 C 
BRANCH  17  18
ATOM     18  C   UNL     1       0.492  10.133  20.683  0.00  0.00    +0.000 A 
ATOM     19  C   UNL     1       0.498   9.112  21.640  0.00  0.00    +0.000 A 
ATOM     20  C   UNL     1      -0.186   9.273  22.849  0.00  0.00    +0.000 A 
ATOM     21  C   UNL     1      -0.871  10.458  23.118  0.00  0.00    +0.000 A 
ATOM     22  C   UNL     1      -0.879  11.483  22.176  0.00  0.00    +0.000 A 
ATOM     23  C   UNL     1      -0.206  11.318  20.967  0.00  0.00    +0.000 A 
ENDBRANCH  17  18
ENDBRANCH  15  17
ENDBRANCH  12  13
ENDBRANCH   7  12
ENDBRANCH   1   8
BRANCH   1  24
ATOM     24  C   UNL     1       6.153   3.825  15.889  0.00  0.00    +0.000 C 
BRANCH  24  25
ATOM     25  C   UNL     1       6.516   4.132  14.448  0.00  0.00    +0.000 A 
ATOM     26  C   UNL     1       5.789   3.575  13.385  0.00  0.00    +0.000 A 
ATOM     27  C   UNL     1       6.119   3.874  12.059  0.00  0.00    +0.000 A 
ATOM     28  C   UNL     1       7.183   4.727  11.777  0.00  0.00    +0.000 A 
ATOM     29  C   UNL     1       7.911   5.292  12.820  0.00  0.00    +0.000 A 
ATOM     30  C   UNL     1       7.572   5.004  14.144  0.00  0.00    +0.000 A 
ENDBRANCH  24  25
ENDBRANCH   1  24
BRANCH   5  31
ATOM     31  O   UNL     1       5.592   3.828  19.332  0.00  0.00    +0.000 OA
BRANCH  31  32
ATOM     32  C   UNL     1       4.707   3.979  20.452  0.00  0.00    +0.000 C 
BRANCH  32  33
ATOM     33  C   UNL     1       3.395   3.255  20.279  0.00  0.00    +0.000 A 
ATOM     34  C   UNL     1       2.389   3.390  21.249  0.00  0.00    +0.000 A 
ATOM     35  C   UNL     1       1.128   2.823  21.058  0.00  0.00    +0.000 A 
ATOM     36  C   UNL     1       0.857   2.109  19.895  0.00  0.00    +0.000 A 
ATOM     37  C   UNL     1       1.850   1.953  18.930  0.00  0.00    +0.000 A 
ATOM     38  C   UNL     1       3.112   2.526  19.119  0.00  0.00    +0.000 A 
ENDBRANCH  32  33
ENDBRANCH  31  32
ENDBRANCH   5  31
TORSDOF 10
ENDMDL
MODEL 4
REMARK VINA RESULT:      -7.5      1.810      5.872
REMARK  Name = 
REMARK  11 active torsions:
REMARK  status: ('A' for Active; 'I' for Inactive)
REMARK    1  A    between atoms: C_1  and  C_2
REMARK    2  A    between atoms: C_2  and  N_3
REMARK    3  A    between atoms: C_2  and  C_27
REMARK    4  A    between atoms: C_4  and  C_6
REMARK    5  A    between atoms: C_6  and  C_7
REMARK    6  A    between atoms: C_7  and  C_8
REMARK    7  A    between atoms: C_17  and  O_19
REMARK    8  A    between atoms: O_19  and  C_20
REMARK    9  A    between atoms: C_20  and  C_21
REMARK   10  A    between atoms: N_29  and  C_30
REMARK   11  A    between atoms: C_30  and  C_31
REMARK                            x       y       z     vdW  Elec       q    Type
REMARK                         _______ _______ _______ _____ _____    ______ ____
ROOT
ATOM      1  C   UNL     1       0.210  12.825  19.763  0.00  0.00    +0.000 C 
ATOM      2  C   UNL     1       0.560  12.596  18.252  0.00  0.00    +0.000 C 
ATOM      3  C   UNL     1      -0.906  12.839  17.899  0.00  0.00    +0.000 C 
ATOM      4  N   UNL     1      -1.192  12.727  19.313  0.00  0.00    +0.000 N 
ATOM      5  C   UNL     1      -2.372  12.415  19.915  0.00  0.00    +0.000 C 
ATOM      6  O   UNL     1      -3.406  12.220  19.288  0.00  0.00    +0.000 OA
ENDROOT
BRANCH   1   8
ATOM      7  N   UNL     1       0.614  10.373  20.165  0.00  0.00    +0.000 N 
ATOM      8  C   UNL     1       0.641  11.635  20.731  0.00  0.00    +0.000 C 
ATOM      9  O   UNL     1       1.024  11.784  21.896  0.00  0.00    +0.000 OA
ATOM     10  H   UNL     1       0.582  10.298  19.150  0.00  0.00    +0.000 HD
BRANCH   7  12
ATOM     11  C   UNL     1      -0.026   8.479  21.612  0.00  0.00    +0.000 C 
ATOM     12  C   UNL     1       1.099   9.194  20.869  0.00  0.00    +0.000 C 
BRANCH  12  13
ATOM     13  C   UNL     1       1.755   8.246  19.838  0.00  0.00    +0.000 C 
ATOM     14  O   UNL     1       1.835   8.523  18.642  0.00  0.00    +0.000 OA
ATOM     15  N   UNL     1       2.252   7.083  20.380  0.00  0.00    +0.000 N 
ATOM     16  H   UNL     1       2.052   6.850  21.343  0.00  0.00    +0.000 HD
BRANCH  15  17
ATOM     17  C   UNL     1       2.980   6.107  19.604  0.00  0.00    +0.000 C 
BRANCH  17  18
ATOM     18  C   UNL     1       2.226   4.802  19.564  0.00  0.00    +0.000 A 
ATOM     19  C   UNL     1       1.896   4.191  18.349  0.00  0.00    +0.000 A 
ATOM     20  C   UNL     1       1.194   2.981  18.334  0.00  0.00    +0.000 A 
ATOM     21  C   UNL     1       0.827   2.366  19.531  0.00  0.00    +0.000 A 
ATOM     22  C   UNL     1       1.155   2.961  20.745  0.00  0.00    +0.000 A 
ATOM     23  C   UNL     1       1.845   4.172  20.760  0.00  0.00    +0.000 A 
ENDBRANCH  17  18
ENDBRANCH  15  17
ENDBRANCH  12  13
ENDBRANCH   7  12
ENDBRANCH   1   8
BRANCH   1  24
ATOM     24  C   UNL     1       0.516  14.251  20.273  0.00  0.00    +0.000 C 
BRANCH  24  25
ATOM     25  C   UNL     1       1.726  14.870  19.596  0.00  0.00    +0.000 A 
ATOM     26  C   UNL     1       1.580  15.911  18.666  0.00  0.00    +0.000 A 
ATOM     27  C   UNL     1       2.699  16.488  18.058  0.00  0.00    +0.000 A 
ATOM     28  C   UNL     1       3.978  16.029  18.364  0.00  0.00    +0.000 A 
ATOM     29  C   UNL     1       4.140  15.001  19.289  0.00  0.00    +0.000 A 
ATOM     30  C   UNL     1       3.022  14.435  19.906  0.00  0.00    +0.000 A 
ENDBRANCH  24  25
ENDBRANCH   1  24
BRANCH   5  31
ATOM     31  O   UNL     1      -2.282  12.423  21.269  0.00  0.00    +0.000 OA
BRANCH  31  32
ATOM     32  C   UNL     1      -2.948  13.516  21.916  0.00  0.00    +0.000 C 
BRANCH  32  33
ATOM     33  C   UNL     1      -4.180  13.098  22.680  0.00  0.00    +0.000 A 
ATOM     34  C   UNL     1      -4.060  12.625  23.996  0.00  0.00    +0.000 A 
ATOM     35  C   UNL     1      -5.192  12.340  24.761  0.00  0.00    +0.000 A 
ATOM     36  C   UNL     1      -6.461  12.521  24.218  0.00  0.00    +0.000 A 
ATOM     37  C   UNL     1      -6.596  12.975  22.909  0.00  0.00    +0.000 A 
ATOM     38  C   UNL     1      -5.461  13.266  22.143  0.00  0.00    +0.000 A 
ENDBRANCH  32  33
ENDBRANCH  31  32
ENDBRANCH   5  31
TORSDOF 10
ENDMDL
MODEL 5
REMARK VINA RESULT:      -7.5      1.870      5.842
REMARK  Name = 
REMARK  11 active torsions:
REMARK  status: ('A' for Active; 'I' for Inactive)
REMARK    1  A    between atoms: C_1  and  C_2
REMARK    2  A    between atoms: C_2  and  N_3
REMARK    3  A    between atoms: C_2  and  C_27
REMARK    4  A    between atoms: C_4  and  C_6
REMARK    5  A    between atoms: C_6  and  C_7
REMARK    6  A    between atoms: C_7  and  C_8
REMARK    7  A    between atoms: C_17  and  O_19
REMARK    8  A    between atoms: O_19  and  C_20
REMARK    9  A    between atoms: C_20  and  C_21
REMARK   10  A    between atoms: N_29  and  C_30
REMARK   11  A    between atoms: C_30  and  C_31
REMARK                            x       y       z     vdW  Elec       q    Type
REMARK                         _______ _______ _______ _____ _____    ______ ____
ROOT
ATOM      1  C   UNL     1      -0.094  12.832  20.118  0.00  0.00    +0.000 C 
ATOM      2  C   UNL     1       0.546  12.744  18.691  0.00  0.00    +0.000 C 
ATOM      3  C   UNL     1      -0.834  12.982  18.081  0.00  0.00    +0.000 C 
ATOM      4  N   UNL     1      -1.379  12.740  19.398  0.00  0.00    +0.000 N 
ATOM      5  C   UNL     1      -2.639  12.349  19.733  0.00  0.00    +0.000 C 
ATOM      6  O   UNL     1      -3.526  12.186  18.904  0.00  0.00    +0.000 OA
ENDROOT
BRANCH   1   8
ATOM      7  N   UNL     1       0.442  10.387  20.385  0.00  0.00    +0.000 N 
ATOM      8  C   UNL     1       0.191  11.573  21.052  0.00  0.00    +0.000 C 
ATOM      9  O   UNL     1       0.241  11.613  22.286  0.00  0.00    +0.000 OA
ATOM     10  H   UNL     1       0.682  10.429  19.396  0.00  0.00    +0.000 HD
BRANCH   7  12
ATOM     11  C   UNL     1      -0.355   8.423  21.649  0.00  0.00    +0.000 C 
ATOM     12  C   UNL     1       0.846   9.174  21.081  0.00  0.00    +0.000 C 
BRANCH  12  13
ATOM     13  C   UNL     1       1.626   8.279  20.090  0.00  0.00    +0.000 C 
ATOM     14  O   UNL     1       1.793   8.589  18.910  0.00  0.00    +0.000 OA
ATOM     15  N   UNL     1       2.125   7.125  20.646  0.00  0.00    +0.000 N 
ATOM     16  H   UNL     1       1.856   6.859  21.584  0.00  0.00    +0.000 HD
BRANCH  15  17
ATOM     17  C   UNL     1       2.956   6.199  19.914  0.00  0.00    +0.000 C 
BRANCH  17  18
ATOM     18  C   UNL     1       2.209   4.913  19.661  0.00  0.00    +0.000 A 
ATOM     19  C   UNL     1       1.687   4.157  20.716  0.00  0.00    +0.000 A 
ATOM     20  C   UNL     1       0.999   2.967  20.458  0.00  0.00    +0.000 A 
ATOM     21  C   UNL     1       0.816   2.529  19.147  0.00  0.00    +0.000 A 
ATOM     22  C   UNL     1       1.326   3.276  18.089  0.00  0.00    +0.000 A 
ATOM     23  C   UNL     1       2.021   4.457  18.346  0.00  0.00    +0.000 A 
ENDBRANCH  17  18
ENDBRANCH  15  17
ENDBRANCH  12  13
ENDBRANCH   7  12
ENDBRANCH   1   8
BRANCH   1  24
ATOM     24  C   UNL     1       0.052  14.215  20.791  0.00  0.00    +0.000 C 
BRANCH  24  25
ATOM     25  C   UNL     1       1.425  14.828  20.585  0.00  0.00    +0.000 A 
ATOM     26  C   UNL     1       2.550  14.320  21.253  0.00  0.00    +0.000 A 
ATOM     27  C   UNL     1       3.815  14.880  21.048  0.00  0.00    +0.000 A 
ATOM     28  C   UNL     1       3.973  15.956  20.178  0.00  0.00    +0.000 A 
ATOM     29  C   UNL     1       2.869  16.467  19.504  0.00  0.00    +0.000 A 
ATOM     30  C   UNL     1       1.607  15.900  19.699  0.00  0.00    +0.000 A 
ENDBRANCH  24  25
ENDBRANCH   1  24
BRANCH   5  31
ATOM     31  O   UNL     1      -2.811  12.242  21.075  0.00  0.00    +0.000 OA
BRANCH  31  32
ATOM     32  C   UNL     1      -3.521  13.328  21.687  0.00  0.00    +0.000 C 
BRANCH  32  33
ATOM     33  C   UNL     1      -4.863  12.925  22.246  0.00  0.00    +0.000 A 
ATOM     34  C   UNL     1      -5.085  12.969  23.632  0.00  0.00    +0.000 A 
ATOM     35  C   UNL     1      -6.349  12.711  24.164  0.00  0.00    +0.000 A 
ATOM     36  C   UNL     1      -7.408  12.399  23.317  0.00  0.00    +0.000 A 
ATOM     37  C   UNL     1      -7.200  12.336  21.942  0.00  0.00    +0.000 A 
ATOM     38  C   UNL     1      -5.934  12.600  21.407  0.00  0.00    +0.000 A 
ENDBRANCH  32  33
ENDBRANCH  31  32
ENDBRANCH   5  31
TORSDOF 10
ENDMDL
MODEL 6
REMARK VINA RESULT:      -7.4      0.838      1.425
REMARK  Name = 
REMARK  11 active torsions:
REMARK  status: ('A' for Active; 'I' for Inactive)
REMARK    1  A    between atoms: C_1  and  C_2
REMARK    2  A    between atoms: C_2  and  N_3
REMARK    3  A    between atoms: C_2  and  C_27
REMARK    4  A    between atoms: C_4  and  C_6
REMARK    5  A    between atoms: C_6  and  C_7
REMARK    6  A    between atoms: C_7  and  C_8
REMARK    7  A    between atoms: C_17  and  O_19
REMARK    8  A    between atoms: O_19  and  C_20
REMARK    9  A    between atoms: C_20  and  C_21
REMARK   10  A    between atoms: N_29  and  C_30
REMARK   11  A    between atoms: C_30  and  C_31
REMARK                            x       y       z     vdW  Elec       q    Type
REMARK                         _______ _______ _______ _____ _____    ______ ____
ROOT
ATOM      1  C   UNL     1      -1.589  12.585  20.914  0.00  0.00    +0.000 C 
ATOM      2  C   UNL     1      -1.878  11.897  22.293  0.00  0.00    +0.000 C 
ATOM      3  C   UNL     1      -0.939  12.897  22.963  0.00  0.00    +0.000 C 
ATOM      4  N   UNL     1      -0.496  13.263  21.637  0.00  0.00    +0.000 N 
ATOM      5  C   UNL     1       0.675  13.852  21.268  0.00  0.00    +0.000 C 
ATOM      6  O   UNL     1       1.527  14.199  22.078  0.00  0.00    +0.000 OA
ENDROOT
BRANCH   1   8
ATOM      7  N   UNL     1       0.125  10.956  20.051  0.00  0.00    +0.000 N 
ATOM      8  C   UNL     1      -1.070  11.597  19.776  0.00  0.00    +0.000 C 
ATOM      9  O   UNL     1      -1.678  11.355  18.729  0.00  0.00    +0.000 OA
ATOM     10  H   UNL     1       0.456  10.940  21.014  0.00  0.00    +0.000 HD
BRANCH   7  12
ATOM     11  C   UNL     1       1.758  10.486  18.261  0.00  0.00    +0.000 C 
ATOM     12  C   UNL     1       0.673   9.928  19.178  0.00  0.00    +0.000 C 
BRANCH  12  13
ATOM     13  C   UNL     1       1.242   8.791  20.060  0.00  0.00    +0.000 C 
ATOM     14  O   UNL     1       1.077   8.756  21.279  0.00  0.00    +0.000 OA
ATOM     15  N   UNL     1       1.925   7.825  19.360  0.00  0.00    +0.000 N 
ATOM     16  H   UNL     1       2.136   7.964  18.381  0.00  0.00    +0.000 HD
BRANCH  15  17
ATOM     17  C   UNL     1       2.456   6.635  19.984  0.00  0.00    +0.000 C 
BRANCH  17  18
ATOM     18  C   UNL     1       2.849   5.626  18.934  0.00  0.00    +0.000 A 
ATOM     19  C   UNL     1       1.934   4.680  18.458  0.00  0.00    +0.000 A 
ATOM     20  C   UNL     1       2.320   3.752  17.485  0.00  0.00    +0.000 A 
ATOM     21  C   UNL     1       3.617   3.768  16.972  0.00  0.00    +0.000 A 
ATOM     22  C   UNL     1       4.534   4.708  17.434  0.00  0.00    +0.000 A 
ATOM     23  C   UNL     1       4.152   5.626  18.411  0.00  0.00    +0.000 A 
ENDBRANCH  17  18
ENDBRANCH  15  17
ENDBRANCH  12  13
ENDBRANCH   7  12
ENDBRANCH   1   8
BRANCH   1  24
ATOM     24  C   UNL     1      -2.665  13.605  20.480  0.00  0.00    +0.000 C 
BRANCH  24  25
ATOM     25  C   UNL     1      -4.079  13.099  20.703  0.00  0.00    +0.000 A 
ATOM     26  C   UNL     1      -4.737  12.339  19.724  0.00  0.00    +0.000 A 
ATOM     27  C   UNL     1      -6.034  11.863  19.941  0.00  0.00    +0.000 A 
ATOM     28  C   UNL     1      -6.694  12.145  21.135  0.00  0.00    +0.000 A 
ATOM     29  C   UNL     1      -6.053  12.893  22.118  0.00  0.00    +0.000 A 
ATOM     30  C   UNL     1      -4.752  13.357  21.906  0.00  0.00    +0.000 A 
ENDBRANCH  24  25
ENDBRANCH   1  24
BRANCH   5  31
ATOM     31  O   UNL     1       0.747  14.074  19.932  0.00  0.00    +0.000 OA
BRANCH  31  32
ATOM     32  C   UNL     1       1.706  15.062  19.530  0.00  0.00    +0.000 C 
BRANCH  32  33
ATOM     33  C   UNL     1       1.097  16.212  18.767  0.00  0.00    +0.000 A 
ATOM     34  C   UNL     1       1.906  17.012  17.944  0.00  0.00    +0.000 A 
ATOM     35  C   UNL     1       1.347  18.009  17.142  0.00  0.00    +0.000 A 
ATOM     36  C   UNL     1      -0.027  18.222  17.155  0.00  0.00    +0.000 A 
ATOM     37  C   UNL     1      -0.841  17.446  17.978  0.00  0.00    +0.000 A 
ATOM     38  C   UNL     1      -0.283  16.443  18.778  0.00  0.00    +0.000 A 
ENDBRANCH  32  33
ENDBRANCH  31  32
ENDBRANCH   5  31
TORSDOF 10
ENDMDL
MODEL 7
REMARK VINA RESULT:      -7.4      3.145      7.537
REMARK  Name = 
REMARK  11 active torsions:
REMARK  status: ('A' for Active; 'I' for Inactive)
REMARK    1  A    between atoms: C_1  and  C_2
REMARK    2  A    between atoms: C_2  and  N_3
REMARK    3  A    between atoms: C_2  and  C_27
REMARK    4  A    between atoms: C_4  and  C_6
REMARK    5  A    between atoms: C_6  and  C_7
REMARK    6  A    between atoms: C_7  and  C_8
REMARK    7  A    between atoms: C_17  and  O_19
REMARK    8  A    between atoms: O_19  and  C_20
REMARK    9  A    between atoms: C_20  and  C_21
REMARK   10  A    between atoms: N_29  and  C_30
REMARK   11  A    between atoms: C_30  and  C_31
REMARK                            x       y       z     vdW  Elec       q    Type
REMARK                         _______ _______ _______ _____ _____    ______ ____
ROOT
ATOM      1  C   UNL     1       0.102  11.902  19.783  0.00  0.00    +0.000 C 
ATOM      2  C   UNL     1       1.592  12.338  19.561  0.00  0.00    +0.000 C 
ATOM      3  C   UNL     1       1.500  13.208  20.813  0.00  0.00    +0.000 C 
ATOM      4  N   UNL     1       0.069  13.003  20.764  0.00  0.00    +0.000 N 
ATOM      5  C   UNL     1      -0.913  13.770  21.312  0.00  0.00    +0.000 C 
ATOM      6  O   UNL     1      -0.681  14.765  21.988  0.00  0.00    +0.000 OA
ENDROOT
BRANCH   1   8
ATOM      7  N   UNL     1      -1.842  11.198  18.347  0.00  0.00    +0.000 N 
ATOM      8  C   UNL     1      -0.855  12.149  18.532  0.00  0.00    +0.000 C 
ATOM      9  O   UNL     1      -0.787  13.129  17.783  0.00  0.00    +0.000 OA
ATOM     10  H   UNL     1      -2.065  10.574  19.120  0.00  0.00    +0.000 HD
BRANCH   7  12
ATOM     11  C   UNL     1      -3.047  10.061  16.518  0.00  0.00    +0.000 C 
ATOM     12  C   UNL     1      -2.877  11.341  17.333  0.00  0.00    +0.000 C 
BRANCH  12  13
ATOM     13  C   UNL     1      -4.202  11.715  18.037  0.00  0.00    +0.000 C 
ATOM     14  O   UNL     1      -4.240  12.138  19.192  0.00  0.00    +0.000 OA
ATOM     15  N   UNL     1      -5.321  11.551  17.254  0.00  0.00    +0.000 N 
ATOM     16  H   UNL     1      -5.247  11.087  16.359  0.00  0.00    +0.000 HD
BRANCH  15  17
ATOM     17  C   UNL     1      -6.644  11.928  17.692  0.00  0.00    +0.000 C 
BRANCH  17  18
ATOM     18  C   UNL     1      -7.038  11.132  18.911  0.00  0.00    +0.000 A 
ATOM     19  C   UNL     1      -7.507  11.763  20.069  0.00  0.00    +0.000 A 
ATOM     20  C   UNL     1      -7.866  11.006  21.189  0.00  0.00    +0.000 A 
ATOM     21  C   UNL     1      -7.772   9.615  21.158  0.00  0.00    +0.000 A 
ATOM     22  C   UNL     1      -7.314   8.976  20.010  0.00  0.00    +0.000 A 
ATOM     23  C   UNL     1      -6.946   9.731  18.897  0.00  0.00    +0.000 A 
ENDBRANCH  17  18
ENDBRANCH  15  17
ENDBRANCH  12  13
ENDBRANCH   7  12
ENDBRANCH   1   8
BRANCH   1  24
ATOM     24  C   UNL     1      -0.057  10.539  20.493  0.00  0.00    +0.000 C 
BRANCH  24  25
ATOM     25  C   UNL     1       0.798   9.449  19.872  0.00  0.00    +0.000 A 
ATOM     26  C   UNL     1       1.127   9.478  18.508  0.00  0.00    +0.000 A 
ATOM     27  C   UNL     1       1.927   8.479  17.945  0.00  0.00    +0.000 A 
ATOM     28  C   UNL     1       2.403   7.434  18.734  0.00  0.00    +0.000 A 
ATOM     29  C   UNL     1       2.089   7.393  20.089  0.00  0.00    +0.000 A 
ATOM     30  C   UNL     1       1.301   8.399  20.653  0.00  0.00    +0.000 A 
ENDBRANCH  24  25
ENDBRANCH   1  24
BRANCH   5  31
ATOM     31  O   UNL     1      -2.152  13.263  21.088  0.00  0.00    +0.000 OA
BRANCH  31  32
ATOM     32  C   UNL     1      -3.214  14.228  21.089  0.00  0.00    +0.000 C 
BRANCH  32  33
ATOM     33  C   UNL     1      -4.349  13.869  22.015  0.00  0.00    +0.000 A 
ATOM     34  C   UNL     1      -4.131  12.971  23.072  0.00  0.00    +0.000 A 
ATOM     35  C   UNL     1      -5.133  12.710  24.009  0.00  0.00    +0.000 A 
ATOM     36  C   UNL     1      -6.368  13.341  23.898  0.00  0.00    +0.000 A 
ATOM     37  C   UNL     1      -6.604  14.223  22.846  0.00  0.00    +0.000 A 
ATOM     38  C   UNL     1      -5.598  14.489  21.910  0.00  0.00    +0.000 A 
ENDBRANCH  32  33
ENDBRANCH  31  32
ENDBRANCH   5  31
TORSDOF 10
ENDMDL
MODEL 8
REMARK VINA RESULT:      -7.4      4.418     11.330
REMARK  Name = 
REMARK  11 active torsions:
REMARK  status: ('A' for Active; 'I' for Inactive)
REMARK    1  A    between atoms: C_1  and  C_2
REMARK    2  A    between atoms: C_2  and  N_3
REMARK    3  A    between atoms: C_2  and  C_27
REMARK    4  A    between atoms: C_4  and  C_6
REMARK    5  A    between atoms: C_6  and  C_7
REMARK    6  A    between atoms: C_7  and  C_8
REMARK    7  A    between atoms: C_17  and  O_19
REMARK    8  A    between atoms: O_19  and  C_20
REMARK    9  A    between atoms: C_20  and  C_21
REMARK   10  A    between atoms: N_29  and  C_30
REMARK   11  A    between atoms: C_30  and  C_31
REMARK                            x       y       z     vdW  Elec       q    Type
REMARK                         _______ _______ _______ _____ _____    ______ ____
ROOT
ATOM      1  C   UNL     1       6.315   5.386  16.742  0.00  0.00    +0.000 C 
ATOM      2  C   UNL     1       7.030   6.754  16.468  0.00  0.00    +0.000 C 
ATOM      3  C   UNL     1       7.819   6.576  17.764  0.00  0.00    +0.000 C 
ATOM      4  N   UNL     1       6.905   5.503  18.090  0.00  0.00    +0.000 N 
ATOM      5  C   UNL     1       6.606   4.991  19.315  0.00  0.00    +0.000 C 
ATOM      6  O   UNL     1       7.143   5.377  20.346  0.00  0.00    +0.000 OA
ENDROOT
BRANCH   1   8
ATOM      7  N   UNL     1       4.182   6.517  17.455  0.00  0.00    +0.000 N 
ATOM      8  C   UNL     1       4.723   5.458  16.748  0.00  0.00    +0.000 C 
ATOM      9  O   UNL     1       3.985   4.676  16.140  0.00  0.00    +0.000 OA
ATOM     10  H   UNL     1       4.789   7.298  17.697  0.00  0.00    +0.000 HD
BRANCH   7  12
ATOM     11  C   UNL     1       2.010   5.956  18.484  0.00  0.00    +0.000 C 
ATOM     12  C   UNL     1       2.755   6.803  17.455  0.00  0.00    +0.000 C 
BRANCH  12  13
ATOM     13  C   UNL     1       2.558   8.309  17.749  0.00  0.00    +0.000 C 
ATOM     14  O   UNL     1       3.379   9.161  17.408  0.00  0.00    +0.000 OA
ATOM     15  N   UNL     1       1.386   8.606  18.404  0.00  0.00    +0.000 N 
ATOM     16  H   UNL     1       0.809   7.861  18.768  0.00  0.00    +0.000 HD
BRANCH  15  17
ATOM     17  C   UNL     1       0.972   9.959  18.691  0.00  0.00    +0.000 C 
BRANCH  17  18
ATOM     18  C   UNL     1       0.481  10.065  20.114  0.00  0.00    +0.000 A 
ATOM     19  C   UNL     1      -0.135  11.230  20.584  0.00  0.00    +0.000 A 
ATOM     20  C   UNL     1      -0.581  11.307  21.908  0.00  0.00    +0.000 A 
ATOM     21  C   UNL     1      -0.427  10.220  22.767  0.00  0.00    +0.000 A 
ATOM     22  C   UNL     1       0.178   9.053  22.308  0.00  0.00    +0.000 A 
ATOM     23  C   UNL     1       0.633   8.980  20.992  0.00  0.00    +0.000 A 
ENDBRANCH  17  18
ENDBRANCH  15  17
ENDBRANCH  12  13
ENDBRANCH   7  12
ENDBRANCH   1   8
BRANCH   1  24
ATOM     24  C   UNL     1       6.932   4.189  15.984  0.00  0.00    +0.000 C 
BRANCH  24  25
ATOM     25  C   UNL     1       6.938   4.386  14.479  0.00  0.00    +0.000 A 
ATOM     26  C   UNL     1       7.831   5.281  13.871  0.00  0.00    +0.000 A 
ATOM     27  C   UNL     1       7.842   5.447  12.483  0.00  0.00    +0.000 A 
ATOM     28  C   UNL     1       6.957   4.727  11.684  0.00  0.00    +0.000 A 
ATOM     29  C   UNL     1       6.068   3.832  12.271  0.00  0.00    +0.000 A 
ATOM     30  C   UNL     1       6.067   3.657  13.657  0.00  0.00    +0.000 A 
ENDBRANCH  24  25
ENDBRANCH   1  24
BRANCH   5  31
ATOM     31  O   UNL     1       5.717   3.967  19.247  0.00  0.00    +0.000 OA
BRANCH  31  32
ATOM     32  C   UNL     1       4.745   3.934  20.301  0.00  0.00    +0.000 C 
BRANCH  32  33
ATOM     33  C   UNL     1       3.450   3.273  19.899  0.00  0.00    +0.000 A 
ATOM     34  C   UNL     1       2.325   3.374  20.734  0.00  0.00    +0.000 A 
ATOM     35  C   UNL     1       1.087   2.869  20.332  0.00  0.00    +0.000 A 
ATOM     36  C   UNL     1       0.958   2.252  19.092  0.00  0.00    +0.000 A 
ATOM     37  C   UNL     1       2.068   2.131  18.260  0.00  0.00    +0.000 A 
ATOM     38  C   UNL     1       3.308   2.641  18.659  0.00  0.00    +0.000 A 
ENDBRANCH  32  33
ENDBRANCH  31  32
ENDBRANCH   5  31
TORSDOF 10
ENDMDL
MODEL 9
REMARK VINA RESULT:      -7.4      1.875      5.650
REMARK  Name = 
REMARK  11 active torsions:
REMARK  status: ('A' for Active; 'I' for Inactive)
REMARK    1  A    between atoms: C_1  and  C_2
REMARK    2  A    between atoms: C_2  and  N_3
REMARK    3  A    between atoms: C_2  and  C_27
REMARK    4  A    between atoms: C_4  and  C_6
REMARK    5  A    between atoms: C_6  and  C_7
REMARK    6  A    between atoms: C_7  and  C_8
REMARK    7  A    between atoms: C_17  and  O_19
REMARK    8  A    between atoms: O_19  and  C_20
REMARK    9  A    between atoms: C_20  and  C_21
REMARK   10  A    between atoms: N_29  and  C_30
REMARK   11  A    between atoms: C_30  and  C_31
REMARK                            x       y       z     vdW  Elec       q    Type
REMARK                         _______ _______ _______ _____ _____    ______ ____
ROOT
ATOM      1  C   UNL     1      -0.011  13.017  20.063  0.00  0.00    +0.000 C 
ATOM      2  C   UNL     1       1.011  13.171  18.884  0.00  0.00    +0.000 C 
ATOM      3  C   UNL     1      -0.162  13.252  17.908  0.00  0.00    +0.000 C 
ATOM      4  N   UNL     1      -1.004  12.800  18.993  0.00  0.00    +0.000 N 
ATOM      5  C   UNL     1      -2.218  12.188  18.923  0.00  0.00    +0.000 C 
ATOM      6  O   UNL     1      -2.793  11.973  17.863  0.00  0.00    +0.000 OA
ENDROOT
BRANCH   1   8
ATOM      7  N   UNL     1       0.516  10.566  20.290  0.00  0.00    +0.000 N 
ATOM      8  C   UNL     1       0.218  11.731  20.975  0.00  0.00    +0.000 C 
ATOM      9  O   UNL     1       0.187  11.734  22.210  0.00  0.00    +0.000 OA
ATOM     10  H   UNL     1       0.820  10.638  19.321  0.00  0.00    +0.000 HD
BRANCH   7  12
ATOM     11  C   UNL     1      -0.345   8.631  21.556  0.00  0.00    +0.000 C 
ATOM     12  C   UNL     1       0.879   9.333  20.975  0.00  0.00    +0.000 C 
BRANCH  12  13
ATOM     13  C   UNL     1       1.605   8.411  19.967  0.00  0.00    +0.000 C 
ATOM     14  O   UNL     1       1.714   8.692  18.774  0.00  0.00    +0.000 OA
ATOM     15  N   UNL     1       2.128   7.269  20.526  0.00  0.00    +0.000 N 
ATOM     16  H   UNL     1       1.905   7.027  21.483  0.00  0.00    +0.000 HD
BRANCH  15  17
ATOM     17  C   UNL     1       2.919   6.322  19.777  0.00  0.00    +0.000 C 
BRANCH  17  18
ATOM     18  C   UNL     1       2.162   5.029  19.603  0.00  0.00    +0.000 A 
ATOM     19  C   UNL     1       1.972   4.463  18.338  0.00  0.00    +0.000 A 
ATOM     20  C   UNL     1       1.266   3.264  18.199  0.00  0.00    +0.000 A 
ATOM     21  C   UNL     1       0.754   2.614  19.323  0.00  0.00    +0.000 A 
ATOM     22  C   UNL     1       0.943   3.164  20.587  0.00  0.00    +0.000 A 
ATOM     23  C   UNL     1       1.638   4.365  20.724  0.00  0.00    +0.000 A 
ENDBRANCH  17  18
ENDBRANCH  15  17
ENDBRANCH  12  13
ENDBRANCH   7  12
ENDBRANCH   1   8
BRANCH   1  24
ATOM     24  C   UNL     1      -0.306  14.333  20.817  0.00  0.00    +0.000 C 
BRANCH  24  25
ATOM     25  C   UNL     1       0.918  15.220  20.952  0.00  0.00    +0.000 A 
ATOM     26  C   UNL     1       1.944  14.903  21.856  0.00  0.00    +0.000 A 
ATOM     27  C   UNL     1       3.076  15.717  21.966  0.00  0.00    +0.000 A 
ATOM     28  C   UNL     1       3.196  16.861  21.180  0.00  0.00    +0.000 A 
ATOM     29  C   UNL     1       2.190  17.186  20.275  0.00  0.00    +0.000 A 
ATOM     30  C   UNL     1       1.066  16.366  20.157  0.00  0.00    +0.000 A 
ENDBRANCH  24  25
ENDBRANCH   1  24
BRANCH   5  31
ATOM     31  O   UNL     1      -2.738  11.924  20.149  0.00  0.00    +0.000 OA
BRANCH  31  32
ATOM     32  C   UNL     1      -3.972  12.593  20.444  0.00  0.00    +0.000 C 
BRANCH  32  33
ATOM     33  C   UNL     1      -4.270  12.675  21.920  0.00  0.00    +0.000 A 
ATOM     34  C   UNL     1      -5.580  12.927  22.356  0.00  0.00    +0.000 A 
ATOM     35  C   UNL     1      -5.902  12.895  23.714  0.00  0.00    +0.000 A 
ATOM     36  C   UNL     1      -4.917  12.614  24.655  0.00  0.00    +0.000 A 
ATOM     37  C   UNL     1      -3.609  12.377  24.239  0.00  0.00    +0.000 A 
ATOM     38  C   UNL     1      -3.287  12.403  22.878  0.00  0.00    +0.000 A 
ENDBRANCH  32  33
ENDBRANCH  31  32
ENDBRANCH   5  31
TORSDOF 10
ENDMDL
