MODEL 1
REMARK VINA RESULT:      -7.0      0.000      0.000
REMARK  Name = 
REMARK  5 active torsions:
REMARK  status: ('A' for Active; 'I' for Inactive)
REMARK    1  A    between atoms: C_1  and  N_2
REMARK    2  A    between atoms: C_4  and  C_5
REMARK    3  A    between atoms: C_5  and  O_6
REMARK    4  A    between atoms: C_5  and  C_7
REMARK    5  A    between atoms: C_12  and  C_13
REMARK                            x       y       z     vdW  Elec       q    Type
REMARK                         _______ _______ _______ _____ _____    ______ ____
ROOT
ATOM      1  C   UNL     1       2.292  13.800  20.848  0.00  0.00    +0.000 C 
ATOM      2  O   UNL     1       2.166  14.317  21.963  0.00  0.00    +0.000 OA
ATOM      3  N   UNL     1       1.481  12.712  20.475  0.00  0.00    +0.000 N 
ATOM      4  C   UNL     1       0.350  12.426  21.363  0.00  0.00    +0.000 C 
ATOM      5  C   UNL     1      -0.187  11.003  21.246  0.00  0.00    +0.000 C 
ATOM      6  C   UNL     1      -0.418  10.550  19.799  0.00  0.00    +0.000 C 
ATOM      7  C   UNL     1       0.862  10.798  18.994  0.00  0.00    +0.000 C 
ATOM      8  C   UNL     1       1.376  12.234  19.092  0.00  0.00    +0.000 C 
ENDROOT
BRANCH   6   9
ATOM      9  C   UNL     1      -1.664  11.137  19.163  0.00  0.00    +0.000 A 
ATOM     10  C   UNL     1      -2.480  12.124  19.685  0.00  0.00    +0.000 A 
ATOM     11  N   UNL     1      -3.510  12.362  18.825  0.00  0.00    +0.000 N 
ATOM     12  C   UNL     1      -3.398  11.558  17.722  0.00  0.00    +0.000 A 
ATOM     13  C   UNL     1      -4.234  11.471  16.604  0.00  0.00    +0.000 A 
ATOM     14  C   UNL     1      -3.888  10.562  15.606  0.00  0.00    +0.000 A 
ATOM     15  C   UNL     1      -2.747   9.774  15.728  0.00  0.00    +0.000 A 
ATOM     16  C   UNL     1      -1.922   9.871  16.860  0.00  0.00    +0.000 A 
ATOM     17  C   UNL     1      -2.249  10.781  17.891  0.00  0.00    +0.000 A 
ATOM     18  H   UNL     1      -4.252  13.032  18.973  0.00  0.00    +0.000 HD
ENDBRANCH   6   9
BRANCH   1  19
ATOM     19  C   UNL     1       3.334  14.349  19.810  0.00  0.00    +0.000 C 
BRANCH  19  23
ATOM     20  C   UNL     1       0.354  17.842  17.729  0.00  0.00    +0.000 C 
ATOM     21  N   UNL     1       1.490  17.056  18.143  0.00  0.00    +0.000 N 
ATOM     22  C   UNL     1       1.492  16.015  19.024  0.00  0.00    +0.000 A 
ATOM     23  C   UNL     1       2.785  15.521  19.046  0.00  0.00    +0.000 A 
ATOM     24  C   UNL     1       3.482  16.375  18.160  0.00  0.00    +0.000 A 
ATOM     25  N   UNL     1       2.702  17.317  17.624  0.00  0.00    +0.000 NA
ENDBRANCH  19  23
BRANCH  19  26
ATOM     26  O   UNL     1       4.593  14.692  20.379  0.00  0.00    +0.000 OA
ATOM     27  H   UNL     1       4.466  14.679  21.343  0.00  0.00    +0.000 HD
ENDBRANCH  19  26
ENDBRANCH   1  19
TORSDOF 4
ENDMDL
MODEL 2
REMARK VINA RESULT:      -6.8      8.633     10.024
REMARK  Name = 
REMARK  5 active torsions:
REMARK  status: ('A' for Active; 'I' for Inactive)
REMARK    1  A    between atoms: C_1  and  N_2
REMARK    2  A    between atoms: C_4  and  C_5
REMARK    3  A    between atoms: C_5  and  O_6
REMARK    4  A    between atoms: C_5  and  C_7
REMARK    5  A    between atoms: C_12  and  C_13
REMARK                            x       y       z     vdW  Elec       q    Type
REMARK                         _______ _______ _______ _____ _____    ______ ____
ROOT
ATOM      1  C   UNL     1       7.578   4.901  17.770  0.00  0.00    +0.000 C 
ATOM      2  O   UNL     1       8.327   4.189  17.092  0.00  0.00    +0.000 OA
ATOM      3  N   UNL     1       6.190   4.891  17.541  0.00  0.00    +0.000 N 
ATOM      4  C   UNL     1       5.696   3.826  16.663  0.00  0.00    +0.000 C 
ATOM      5  C   UNL     1       4.338   4.119  16.034  0.00  0.00    +0.000 C 
ATOM      6  C   UNL     1       3.290   4.616  17.038  0.00  0.00    +0.000 C 
ATOM      7  C   UNL     1       3.878   5.795  17.822  0.00  0.00    +0.000 C 
ATOM      8  C   UNL     1       5.225   5.482  18.474  0.00  0.00    +0.000 C 
ENDROOT
BRANCH   6   9
ATOM      9  C   UNL     1       2.715   3.522  17.917  0.00  0.00    +0.000 A 
ATOM     10  C   UNL     1       2.367   2.240  17.533  0.00  0.00    +0.000 A 
ATOM     11  N   UNL     1       1.865   1.565  18.605  0.00  0.00    +0.000 N 
ATOM     12  C   UNL     1       1.878   2.369  19.715  0.00  0.00    +0.000 A 
ATOM     13  C   UNL     1       1.453   2.083  21.016  0.00  0.00    +0.000 A 
ATOM     14  C   UNL     1       1.579   3.088  21.973  0.00  0.00    +0.000 A 
ATOM     15  C   UNL     1       2.113   4.327  21.635  0.00  0.00    +0.000 A 
ATOM     16  C   UNL     1       2.532   4.598  20.322  0.00  0.00    +0.000 A 
ATOM     17  C   UNL     1       2.411   3.601  19.328  0.00  0.00    +0.000 A 
ATOM     18  H   UNL     1       1.531   0.613  18.591  0.00  0.00    +0.000 HD
ENDBRANCH   6   9
BRANCH   1  19
ATOM     19  C   UNL     1       8.142   5.814  18.916  0.00  0.00    +0.000 C 
BRANCH  19  23
ATOM     20  C   UNL     1       8.946  10.783  18.644  0.00  0.00    +0.000 C 
ATOM     21  N   UNL     1       8.542   9.426  18.370  0.00  0.00    +0.000 N 
ATOM     22  C   UNL     1       8.859   8.313  19.090  0.00  0.00    +0.000 A 
ATOM     23  C   UNL     1       8.185   7.257  18.500  0.00  0.00    +0.000 A 
ATOM     24  C   UNL     1       7.522   7.858  17.404  0.00  0.00    +0.000 A 
ATOM     25  N   UNL     1       7.750   9.170  17.314  0.00  0.00    +0.000 NA
ENDBRANCH  19  23
BRANCH  19  26
ATOM     26  O   UNL     1       7.446   5.690  20.152  0.00  0.00    +0.000 OA
ATOM     27  H   UNL     1       8.076   5.952  20.845  0.00  0.00    +0.000 HD
ENDBRANCH  19  26
ENDBRANCH   1  19
TORSDOF 4
ENDMDL
MODEL 3
REMARK VINA RESULT:      -6.6      6.897      8.968
REMARK  Name = 
REMARK  5 active torsions:
REMARK  status: ('A' for Active; 'I' for Inactive)
REMARK    1  A    between atoms: C_1  and  N_2
REMARK    2  A    between atoms: C_4  and  C_5
REMARK    3  A    between atoms: C_5  and  O_6
REMARK    4  A    between atoms: C_5  and  C_7
REMARK    5  A    between atoms: C_12  and  C_13
REMARK                            x       y       z     vdW  Elec       q    Type
REMARK                         _______ _______ _______ _____ _____    ______ ____
ROOT
ATOM      1  C   UNL     1       5.110   4.024  19.209  0.00  0.00    +0.000 C 
ATOM      2  O   UNL     1       4.802   2.943  19.723  0.00  0.00    +0.000 OA
ATOM      3  N   UNL     1       4.112   4.943  18.837  0.00  0.00    +0.000 N 
ATOM      4  C   UNL     1       2.761   4.650  19.325  0.00  0.00    +0.000 C 
ATOM      5  C   UNL     1       1.652   5.327  18.527  0.00  0.00    +0.000 C 
ATOM      6  C   UNL     1       1.898   6.819  18.275  0.00  0.00    +0.000 C 
ATOM      7  C   UNL     1       3.294   6.994  17.667  0.00  0.00    +0.000 C 
ATOM      8  C   UNL     1       4.403   6.338  18.490  0.00  0.00    +0.000 C 
ENDROOT
BRANCH   6   9
ATOM      9  C   UNL     1       1.644   7.696  19.486  0.00  0.00    +0.000 A 
ATOM     10  C   UNL     1       1.728   7.326  20.816  0.00  0.00    +0.000 A 
ATOM     11  N   UNL     1       1.406   8.390  21.605  0.00  0.00    +0.000 N 
ATOM     12  C   UNL     1       1.115   9.480  20.828  0.00  0.00    +0.000 A 
ATOM     13  C   UNL     1       0.733  10.767  21.221  0.00  0.00    +0.000 A 
ATOM     14  C   UNL     1       0.496  11.706  20.218  0.00  0.00    +0.000 A 
ATOM     15  C   UNL     1       0.638  11.364  18.877  0.00  0.00    +0.000 A 
ATOM     16  C   UNL     1       1.018  10.065  18.501  0.00  0.00    +0.000 A 
ATOM     17  C   UNL     1       1.260   9.090  19.494  0.00  0.00    +0.000 A 
ATOM     18  H   UNL     1       1.382   8.383  22.614  0.00  0.00    +0.000 HD
ENDBRANCH   6   9
BRANCH   1  19
ATOM     19  C   UNL     1       6.613   4.416  18.980  0.00  0.00    +0.000 C 
BRANCH  19  23
ATOM     20  C   UNL     1       6.995   4.632  13.959  0.00  0.00    +0.000 C 
ATOM     21  N   UNL     1       7.020   4.943  15.366  0.00  0.00    +0.000 N 
ATOM     22  C   UNL     1       6.547   4.174  16.387  0.00  0.00    +0.000 A 
ATOM     23  C   UNL     1       6.861   4.839  17.560  0.00  0.00    +0.000 A 
ATOM     24  C   UNL     1       7.494   6.022  17.111  0.00  0.00    +0.000 A 
ATOM     25  N   UNL     1       7.576   6.095  15.781  0.00  0.00    +0.000 NA
ENDBRANCH  19  23
BRANCH  19  26
ATOM     26  O   UNL     1       7.093   5.417  19.872  0.00  0.00    +0.000 OA
ATOM     27  H   UNL     1       6.830   6.270  19.487  0.00  0.00    +0.000 HD
ENDBRANCH  19  26
ENDBRANCH   1  19
TORSDOF 4
ENDMDL
MODEL 4
REMARK VINA RESULT:      -6.5      4.978      7.634
REMARK  Name = 
REMARK  5 active torsions:
REMARK  status: ('A' for Active; 'I' for Inactive)
REMARK    1  A    between atoms: C_1  and  N_2
REMARK    2  A    between atoms: C_4  and  C_5
REMARK    3  A    between atoms: C_5  and  O_6
REMARK    4  A    between atoms: C_5  and  C_7
REMARK    5  A    between atoms: C_12  and  C_13
REMARK                            x       y       z     vdW  Elec       q    Type
REMARK                         _______ _______ _______ _____ _____    ______ ____
ROOT
ATOM      1  C   UNL     1       2.940   7.435  18.586  0.00  0.00    +0.000 C 
ATOM      2  O   UNL     1       3.604   7.381  17.545  0.00  0.00    +0.000 OA
ATOM      3  N   UNL     1       2.173   8.577  18.880  0.00  0.00    +0.000 N 
ATOM      4  C   UNL     1       2.017   9.539  17.785  0.00  0.00    +0.000 C 
ATOM      5  C   UNL     1       1.645  10.945  18.242  0.00  0.00    +0.000 C 
ATOM      6  C   UNL     1       0.491  10.979  19.252  0.00  0.00    +0.000 C 
ATOM      7  C   UNL     1       0.813  10.018  20.402  0.00  0.00    +0.000 C 
ATOM      8  C   UNL     1       1.155   8.603  19.936  0.00  0.00    +0.000 C 
ENDROOT
BRANCH   6   9
ATOM      9  C   UNL     1      -0.875  10.754  18.632  0.00  0.00    +0.000 A 
ATOM     10  C   UNL     1      -1.185   9.907  17.583  0.00  0.00    +0.000 A 
ATOM     11  N   UNL     1      -2.515  10.002  17.302  0.00  0.00    +0.000 N 
ATOM     12  C   UNL     1      -3.114  10.892  18.153  0.00  0.00    +0.000 A 
ATOM     13  C   UNL     1      -4.453  11.292  18.213  0.00  0.00    +0.000 A 
ATOM     14  C   UNL     1      -4.807  12.222  19.188  0.00  0.00    +0.000 A 
ATOM     15  C   UNL     1      -3.854  12.728  20.067  0.00  0.00    +0.000 A 
ATOM     16  C   UNL     1      -2.513  12.319  19.989  0.00  0.00    +0.000 A 
ATOM     17  C   UNL     1      -2.122  11.380  19.007  0.00  0.00    +0.000 A 
ATOM     18  H   UNL     1      -2.996   9.493  16.574  0.00  0.00    +0.000 HD
ENDBRANCH   6   9
BRANCH   1  19
ATOM     19  C   UNL     1       2.911   6.232  19.595  0.00  0.00    +0.000 C 
BRANCH  19  23
ATOM     20  C   UNL     1       0.650   1.784  18.882  0.00  0.00    +0.000 C 
ATOM     21  N   UNL     1       1.168   3.120  18.715  0.00  0.00    +0.000 N 
ATOM     22  C   UNL     1       1.761   3.896  19.665  0.00  0.00    +0.000 A 
ATOM     23  C   UNL     1       2.166   5.057  19.029  0.00  0.00    +0.000 A 
ATOM     24  C   UNL     1       1.725   4.876  17.697  0.00  0.00    +0.000 A 
ATOM     25  N   UNL     1       1.105   3.709  17.508  0.00  0.00    +0.000 NA
ENDBRANCH  19  23
BRANCH  19  26
ATOM     26  O   UNL     1       4.199   5.817  20.039  0.00  0.00    +0.000 OA
ATOM     27  H   UNL     1       4.654   6.622  20.340  0.00  0.00    +0.000 HD
ENDBRANCH  19  26
ENDBRANCH   1  19
TORSDOF 4
ENDMDL
MODEL 5
REMARK VINA RESULT:      -6.5      3.748      6.498
REMARK  Name = 
REMARK  5 active torsions:
REMARK  status: ('A' for Active; 'I' for Inactive)
REMARK    1  A    between atoms: C_1  and  N_2
REMARK    2  A    between atoms: C_4  and  C_5
REMARK    3  A    between atoms: C_5  and  O_6
REMARK    4  A    between atoms: C_5  and  C_7
REMARK    5  A    between atoms: C_12  and  C_13
REMARK                            x       y       z     vdW  Elec       q    Type
REMARK                         _______ _______ _______ _____ _____    ______ ____
ROOT
ATOM      1  C   UNL     1      -0.490  13.101  20.029  0.00  0.00    +0.000 C 
ATOM      2  O   UNL     1       0.256  13.962  20.508  0.00  0.00    +0.000 OA
ATOM      3  N   UNL     1       0.047  12.023  19.303  0.00  0.00    +0.000 N 
ATOM      4  C   UNL     1       1.502  11.861  19.382  0.00  0.00    +0.000 C 
ATOM      5  C   UNL     1       2.101  11.052  18.237  0.00  0.00    +0.000 C 
ATOM      6  C   UNL     1       1.357   9.741  17.955  0.00  0.00    +0.000 C 
ATOM      7  C   UNL     1      -0.136  10.047  17.784  0.00  0.00    +0.000 C 
ATOM      8  C   UNL     1      -0.734  10.832  18.952  0.00  0.00    +0.000 C 
ENDROOT
BRANCH   6   9
ATOM      9  C   UNL     1       1.645   8.643  18.961  0.00  0.00    +0.000 A 
ATOM     10  C   UNL     1       1.251   8.602  20.286  0.00  0.00    +0.000 A 
ATOM     11  N   UNL     1       1.724   7.462  20.864  0.00  0.00    +0.000 N 
ATOM     12  C   UNL     1       2.424   6.724  19.947  0.00  0.00    +0.000 A 
ATOM     13  C   UNL     1       3.077   5.499  20.113  0.00  0.00    +0.000 A 
ATOM     14  C   UNL     1       3.721   4.953  19.005  0.00  0.00    +0.000 A 
ATOM     15  C   UNL     1       3.706   5.612  17.779  0.00  0.00    +0.000 A 
ATOM     16  C   UNL     1       3.049   6.844  17.631  0.00  0.00    +0.000 A 
ATOM     17  C   UNL     1       2.392   7.426  18.739  0.00  0.00    +0.000 A 
ATOM     18  H   UNL     1       1.582   7.194  21.828  0.00  0.00    +0.000 HD
ENDBRANCH   6   9
BRANCH   1  19
ATOM     19  C   UNL     1      -2.045  13.168  20.233  0.00  0.00    +0.000 C 
BRANCH  19  23
ATOM     20  C   UNL     1      -4.339  12.435  24.662  0.00  0.00    +0.000 C 
ATOM     21  N   UNL     1      -3.444  12.357  23.533  0.00  0.00    +0.000 N 
ATOM     22  C   UNL     1      -3.569  13.004  22.340  0.00  0.00    +0.000 A 
ATOM     23  C   UNL     1      -2.441  12.689  21.601  0.00  0.00    +0.000 A 
ATOM     24  C   UNL     1      -1.725  11.811  22.448  0.00  0.00    +0.000 A 
ATOM     25  N   UNL     1      -2.339  11.595  23.614  0.00  0.00    +0.000 NA
ENDBRANCH  19  23
BRANCH  19  26
ATOM     26  O   UNL     1      -2.607  14.454  19.992  0.00  0.00    +0.000 OA
ATOM     27  H   UNL     1      -2.508  14.952  20.821  0.00  0.00    +0.000 HD
ENDBRANCH  19  26
ENDBRANCH   1  19
TORSDOF 4
ENDMDL
MODEL 6
REMARK VINA RESULT:      -6.5      4.669      7.344
REMARK  Name = 
REMARK  5 active torsions:
REMARK  status: ('A' for Active; 'I' for Inactive)
REMARK    1  A    between atoms: C_1  and  N_2
REMARK    2  A    between atoms: C_4  and  C_5
REMARK    3  A    between atoms: C_5  and  O_6
REMARK    4  A    between atoms: C_5  and  C_7
REMARK    5  A    between atoms: C_12  and  C_13
REMARK                            x       y       z     vdW  Elec       q    Type
REMARK                         _______ _______ _______ _____ _____    ______ ____
ROOT
ATOM      1  C   UNL     1       2.179   8.257  18.418  0.00  0.00    +0.000 C 
ATOM      2  O   UNL     1       2.707   8.328  17.303  0.00  0.00    +0.000 OA
ATOM      3  N   UNL     1       1.671   9.413  19.038  0.00  0.00    +0.000 N 
ATOM      4  C   UNL     1       1.577  10.604  18.187  0.00  0.00    +0.000 C 
ATOM      5  C   UNL     1       1.520  11.917  18.961  0.00  0.00    +0.000 C 
ATOM      6  C   UNL     1       0.506  11.909  20.111  0.00  0.00    +0.000 C 
ATOM      7  C   UNL     1       0.768  10.682  20.992  0.00  0.00    +0.000 C 
ATOM      8  C   UNL     1       0.793   9.367  20.212  0.00  0.00    +0.000 C 
ENDROOT
BRANCH   6   9
ATOM      9  C   UNL     1      -0.936  12.042  19.660  0.00  0.00    +0.000 A 
ATOM     10  C   UNL     1      -1.415  11.964  18.365  0.00  0.00    +0.000 A 
ATOM     11  N   UNL     1      -2.764  12.157  18.368  0.00  0.00    +0.000 N 
ATOM     12  C   UNL     1      -3.208  12.354  19.649  0.00  0.00    +0.000 A 
ATOM     13  C   UNL     1      -4.508  12.593  20.105  0.00  0.00    +0.000 A 
ATOM     14  C   UNL     1      -4.693  12.758  21.476  0.00  0.00    +0.000 A 
ATOM     15  C   UNL     1      -3.614  12.684  22.352  0.00  0.00    +0.000 A 
ATOM     16  C   UNL     1      -2.314  12.448  21.876  0.00  0.00    +0.000 A 
ATOM     17  C   UNL     1      -2.094  12.282  20.490  0.00  0.00    +0.000 A 
ATOM     18  H   UNL     1      -3.355  12.156  17.550  0.00  0.00    +0.000 HD
ENDBRANCH   6   9
BRANCH   1  19
ATOM     19  C   UNL     1       2.038   6.883  19.164  0.00  0.00    +0.000 C 
BRANCH  19  23
ATOM     20  C   UNL     1       5.038   3.877  16.450  0.00  0.00    +0.000 C 
ATOM     21  N   UNL     1       3.926   4.434  17.179  0.00  0.00    +0.000 N 
ATOM     22  C   UNL     1       3.916   5.585  17.908  0.00  0.00    +0.000 A 
ATOM     23  C   UNL     1       2.617   5.756  18.357  0.00  0.00    +0.000 A 
ATOM     24  C   UNL     1       1.942   4.616  17.861  0.00  0.00    +0.000 A 
ATOM     25  N   UNL     1       2.738   3.804  17.160  0.00  0.00    +0.000 NA
ENDBRANCH  19  23
BRANCH  19  26
ATOM     26  O   UNL     1       2.598   6.874  20.474  0.00  0.00    +0.000 OA
ATOM     27  H   UNL     1       3.557   6.766  20.357  0.00  0.00    +0.000 HD
ENDBRANCH  19  26
ENDBRANCH   1  19
TORSDOF 4
ENDMDL
MODEL 7
REMARK VINA RESULT:      -6.5      4.911      7.375
REMARK  Name = 
REMARK  5 active torsions:
REMARK  status: ('A' for Active; 'I' for Inactive)
REMARK    1  A    between atoms: C_1  and  N_2
REMARK    2  A    between atoms: C_4  and  C_5
REMARK    3  A    between atoms: C_5  and  O_6
REMARK    4  A    between atoms: C_5  and  C_7
REMARK    5  A    between atoms: C_12  and  C_13
REMARK                            x       y       z     vdW  Elec       q    Type
REMARK                         _______ _______ _______ _____ _____    ______ ____
ROOT
ATOM      1  C   UNL     1      -0.209  10.318  19.285  0.00  0.00    +0.000 C 
ATOM      2  O   UNL     1      -0.811  10.503  20.348  0.00  0.00    +0.000 OA
ATOM      3  N   UNL     1       0.840   9.383  19.217  0.00  0.00    +0.000 N 
ATOM      4  C   UNL     1       0.979   8.496  20.377  0.00  0.00    +0.000 C 
ATOM      5  C   UNL     1       2.364   7.872  20.518  0.00  0.00    +0.000 C 
ATOM      6  C   UNL     1       2.899   7.262  19.217  0.00  0.00    +0.000 C 
ATOM      7  C   UNL     1       2.803   8.311  18.103  0.00  0.00    +0.000 C 
ATOM      8  C   UNL     1       1.405   8.910  17.949  0.00  0.00    +0.000 C 
ENDROOT
BRANCH   6   9
ATOM      9  C   UNL     1       2.268   5.930  18.858  0.00  0.00    +0.000 A 
ATOM     10  C   UNL     1       1.803   5.535  17.616  0.00  0.00    +0.000 A 
ATOM     11  N   UNL     1       1.286   4.277  17.705  0.00  0.00    +0.000 N 
ATOM     12  C   UNL     1       1.406   3.808  18.986  0.00  0.00    +0.000 A 
ATOM     13  C   UNL     1       1.006   2.577  19.517  0.00  0.00    +0.000 A 
ATOM     14  C   UNL     1       1.249   2.346  20.869  0.00  0.00    +0.000 A 
ATOM     15  C   UNL     1       1.870   3.312  21.654  0.00  0.00    +0.000 A 
ATOM     16  C   UNL     1       2.261   4.544  21.106  0.00  0.00    +0.000 A 
ATOM     17  C   UNL     1       2.023   4.811  19.739  0.00  0.00    +0.000 A 
ATOM     18  H   UNL     1       0.875   3.760  16.941  0.00  0.00    +0.000 HD
ENDBRANCH   6   9
BRANCH   1  19
ATOM     19  C   UNL     1      -0.606  11.095  17.980  0.00  0.00    +0.000 C 
BRANCH  19  23
ATOM     20  C   UNL     1      -5.644  11.203  17.865  0.00  0.00    +0.000 C 
ATOM     21  N   UNL     1      -4.255  10.944  17.576  0.00  0.00    +0.000 N 
ATOM     22  C   UNL     1      -3.171  11.499  18.188  0.00  0.00    +0.000 A 
ATOM     23  C   UNL     1      -2.055  10.892  17.638  0.00  0.00    +0.000 A 
ATOM     24  C   UNL     1      -2.597  10.010  16.674  0.00  0.00    +0.000 A 
ATOM     25  N   UNL     1      -3.931  10.052  16.623  0.00  0.00    +0.000 NA
ENDBRANCH  19  23
BRANCH  19  26
ATOM     26  O   UNL     1      -0.311  12.488  18.022  0.00  0.00    +0.000 OA
ATOM     27  H   UNL     1       0.610  12.560  18.323  0.00  0.00    +0.000 HD
ENDBRANCH  19  26
ENDBRANCH   1  19
TORSDOF 4
ENDMDL
MODEL 8
REMARK VINA RESULT:      -6.5      8.427     10.418
REMARK  Name = 
REMARK  5 active torsions:
REMARK  status: ('A' for Active; 'I' for Inactive)
REMARK    1  A    between atoms: C_1  and  N_2
REMARK    2  A    between atoms: C_4  and  C_5
REMARK    3  A    between atoms: C_5  and  O_6
REMARK    4  A    between atoms: C_5  and  C_7
REMARK    5  A    between atoms: C_12  and  C_13
REMARK                            x       y       z     vdW  Elec       q    Type
REMARK                         _______ _______ _______ _____ _____    ______ ____
ROOT
ATOM      1  C   UNL     1       6.851   4.730  16.777  0.00  0.00    +0.000 C 
ATOM      2  O   UNL     1       7.860   4.321  17.361  0.00  0.00    +0.000 OA
ATOM      3  N   UNL     1       5.571   4.377  17.241  0.00  0.00    +0.000 N 
ATOM      4  C   UNL     1       5.524   3.740  18.562  0.00  0.00    +0.000 C 
ATOM      5  C   UNL     1       4.257   2.931  18.817  0.00  0.00    +0.000 C 
ATOM      6  C   UNL     1       2.967   3.677  18.454  0.00  0.00    +0.000 C 
ATOM      7  C   UNL     1       3.088   4.204  17.020  0.00  0.00    +0.000 C 
ATOM      8  C   UNL     1       4.345   5.039  16.782  0.00  0.00    +0.000 C 
ENDROOT
BRANCH   6   9
ATOM      9  C   UNL     1       2.566   4.736  19.463  0.00  0.00    +0.000 A 
ATOM     10  C   UNL     1       2.386   4.565  20.824  0.00  0.00    +0.000 A 
ATOM     11  N   UNL     1       2.005   5.749  21.383  0.00  0.00    +0.000 N 
ATOM     12  C   UNL     1       1.937   6.722  20.422  0.00  0.00    +0.000 A 
ATOM     13  C   UNL     1       1.585   8.070  20.554  0.00  0.00    +0.000 A 
ATOM     14  C   UNL     1       1.598   8.858  19.405  0.00  0.00    +0.000 A 
ATOM     15  C   UNL     1       1.951   8.313  18.175  0.00  0.00    +0.000 A 
ATOM     16  C   UNL     1       2.297   6.957  18.059  0.00  0.00    +0.000 A 
ATOM     17  C   UNL     1       2.288   6.131  19.206  0.00  0.00    +0.000 A 
ATOM     18  H   UNL     1       1.802   5.893  22.362  0.00  0.00    +0.000 HD
ENDBRANCH   6   9
BRANCH   1  19
ATOM     19  C   UNL     1       6.961   5.668  15.523  0.00  0.00    +0.000 C 
BRANCH  19  23
ATOM     20  C   UNL     1       5.598   2.428  11.910  0.00  0.00    +0.000 C 
ATOM     21  N   UNL     1       6.230   3.487  12.657  0.00  0.00    +0.000 N 
ATOM     22  C   UNL     1       5.902   3.920  13.907  0.00  0.00    +0.000 A 
ATOM     23  C   UNL     1       6.828   4.893  14.242  0.00  0.00    +0.000 A 
ATOM     24  C   UNL     1       7.645   4.984  13.091  0.00  0.00    +0.000 A 
ATOM     25  N   UNL     1       7.274   4.144  12.122  0.00  0.00    +0.000 NA
ENDBRANCH  19  23
BRANCH  19  26
ATOM     26  O   UNL     1       6.037   6.752  15.528  0.00  0.00    +0.000 OA
ATOM     27  H   UNL     1       6.567   7.557  15.658  0.00  0.00    +0.000 HD
ENDBRANCH  19  26
ENDBRANCH   1  19
TORSDOF 4
ENDMDL
MODEL 9
REMARK VINA RESULT:      -6.4      7.436      9.460
REMARK  Name = 
REMARK  5 active torsions:
REMARK  status: ('A' for Active; 'I' for Inactive)
REMARK    1  A    between atoms: C_1  and  N_2
REMARK    2  A    between atoms: C_4  and  C_5
REMARK    3  A    between atoms: C_5  and  O_6
REMARK    4  A    between atoms: C_5  and  C_7
REMARK    5  A    between atoms: C_12  and  C_13
REMARK                            x       y       z     vdW  Elec       q    Type
REMARK                         _______ _______ _______ _____ _____    ______ ____
ROOT
ATOM      1  C   UNL     1       6.586   5.202  18.082  0.00  0.00    +0.000 C 
ATOM      2  O   UNL     1       7.353   4.709  18.915  0.00  0.00    +0.000 OA
ATOM      3  N   UNL     1       5.196   5.185  18.300  0.00  0.00    +0.000 N 
ATOM      4  C   UNL     1       4.767   4.796  19.648  0.00  0.00    +0.000 C 
ATOM      5  C   UNL     1       3.327   4.300  19.722  0.00  0.00    +0.000 C 
ATOM      6  C   UNL     1       2.325   5.211  19.002  0.00  0.00    +0.000 C 
ATOM      7  C   UNL     1       2.822   5.461  17.574  0.00  0.00    +0.000 C 
ATOM      8  C   UNL     1       4.255   5.987  17.511  0.00  0.00    +0.000 C 
ENDROOT
BRANCH   6   9
ATOM      9  C   UNL     1       1.991   6.480  19.764  0.00  0.00    +0.000 A 
ATOM     10  C   UNL     1       1.816   6.610  21.130  0.00  0.00    +0.000 A 
ATOM     11  N   UNL     1       1.504   7.903  21.426  0.00  0.00    +0.000 N 
ATOM     12  C   UNL     1       1.477   8.654  20.281  0.00  0.00    +0.000 A 
ATOM     13  C   UNL     1       1.198  10.016  20.125  0.00  0.00    +0.000 A 
ATOM     14  C   UNL     1       1.240  10.542  18.836  0.00  0.00    +0.000 A 
ATOM     15  C   UNL     1       1.552   9.732  17.749  0.00  0.00    +0.000 A 
ATOM     16  C   UNL     1       1.824   8.365  17.922  0.00  0.00    +0.000 A 
ATOM     17  C   UNL     1       1.784   7.801  19.218  0.00  0.00    +0.000 A 
ATOM     18  H   UNL     1       1.320   8.262  22.352  0.00  0.00    +0.000 HD
ENDBRANCH   6   9
BRANCH   1  19
ATOM     19  C   UNL     1       7.131   5.882  16.776  0.00  0.00    +0.000 C 
BRANCH  19  23
ATOM     20  C   UNL     1       6.866   4.021  12.099  0.00  0.00    +0.000 C 
ATOM     21  N   UNL     1       6.750   4.215  13.523  0.00  0.00    +0.000 N 
ATOM     22  C   UNL     1       7.309   5.213  14.264  0.00  0.00    +0.000 A 
ATOM     23  C   UNL     1       6.860   5.039  15.562  0.00  0.00    +0.000 A 
ATOM     24  C   UNL     1       6.061   3.874  15.483  0.00  0.00    +0.000 A 
ATOM     25  N   UNL     1       6.006   3.364  14.251  0.00  0.00    +0.000 NA
ENDBRANCH  19  23
BRANCH  19  26
ATOM     26  O   UNL     1       6.643   7.203  16.563  0.00  0.00    +0.000 OA
ATOM     27  H   UNL     1       7.301   7.801  16.957  0.00  0.00    +0.000 HD
ENDBRANCH  19  26
ENDBRANCH   1  19
TORSDOF 4
ENDMDL
