MODEL 1
REMARK VINA RESULT:      -7.1      0.000      0.000
REMARK  Name = 
REMARK  3 active torsions:
REMARK  status: ('A' for Active; 'I' for Inactive)
REMARK    1  A    between atoms: C_1  and  N_2
REMARK    2  A    between atoms: N_2  and  C_3
REMARK    3  A    between atoms: C_7  and  C_8
REMARK                            x       y       z     vdW  Elec       q    Type
REMARK                         _______ _______ _______ _____ _____    ______ ____
ROOT
ATOM      1  C   UNL     1       4.716   5.229  18.263  0.00  0.00    +0.000 C 
ATOM      2  C   UNL     1       3.707   6.111  18.395  0.00  0.00    +0.000 C 
ATOM      3  C   UNL     1       3.165   7.051  17.362  0.00  0.00    +0.000 C 
ATOM      4  O   UNL     1       2.951   8.367  17.891  0.00  0.00    +0.000 OA
ATOM      5  C   UNL     1       2.116   8.360  18.976  0.00  0.00    +0.000 A 
ATOM      6  C   UNL     1       1.330   9.494  19.174  0.00  0.00    +0.000 A 
ATOM      7  C   UNL     1       0.457   9.551  20.260  0.00  0.00    +0.000 A 
ATOM      8  C   UNL     1       0.381   8.480  21.154  0.00  0.00    +0.000 A 
ATOM      9  C   UNL     1       1.190   7.356  20.973  0.00  0.00    +0.000 A 
ATOM     10  C   UNL     1       2.062   7.300  19.881  0.00  0.00    +0.000 A 
ATOM     11  C   UNL     1       2.965   6.141  19.693  0.00  0.00    +0.000 C 
ATOM     12  O   UNL     1       3.068   5.260  20.535  0.00  0.00    +0.000 OA
ENDROOT
BRANCH   1  19
ATOM     13  C   UNL     1       8.214   5.520  12.908  0.00  0.00    +0.000 C 
ATOM     14  N   UNL     1       7.145   4.627  13.287  0.00  0.00    +0.000 N 
ATOM     15  C   UNL     1       6.566   3.690  12.352  0.00  0.00    +0.000 C 
ATOM     16  C   UNL     1       6.621   4.718  14.552  0.00  0.00    +0.000 A 
ATOM     17  N   UNL     1       7.115   5.639  15.400  0.00  0.00    +0.000 NA
ATOM     18  C   UNL     1       6.517   5.779  16.600  0.00  0.00    +0.000 A 
ATOM     19  C   UNL     1       5.445   5.019  17.013  0.00  0.00    +0.000 A 
ATOM     20  C   UNL     1       5.057   4.057  16.110  0.00  0.00    +0.000 A 
ATOM     21  N   UNL     1       5.605   3.901  14.890  0.00  0.00    +0.000 NA
ENDBRANCH   1  19
TORSDOF 1
ENDMDL
MODEL 2
REMARK VINA RESULT:      -7.1      3.534      5.184
REMARK  Name = 
REMARK  3 active torsions:
REMARK  status: ('A' for Active; 'I' for Inactive)
REMARK    1  A    between atoms: C_1  and  N_2
REMARK    2  A    between atoms: N_2  and  C_3
REMARK    3  A    between atoms: C_7  and  C_8
REMARK                            x       y       z     vdW  Elec       q    Type
REMARK                         _______ _______ _______ _____ _____    ______ ____
ROOT
ATOM      1  C   UNL     1       6.226   5.129  17.652  0.00  0.00    +0.000 C 
ATOM      2  C   UNL     1       4.959   4.982  18.084  0.00  0.00    +0.000 C 
ATOM      3  C   UNL     1       4.118   5.977  18.824  0.00  0.00    +0.000 C 
ATOM      4  O   UNL     1       3.422   5.380  19.926  0.00  0.00    +0.000 OA
ATOM      5  C   UNL     1       2.637   4.329  19.536  0.00  0.00    +0.000 A 
ATOM      6  C   UNL     1       1.482   4.093  20.280  0.00  0.00    +0.000 A 
ATOM      7  C   UNL     1       0.638   3.038  19.934  0.00  0.00    +0.000 A 
ATOM      8  C   UNL     1       0.956   2.212  18.853  0.00  0.00    +0.000 A 
ATOM      9  C   UNL     1       2.128   2.430  18.126  0.00  0.00    +0.000 A 
ATOM     10  C   UNL     1       2.972   3.490  18.472  0.00  0.00    +0.000 A 
ATOM     11  C   UNL     1       4.244   3.713  17.748  0.00  0.00    +0.000 C 
ATOM     12  O   UNL     1       4.658   2.920  16.913  0.00  0.00    +0.000 OA
ENDROOT
BRANCH   1  19
ATOM     13  C   UNL     1       9.715  10.149  19.550  0.00  0.00    +0.000 C 
ATOM     14  N   UNL     1       8.788  10.009  18.454  0.00  0.00    +0.000 N 
ATOM     15  C   UNL     1       8.369  11.140  17.658  0.00  0.00    +0.000 C 
ATOM     16  C   UNL     1       8.238   8.777  18.203  0.00  0.00    +0.000 A 
ATOM     17  N   UNL     1       8.576   7.738  18.989  0.00  0.00    +0.000 NA
ATOM     18  C   UNL     1       7.946   6.562  18.789  0.00  0.00    +0.000 A 
ATOM     19  C   UNL     1       6.996   6.361  17.813  0.00  0.00    +0.000 A 
ATOM     20  C   UNL     1       6.769   7.457  17.014  0.00  0.00    +0.000 A 
ATOM     21  N   UNL     1       7.352   8.658  17.196  0.00  0.00    +0.000 NA
ENDBRANCH   1  19
TORSDOF 1
ENDMDL
MODEL 3
REMARK VINA RESULT:      -6.9      2.540      4.484
REMARK  Name = 
REMARK  3 active torsions:
REMARK  status: ('A' for Active; 'I' for Inactive)
REMARK    1  A    between atoms: C_1  and  N_2
REMARK    2  A    between atoms: N_2  and  C_3
REMARK    3  A    between atoms: C_7  and  C_8
REMARK                            x       y       z     vdW  Elec       q    Type
REMARK                         _______ _______ _______ _____ _____    ______ ____
ROOT
ATOM      1  C   UNL     1       1.811   8.707  18.247  0.00  0.00    +0.000 C 
ATOM      2  C   UNL     1       1.396   9.147  19.451  0.00  0.00    +0.000 C 
ATOM      3  C   UNL     1       1.599   8.501  20.788  0.00  0.00    +0.000 C 
ATOM      4  O   UNL     1       0.401   8.504  21.575  0.00  0.00    +0.000 OA
ATOM      5  C   UNL     1      -0.097   9.767  21.756  0.00  0.00    +0.000 A 
ATOM      6  C   UNL     1      -0.791  10.007  22.941  0.00  0.00    +0.000 A 
ATOM      7  C   UNL     1      -1.322  11.272  23.187  0.00  0.00    +0.000 A 
ATOM      8  C   UNL     1      -1.172  12.292  22.244  0.00  0.00    +0.000 A 
ATOM      9  C   UNL     1      -0.503  12.043  21.044  0.00  0.00    +0.000 A 
ATOM     10  C   UNL     1       0.032  10.774  20.799  0.00  0.00    +0.000 A 
ATOM     11  C   UNL     1       0.704  10.470  19.515  0.00  0.00    +0.000 C 
ATOM     12  O   UNL     1       0.709  11.267  18.586  0.00  0.00    +0.000 OA
ENDROOT
BRANCH   1  19
ATOM     13  C   UNL     1       5.745   3.985  16.453  0.00  0.00    +0.000 C 
ATOM     14  N   UNL     1       4.518   3.950  17.212  0.00  0.00    +0.000 N 
ATOM     15  C   UNL     1       3.876   2.706  17.567  0.00  0.00    +0.000 C 
ATOM     16  C   UNL     1       3.911   5.135  17.548  0.00  0.00    +0.000 A 
ATOM     17  N   UNL     1       4.475   6.292  17.156  0.00  0.00    +0.000 NA
ATOM     18  C   UNL     1       3.809   7.438  17.408  0.00  0.00    +0.000 A 
ATOM     19  C   UNL     1       2.598   7.488  18.062  0.00  0.00    +0.000 A 
ATOM     20  C   UNL     1       2.136   6.265  18.488  0.00  0.00    +0.000 A 
ATOM     21  N   UNL     1       2.753   5.095  18.232  0.00  0.00    +0.000 NA
ENDBRANCH   1  19
TORSDOF 1
ENDMDL
MODEL 4
REMARK VINA RESULT:      -6.8      2.640      4.594
REMARK  Name = 
REMARK  3 active torsions:
REMARK  status: ('A' for Active; 'I' for Inactive)
REMARK    1  A    between atoms: C_1  and  N_2
REMARK    2  A    between atoms: N_2  and  C_3
REMARK    3  A    between atoms: C_7  and  C_8
REMARK                            x       y       z     vdW  Elec       q    Type
REMARK                         _______ _______ _______ _____ _____    ______ ____
ROOT
ATOM      1  C   UNL     1       1.833   8.747  18.144  0.00  0.00    +0.000 C 
ATOM      2  C   UNL     1       1.422   9.108  19.375  0.00  0.00    +0.000 C 
ATOM      3  C   UNL     1       1.551   8.335  20.652  0.00  0.00    +0.000 C 
ATOM      4  O   UNL     1       0.338   8.353  21.416  0.00  0.00    +0.000 OA
ATOM      5  C   UNL     1      -0.077   9.627  21.700  0.00  0.00    +0.000 A 
ATOM      6  C   UNL     1      -0.779   9.810  22.890  0.00  0.00    +0.000 A 
ATOM      7  C   UNL     1      -1.229  11.083  23.240  0.00  0.00    +0.000 A 
ATOM      8  C   UNL     1      -0.989  12.168  22.392  0.00  0.00    +0.000 A 
ATOM      9  C   UNL     1      -0.312  11.979  21.187  0.00  0.00    +0.000 A 
ATOM     10  C   UNL     1       0.142  10.702  20.839  0.00  0.00    +0.000 A 
ATOM     11  C   UNL     1       0.820  10.466  19.544  0.00  0.00    +0.000 C 
ATOM     12  O   UNL     1       0.900  11.338  18.690  0.00  0.00    +0.000 OA
ENDROOT
BRANCH   1  19
ATOM     13  C   UNL     1       4.172   2.797  17.798  0.00  0.00    +0.000 C 
ATOM     14  N   UNL     1       4.769   4.065  17.452  0.00  0.00    +0.000 N 
ATOM     15  C   UNL     1       6.164   4.178  17.094  0.00  0.00    +0.000 C 
ATOM     16  C   UNL     1       4.005   5.202  17.530  0.00  0.00    +0.000 A 
ATOM     17  N   UNL     1       2.724   5.103  17.932  0.00  0.00    +0.000 NA
ATOM     18  C   UNL     1       2.024   6.243  18.100  0.00  0.00    +0.000 A 
ATOM     19  C   UNL     1       2.540   7.498  17.864  0.00  0.00    +0.000 A 
ATOM     20  C   UNL     1       3.830   7.496  17.388  0.00  0.00    +0.000 A 
ATOM     21  N   UNL     1       4.576   6.385  17.234  0.00  0.00    +0.000 NA
ENDBRANCH   1  19
TORSDOF 1
ENDMDL
MODEL 5
REMARK VINA RESULT:      -6.6      4.445      7.734
REMARK  Name = 
REMARK  3 active torsions:
REMARK  status: ('A' for Active; 'I' for Inactive)
REMARK    1  A    between atoms: C_1  and  N_2
REMARK    2  A    between atoms: N_2  and  C_3
REMARK    3  A    between atoms: C_7  and  C_8
REMARK                            x       y       z     vdW  Elec       q    Type
REMARK                         _______ _______ _______ _____ _____    ______ ____
ROOT
ATOM      1  C   UNL     1       1.358   6.979  20.995  0.00  0.00    +0.000 C 
ATOM      2  C   UNL     1       2.077   6.192  20.172  0.00  0.00    +0.000 C 
ATOM      3  C   UNL     1       2.856   6.598  18.958  0.00  0.00    +0.000 C 
ATOM      4  O   UNL     1       2.633   5.711  17.854  0.00  0.00    +0.000 OA
ATOM      5  C   UNL     1       2.928   4.411  18.165  0.00  0.00    +0.000 A 
ATOM      6  C   UNL     1       3.382   3.601  17.125  0.00  0.00    +0.000 A 
ATOM      7  C   UNL     1       3.702   2.267  17.376  0.00  0.00    +0.000 A 
ATOM      8  C   UNL     1       3.554   1.740  18.661  0.00  0.00    +0.000 A 
ATOM      9  C   UNL     1       3.071   2.543  19.696  0.00  0.00    +0.000 A 
ATOM     10  C   UNL     1       2.754   3.882  19.445  0.00  0.00    +0.000 A 
ATOM     11  C   UNL     1       2.195   4.741  20.513  0.00  0.00    +0.000 C 
ATOM     12  O   UNL     1       1.880   4.289  21.605  0.00  0.00    +0.000 OA
ENDROOT
BRANCH   1  19
ATOM     13  C   UNL     1       0.425  13.296  21.470  0.00  0.00    +0.000 C 
ATOM     14  N   UNL     1       0.541  12.446  20.309  0.00  0.00    +0.000 N 
ATOM     15  C   UNL     1       0.282  12.937  18.975  0.00  0.00    +0.000 C 
ATOM     16  C   UNL     1       0.842  11.119  20.485  0.00  0.00    +0.000 A 
ATOM     17  N   UNL     1       1.015  10.647  21.734  0.00  0.00    +0.000 NA
ATOM     18  C   UNL     1       1.208   9.322  21.889  0.00  0.00    +0.000 A 
ATOM     19  C   UNL     1       1.259   8.430  20.840  0.00  0.00    +0.000 A 
ATOM     20  C   UNL     1       1.144   9.012  19.600  0.00  0.00    +0.000 A 
ATOM     21  N   UNL     1       0.921  10.325  19.400  0.00  0.00    +0.000 NA
ENDBRANCH   1  19
TORSDOF 1
ENDMDL
MODEL 6
REMARK VINA RESULT:      -6.6      3.898      5.118
REMARK  Name = 
REMARK  3 active torsions:
REMARK  status: ('A' for Active; 'I' for Inactive)
REMARK    1  A    between atoms: C_1  and  N_2
REMARK    2  A    between atoms: N_2  and  C_3
REMARK    3  A    between atoms: C_7  and  C_8
REMARK                            x       y       z     vdW  Elec       q    Type
REMARK                         _______ _______ _______ _____ _____    ______ ____
ROOT
ATOM      1  C   UNL     1       2.006   7.914  18.626  0.00  0.00    +0.000 C 
ATOM      2  C   UNL     1       1.545   8.548  19.721  0.00  0.00    +0.000 C 
ATOM      3  C   UNL     1       1.383   7.997  21.105  0.00  0.00    +0.000 C 
ATOM      4  O   UNL     1       0.123   8.357  21.684  0.00  0.00    +0.000 OA
ATOM      5  C   UNL     1      -0.064   9.713  21.715  0.00  0.00    +0.000 A 
ATOM      6  C   UNL     1      -0.840  10.219  22.757  0.00  0.00    +0.000 A 
ATOM      7  C   UNL     1      -1.068  11.592  22.847  0.00  0.00    +0.000 A 
ATOM      8  C   UNL     1      -0.533  12.456  21.888  0.00  0.00    +0.000 A 
ATOM      9  C   UNL     1       0.220  11.946  20.828  0.00  0.00    +0.000 A 
ATOM     10  C   UNL     1       0.450  10.570  20.741  0.00  0.00    +0.000 A 
ATOM     11  C   UNL     1       1.204   9.999  19.601  0.00  0.00    +0.000 C 
ATOM     12  O   UNL     1       1.543  10.683  18.646  0.00  0.00    +0.000 OA
ENDROOT
BRANCH   1  19
ATOM     13  C   UNL     1       2.922   1.586  18.296  0.00  0.00    +0.000 C 
ATOM     14  N   UNL     1       3.610   2.598  19.061  0.00  0.00    +0.000 N 
ATOM     15  C   UNL     1       4.590   2.259  20.068  0.00  0.00    +0.000 C 
ATOM     16  C   UNL     1       3.276   3.915  18.873  0.00  0.00    +0.000 A 
ATOM     17  N   UNL     1       2.313   4.224  17.984  0.00  0.00    +0.000 NA
ATOM     18  C   UNL     1       1.930   5.514  17.889  0.00  0.00    +0.000 A 
ATOM     19  C   UNL     1       2.482   6.531  18.635  0.00  0.00    +0.000 A 
ATOM     20  C   UNL     1       3.506   6.131  19.461  0.00  0.00    +0.000 A 
ATOM     21  N   UNL     1       3.901   4.852  19.609  0.00  0.00    +0.000 NA
ENDBRANCH   1  19
TORSDOF 1
ENDMDL
MODEL 7
REMARK VINA RESULT:      -6.6      3.545      5.721
REMARK  Name = 
REMARK  3 active torsions:
REMARK  status: ('A' for Active; 'I' for Inactive)
REMARK    1  A    between atoms: C_1  and  N_2
REMARK    2  A    between atoms: N_2  and  C_3
REMARK    3  A    between atoms: C_7  and  C_8
REMARK                            x       y       z     vdW  Elec       q    Type
REMARK                         _______ _______ _______ _____ _____    ______ ____
ROOT
ATOM      1  C   UNL     1       1.264   8.339  21.558  0.00  0.00    +0.000 C 
ATOM      2  C   UNL     1       0.316   9.263  21.309  0.00  0.00    +0.000 C 
ATOM      3  C   UNL     1      -0.424   9.500  20.028  0.00  0.00    +0.000 C 
ATOM      4  O   UNL     1      -0.505  10.893  19.703  0.00  0.00    +0.000 OA
ATOM      5  C   UNL     1      -1.088  11.626  20.702  0.00  0.00    +0.000 A 
ATOM      6  C   UNL     1      -1.800  12.761  20.319  0.00  0.00    +0.000 A 
ATOM      7  C   UNL     1      -2.419  13.551  21.288  0.00  0.00    +0.000 A 
ATOM      8  C   UNL     1      -2.313  13.213  22.639  0.00  0.00    +0.000 A 
ATOM      9  C   UNL     1      -1.575  12.093  23.026  0.00  0.00    +0.000 A 
ATOM     10  C   UNL     1      -0.957  11.300  22.053  0.00  0.00    +0.000 A 
ATOM     11  C   UNL     1      -0.129  10.135  22.439  0.00  0.00    +0.000 C 
ATOM     12  O   UNL     1       0.143   9.896  23.607  0.00  0.00    +0.000 OA
ENDROOT
BRANCH   1  19
ATOM     13  C   UNL     1       3.197   3.222  18.230  0.00  0.00    +0.000 C 
ATOM     14  N   UNL     1       3.365   4.632  17.971  0.00  0.00    +0.000 N 
ATOM     15  C   UNL     1       4.208   5.116  16.902  0.00  0.00    +0.000 C 
ATOM     16  C   UNL     1       2.759   5.538  18.805  0.00  0.00    +0.000 A 
ATOM     17  N   UNL     1       2.030   5.085  19.842  0.00  0.00    +0.000 NA
ATOM     18  C   UNL     1       1.530   5.991  20.707  0.00  0.00    +0.000 A 
ATOM     19  C   UNL     1       1.705   7.350  20.575  0.00  0.00    +0.000 A 
ATOM     20  C   UNL     1       2.400   7.721  19.448  0.00  0.00    +0.000 A 
ATOM     21  N   UNL     1       2.942   6.851  18.575  0.00  0.00    +0.000 NA
ENDBRANCH   1  19
TORSDOF 1
ENDMDL
MODEL 8
REMARK VINA RESULT:      -6.5      4.527      7.653
REMARK  Name = 
REMARK  3 active torsions:
REMARK  status: ('A' for Active; 'I' for Inactive)
REMARK    1  A    between atoms: C_1  and  N_2
REMARK    2  A    between atoms: N_2  and  C_3
REMARK    3  A    between atoms: C_7  and  C_8
REMARK                            x       y       z     vdW  Elec       q    Type
REMARK                         _______ _______ _______ _____ _____    ______ ____
ROOT
ATOM      1  C   UNL     1       1.441   7.105  20.991  0.00  0.00    +0.000 C 
ATOM      2  C   UNL     1       2.046   6.267  20.128  0.00  0.00    +0.000 C 
ATOM      3  C   UNL     1       2.549   6.569  18.749  0.00  0.00    +0.000 C 
ATOM      4  O   UNL     1       2.185   5.552  17.807  0.00  0.00    +0.000 OA
ATOM      5  C   UNL     1       2.626   4.312  18.186  0.00  0.00    +0.000 A 
ATOM      6  C   UNL     1       2.932   3.413  17.166  0.00  0.00    +0.000 A 
ATOM      7  C   UNL     1       3.388   2.134  17.484  0.00  0.00    +0.000 A 
ATOM      8  C   UNL     1       3.525   1.751  18.820  0.00  0.00    +0.000 A 
ATOM      9  C   UNL     1       3.191   2.642  19.842  0.00  0.00    +0.000 A 
ATOM     10  C   UNL     1       2.737   3.925  19.522  0.00  0.00    +0.000 A 
ATOM     11  C   UNL     1       2.330   4.872  20.586  0.00  0.00    +0.000 C 
ATOM     12  O   UNL     1       2.261   4.532  21.759  0.00  0.00    +0.000 OA
ENDROOT
BRANCH   1  19
ATOM     13  C   UNL     1       1.037  13.067  18.691  0.00  0.00    +0.000 C 
ATOM     14  N   UNL     1       0.993  12.577  20.048  0.00  0.00    +0.000 N 
ATOM     15  C   UNL     1       1.008  13.470  21.184  0.00  0.00    +0.000 C 
ATOM     16  C   UNL     1       1.003  11.221  20.265  0.00  0.00    +0.000 A 
ATOM     17  N   UNL     1       1.059  10.390  19.208  0.00  0.00    +0.000 NA
ATOM     18  C   UNL     1       1.171   9.068  19.447  0.00  0.00    +0.000 A 
ATOM     19  C   UNL     1       1.210   8.522  20.711  0.00  0.00    +0.000 A 
ATOM     20  C   UNL     1       1.074   9.440  21.725  0.00  0.00    +0.000 A 
ATOM     21  N   UNL     1       0.990  10.770  21.533  0.00  0.00    +0.000 NA
ENDBRANCH   1  19
TORSDOF 1
ENDMDL
MODEL 9
REMARK VINA RESULT:      -6.5      0.445      1.357
REMARK  Name = 
REMARK  3 active torsions:
REMARK  status: ('A' for Active; 'I' for Inactive)
REMARK    1  A    between atoms: C_1  and  N_2
REMARK    2  A    between atoms: N_2  and  C_3
REMARK    3  A    between atoms: C_7  and  C_8
REMARK                            x       y       z     vdW  Elec       q    Type
REMARK                         _______ _______ _______ _____ _____    ______ ____
ROOT
ATOM      1  C   UNL     1       4.298   5.450  18.124  0.00  0.00    +0.000 C 
ATOM      2  C   UNL     1       3.320   6.342  18.377  0.00  0.00    +0.000 C 
ATOM      3  C   UNL     1       2.705   7.328  17.431  0.00  0.00    +0.000 C 
ATOM      4  O   UNL     1       2.564   8.626  18.023  0.00  0.00    +0.000 OA
ATOM      5  C   UNL     1       1.829   8.591  19.178  0.00  0.00    +0.000 A 
ATOM      6  C   UNL     1       1.085   9.729  19.486  0.00  0.00    +0.000 A 
ATOM      7  C   UNL     1       0.314   9.759  20.647  0.00  0.00    +0.000 A 
ATOM      8  C   UNL     1       0.298   8.657  21.506  0.00  0.00    +0.000 A 
ATOM      9  C   UNL     1       1.067   7.529  21.213  0.00  0.00    +0.000 A 
ATOM     10  C   UNL     1       1.837   7.499  20.046  0.00  0.00    +0.000 A 
ATOM     11  C   UNL     1       2.698   6.335  19.737  0.00  0.00    +0.000 C 
ATOM     12  O   UNL     1       2.860   5.423  20.535  0.00  0.00    +0.000 OA
ENDROOT
BRANCH   1  19
ATOM     13  C   UNL     1       6.553   3.502  12.458  0.00  0.00    +0.000 C 
ATOM     14  N   UNL     1       6.972   4.585  13.315  0.00  0.00    +0.000 N 
ATOM     15  C   UNL     1       8.171   5.347  13.053  0.00  0.00    +0.000 C 
ATOM     16  C   UNL     1       6.246   4.854  14.448  0.00  0.00    +0.000 A 
ATOM     17  N   UNL     1       5.168   4.097  14.728  0.00  0.00    +0.000 NA
ATOM     18  C   UNL     1       4.530   4.313  15.897  0.00  0.00    +0.000 A 
ATOM     19  C   UNL     1       4.908   5.275  16.807  0.00  0.00    +0.000 A 
ATOM     20  C   UNL     1       5.973   6.045  16.402  0.00  0.00    +0.000 A 
ATOM     21  N   UNL     1       6.657   5.846  15.259  0.00  0.00    +0.000 NA
ENDBRANCH   1  19
TORSDOF 1
ENDMDL
