MODEL 1
REMARK VINA RESULT:      -7.8      0.000      0.000
REMARK  Name = 
REMARK  4 active torsions:
REMARK  status: ('A' for Active; 'I' for Inactive)
REMARK    1  A    between atoms: C_1  and  C_16
REMARK    2  A    between atoms: C_2  and  C_3
REMARK    3  A    between atoms: N_7  and  C_8
REMARK    4  A    between atoms: C_8  and  C_9
REMARK                            x       y       z     vdW  Elec       q    Type
REMARK                         _______ _______ _______ _____ _____    ______ ____
ROOT
ATOM      1  C   UNL     1       6.098   6.106  15.861  0.00  0.00    +0.000 C 
ATOM      2  C   UNL     1       7.148   5.628  16.871  0.00  0.00    +0.000 C 
ATOM      3  C   UNL     1       6.573   4.593  17.836  0.00  0.00    +0.000 C 
ATOM      4  C   UNL     1       5.266   5.065  18.482  0.00  0.00    +0.000 C 
ATOM      5  N   UNL     1       4.275   5.503  17.487  0.00  0.00    +0.000 NA
ATOM      6  C   UNL     1       4.836   6.566  16.625  0.00  0.00    +0.000 C 
ENDROOT
BRANCH   1   8
ATOM      7  C   UNL     1       6.584   4.617  13.877  0.00  0.00    +0.000 C 
ATOM      8  C   UNL     1       5.751   5.036  14.844  0.00  0.00    +0.000 C 
BRANCH   7   9
ATOM      9  C   UNL     1       6.221   3.659  12.821  0.00  0.00    +0.000 A 
ATOM     10  C   UNL     1       4.878   3.595  12.416  0.00  0.00    +0.000 A 
ATOM     11  C   UNL     1       4.466   2.691  11.433  0.00  0.00    +0.000 A 
ATOM     12  C   UNL     1       5.396   1.846  10.831  0.00  0.00    +0.000 A 
ATOM     13  C   UNL     1       6.737   1.918  11.201  0.00  0.00    +0.000 A 
ATOM     14  C   UNL     1       7.147   2.821  12.185  0.00  0.00    +0.000 A 
ENDBRANCH   7   9
ENDBRANCH   1   8
BRANCH   5  15
ATOM     15  C   UNL     1       3.033   5.996  18.117  0.00  0.00    +0.000 C 
BRANCH  15  16
ATOM     16  C   UNL     1       2.186   4.923  18.771  0.00  0.00    +0.000 A 
ATOM     17  C   UNL     1       1.694   3.850  18.012  0.00  0.00    +0.000 A 
ATOM     18  C   UNL     1       0.942   2.840  18.614  0.00  0.00    +0.000 A 
ATOM     19  C   UNL     1       0.678   2.888  19.981  0.00  0.00    +0.000 A 
ATOM     20  C   UNL     1       1.164   3.946  20.747  0.00  0.00    +0.000 A 
ATOM     21  C   UNL     1       1.915   4.959  20.144  0.00  0.00    +0.000 A 
ENDBRANCH  15  16
ENDBRANCH   5  15
TORSDOF 4
ENDMDL
MODEL 2
REMARK VINA RESULT:      -7.8      0.135      1.061
REMARK  Name = 
REMARK  4 active torsions:
REMARK  status: ('A' for Active; 'I' for Inactive)
REMARK    1  A    between atoms: C_1  and  C_16
REMARK    2  A    between atoms: C_2  and  C_3
REMARK    3  A    between atoms: N_7  and  C_8
REMARK    4  A    between atoms: C_8  and  C_9
REMARK                            x       y       z     vdW  Elec       q    Type
REMARK                         _______ _______ _______ _____ _____    ______ ____
ROOT
ATOM      1  C   UNL     1       6.103   6.261  15.887  0.00  0.00    +0.000 C 
ATOM      2  C   UNL     1       7.201   5.781  16.844  0.00  0.00    +0.000 C 
ATOM      3  C   UNL     1       6.687   4.704  17.797  0.00  0.00    +0.000 C 
ATOM      4  C   UNL     1       5.393   5.122  18.503  0.00  0.00    +0.000 C 
ATOM      5  N   UNL     1       4.356   5.563  17.557  0.00  0.00    +0.000 NA
ATOM      6  C   UNL     1       4.859   6.665  16.708  0.00  0.00    +0.000 C 
ENDROOT
BRANCH   1   8
ATOM      7  C   UNL     1       6.625   4.680  13.984  0.00  0.00    +0.000 C 
ATOM      8  C   UNL     1       5.748   5.212  14.851  0.00  0.00    +0.000 C 
BRANCH   7   9
ATOM      9  C   UNL     1       6.270   3.744  12.906  0.00  0.00    +0.000 A 
ATOM     10  C   UNL     1       4.922   3.652  12.525  0.00  0.00    +0.000 A 
ATOM     11  C   UNL     1       4.518   2.765  11.523  0.00  0.00    +0.000 A 
ATOM     12  C   UNL     1       5.460   1.968  10.878  0.00  0.00    +0.000 A 
ATOM     13  C   UNL     1       6.806   2.068  11.225  0.00  0.00    +0.000 A 
ATOM     14  C   UNL     1       7.209   2.953  12.228  0.00  0.00    +0.000 A 
ENDBRANCH   7   9
ENDBRANCH   1   8
BRANCH   5  15
ATOM     15  C   UNL     1       3.125   6.004  18.244  0.00  0.00    +0.000 C 
BRANCH  15  16
ATOM     16  C   UNL     1       2.296   4.884  18.840  0.00  0.00    +0.000 A 
ATOM     17  C   UNL     1       1.966   4.898  20.203  0.00  0.00    +0.000 A 
ATOM     18  C   UNL     1       1.174   3.888  20.752  0.00  0.00    +0.000 A 
ATOM     19  C   UNL     1       0.700   2.856  19.944  0.00  0.00    +0.000 A 
ATOM     20  C   UNL     1       1.019   2.833  18.588  0.00  0.00    +0.000 A 
ATOM     21  C   UNL     1       1.814   3.843  18.038  0.00  0.00    +0.000 A 
ENDBRANCH  15  16
ENDBRANCH   5  15
TORSDOF 4
ENDMDL
MODEL 3
REMARK VINA RESULT:      -7.7      0.572      1.195
REMARK  Name = 
REMARK  4 active torsions:
REMARK  status: ('A' for Active; 'I' for Inactive)
REMARK    1  A    between atoms: C_1  and  C_16
REMARK    2  A    between atoms: C_2  and  C_3
REMARK    3  A    between atoms: N_7  and  C_8
REMARK    4  A    between atoms: C_8  and  C_9
REMARK                            x       y       z     vdW  Elec       q    Type
REMARK                         _______ _______ _______ _____ _____    ______ ____
ROOT
ATOM      1  C   UNL     1       6.143   6.483  16.307  0.00  0.00    +0.000 C 
ATOM      2  C   UNL     1       7.345   6.011  17.134  0.00  0.00    +0.000 C 
ATOM      3  C   UNL     1       6.968   4.874  18.080  0.00  0.00    +0.000 C 
ATOM      4  C   UNL     1       5.732   5.206  18.924  0.00  0.00    +0.000 C 
ATOM      5  N   UNL     1       4.592   5.641  18.101  0.00  0.00    +0.000 NA
ATOM      6  C   UNL     1       4.969   6.799  17.260  0.00  0.00    +0.000 C 
ENDROOT
BRANCH   1   8
ATOM      7  C   UNL     1       6.561   4.950  14.341  0.00  0.00    +0.000 C 
ATOM      8  C   UNL     1       5.730   5.465  15.262  0.00  0.00    +0.000 C 
BRANCH   7   9
ATOM      9  C   UNL     1       6.147   4.045  13.257  0.00  0.00    +0.000 A 
ATOM     10  C   UNL     1       7.140   3.308  12.593  0.00  0.00    +0.000 A 
ATOM     11  C   UNL     1       6.814   2.448  11.541  0.00  0.00    +0.000 A 
ATOM     12  C   UNL     1       5.486   2.304  11.147  0.00  0.00    +0.000 A 
ATOM     13  C   UNL     1       4.485   3.007  11.814  0.00  0.00    +0.000 A 
ATOM     14  C   UNL     1       4.813   3.868  12.865  0.00  0.00    +0.000 A 
ENDBRANCH   7   9
ENDBRANCH   1   8
BRANCH   5  15
ATOM     15  C   UNL     1       3.418   6.000  18.921  0.00  0.00    +0.000 C 
BRANCH  15  16
ATOM     16  C   UNL     1       2.449   4.862  19.173  0.00  0.00    +0.000 A 
ATOM     17  C   UNL     1       2.113   3.979  18.136  0.00  0.00    +0.000 A 
ATOM     18  C   UNL     1       1.248   2.908  18.369  0.00  0.00    +0.000 A 
ATOM     19  C   UNL     1       0.715   2.704  19.641  0.00  0.00    +0.000 A 
ATOM     20  C   UNL     1       1.046   3.573  20.680  0.00  0.00    +0.000 A 
ATOM     21  C   UNL     1       1.910   4.647  20.447  0.00  0.00    +0.000 A 
ENDBRANCH  15  16
ENDBRANCH   5  15
TORSDOF 4
ENDMDL
MODEL 4
REMARK VINA RESULT:      -7.7      1.120      1.622
REMARK  Name = 
REMARK  4 active torsions:
REMARK  status: ('A' for Active; 'I' for Inactive)
REMARK    1  A    between atoms: C_1  and  C_16
REMARK    2  A    between atoms: C_2  and  C_3
REMARK    3  A    between atoms: N_7  and  C_8
REMARK    4  A    between atoms: C_8  and  C_9
REMARK                            x       y       z     vdW  Elec       q    Type
REMARK                         _______ _______ _______ _____ _____    ______ ____
ROOT
ATOM      1  C   UNL     1       5.828   6.857  16.798  0.00  0.00    +0.000 C 
ATOM      2  C   UNL     1       7.246   6.770  17.377  0.00  0.00    +0.000 C 
ATOM      3  C   UNL     1       7.442   5.500  18.202  0.00  0.00    +0.000 C 
ATOM      4  C   UNL     1       6.337   5.310  19.247  0.00  0.00    +0.000 C 
ATOM      5  N   UNL     1       4.990   5.384  18.658  0.00  0.00    +0.000 NA
ATOM      6  C   UNL     1       4.805   6.664  17.940  0.00  0.00    +0.000 C 
ENDROOT
BRANCH   1   8
ATOM      7  C   UNL     1       6.558   5.401  14.865  0.00  0.00    +0.000 C 
ATOM      8  C   UNL     1       5.598   5.847  15.691  0.00  0.00    +0.000 C 
BRANCH   7   9
ATOM      9  C   UNL     1       6.325   4.505  13.721  0.00  0.00    +0.000 A 
ATOM     10  C   UNL     1       5.033   3.989  13.535  0.00  0.00    +0.000 A 
ATOM     11  C   UNL     1       4.753   3.116  12.481  0.00  0.00    +0.000 A 
ATOM     12  C   UNL     1       5.760   2.757  11.588  0.00  0.00    +0.000 A 
ATOM     13  C   UNL     1       7.041   3.283  11.742  0.00  0.00    +0.000 A 
ATOM     14  C   UNL     1       7.320   4.155  12.798  0.00  0.00    +0.000 A 
ENDBRANCH   7   9
ENDBRANCH   1   8
BRANCH   5  15
ATOM     15  C   UNL     1       3.929   5.242  19.675  0.00  0.00    +0.000 C 
BRANCH  15  16
ATOM     16  C   UNL     1       2.894   4.179  19.366  0.00  0.00    +0.000 A 
ATOM     17  C   UNL     1       1.705   4.115  20.107  0.00  0.00    +0.000 A 
ATOM     18  C   UNL     1       0.731   3.160  19.806  0.00  0.00    +0.000 A 
ATOM     19  C   UNL     1       0.934   2.264  18.758  0.00  0.00    +0.000 A 
ATOM     20  C   UNL     1       2.109   2.321  18.012  0.00  0.00    +0.000 A 
ATOM     21  C   UNL     1       3.085   3.275  18.315  0.00  0.00    +0.000 A 
ENDBRANCH  15  16
ENDBRANCH   5  15
TORSDOF 4
ENDMDL
MODEL 5
REMARK VINA RESULT:      -7.6      0.906      1.715
REMARK  Name = 
REMARK  4 active torsions:
REMARK  status: ('A' for Active; 'I' for Inactive)
REMARK    1  A    between atoms: C_1  and  C_16
REMARK    2  A    between atoms: C_2  and  C_3
REMARK    3  A    between atoms: N_7  and  C_8
REMARK    4  A    between atoms: C_8  and  C_9
REMARK                            x       y       z     vdW  Elec       q    Type
REMARK                         _______ _______ _______ _____ _____    ______ ____
ROOT
ATOM      1  C   UNL     1       6.028   6.587  16.513  0.00  0.00    +0.000 C 
ATOM      2  C   UNL     1       7.384   6.350  17.188  0.00  0.00    +0.000 C 
ATOM      3  C   UNL     1       7.345   5.148  18.129  0.00  0.00    +0.000 C 
ATOM      4  C   UNL     1       6.171   5.219  19.112  0.00  0.00    +0.000 C 
ATOM      5  N   UNL     1       4.883   5.432  18.433  0.00  0.00    +0.000 NA
ATOM      6  C   UNL     1       4.930   6.652  17.598  0.00  0.00    +0.000 C 
ENDROOT
BRANCH   1   8
ATOM      7  C   UNL     1       6.509   5.197  14.457  0.00  0.00    +0.000 C 
ATOM      8  C   UNL     1       5.707   5.521  15.483  0.00  0.00    +0.000 C 
BRANCH   7   9
ATOM      9  C   UNL     1       6.159   4.243  13.393  0.00  0.00    +0.000 A 
ATOM     10  C   UNL     1       7.204   3.608  12.701  0.00  0.00    +0.000 A 
ATOM     11  C   UNL     1       6.937   2.709  11.666  0.00  0.00    +0.000 A 
ATOM     12  C   UNL     1       5.620   2.420  11.317  0.00  0.00    +0.000 A 
ATOM     13  C   UNL     1       4.572   3.020  12.012  0.00  0.00    +0.000 A 
ATOM     14  C   UNL     1       4.840   3.921  13.046  0.00  0.00    +0.000 A 
ENDBRANCH   7   9
ENDBRANCH   1   8
BRANCH   5  15
ATOM     15  C   UNL     1       3.761   5.541  19.387  0.00  0.00    +0.000 C 
BRANCH  15  16
ATOM     16  C   UNL     1       2.744   4.421  19.300  0.00  0.00    +0.000 A 
ATOM     17  C   UNL     1       1.723   4.318  20.256  0.00  0.00    +0.000 A 
ATOM     18  C   UNL     1       0.762   3.309  20.163  0.00  0.00    +0.000 A 
ATOM     19  C   UNL     1       0.810   2.396  19.112  0.00  0.00    +0.000 A 
ATOM     20  C   UNL     1       1.817   2.490  18.153  0.00  0.00    +0.000 A 
ATOM     21  C   UNL     1       2.781   3.499  18.247  0.00  0.00    +0.000 A 
ENDBRANCH  15  16
ENDBRANCH   5  15
TORSDOF 4
ENDMDL
MODEL 6
REMARK VINA RESULT:      -7.4      1.317      2.273
REMARK  Name = 
REMARK  4 active torsions:
REMARK  status: ('A' for Active; 'I' for Inactive)
REMARK    1  A    between atoms: C_1  and  C_16
REMARK    2  A    between atoms: C_2  and  C_3
REMARK    3  A    between atoms: N_7  and  C_8
REMARK    4  A    between atoms: C_8  and  C_9
REMARK                            x       y       z     vdW  Elec       q    Type
REMARK                         _______ _______ _______ _____ _____    ______ ____
ROOT
ATOM      1  C   UNL     1       5.132   6.867  17.106  0.00  0.00    +0.000 C 
ATOM      2  C   UNL     1       6.515   7.409  17.486  0.00  0.00    +0.000 C 
ATOM      3  C   UNL     1       7.440   6.300  17.982  0.00  0.00    +0.000 C 
ATOM      4  C   UNL     1       6.789   5.447  19.077  0.00  0.00    +0.000 C 
ATOM      5  N   UNL     1       5.471   4.930  18.676  0.00  0.00    +0.000 NA
ATOM      6  C   UNL     1       4.573   6.039  18.285  0.00  0.00    +0.000 C 
ENDROOT
BRANCH   1   8
ATOM      7  C   UNL     1       6.265   5.414  15.376  0.00  0.00    +0.000 C 
ATOM      8  C   UNL     1       5.170   6.039  15.836  0.00  0.00    +0.000 C 
BRANCH   7   9
ATOM      9  C   UNL     1       6.341   4.699  14.092  0.00  0.00    +0.000 A 
ATOM     10  C   UNL     1       7.416   4.984  13.236  0.00  0.00    +0.000 A 
ATOM     11  C   UNL     1       7.532   4.355  11.994  0.00  0.00    +0.000 A 
ATOM     12  C   UNL     1       6.580   3.420  11.596  0.00  0.00    +0.000 A 
ATOM     13  C   UNL     1       5.522   3.105  12.446  0.00  0.00    +0.000 A 
ATOM     14  C   UNL     1       5.406   3.736  13.687  0.00  0.00    +0.000 A 
ENDBRANCH   7   9
ENDBRANCH   1   8
BRANCH   5  15
ATOM     15  C   UNL     1       4.831   4.145  19.750  0.00  0.00    +0.000 C 
BRANCH  15  16
ATOM     16  C   UNL     1       3.482   3.556  19.387  0.00  0.00    +0.000 A 
ATOM     17  C   UNL     1       2.338   3.907  20.119  0.00  0.00    +0.000 A 
ATOM     18  C   UNL     1       1.087   3.396  19.768  0.00  0.00    +0.000 A 
ATOM     19  C   UNL     1       0.965   2.533  18.680  0.00  0.00    +0.000 A 
ATOM     20  C   UNL     1       2.094   2.181  17.943  0.00  0.00    +0.000 A 
ATOM     21  C   UNL     1       3.348   2.690  18.295  0.00  0.00    +0.000 A 
ENDBRANCH  15  16
ENDBRANCH   5  15
TORSDOF 4
ENDMDL
MODEL 7
REMARK VINA RESULT:      -7.4      3.715      7.375
REMARK  Name = 
REMARK  4 active torsions:
REMARK  status: ('A' for Active; 'I' for Inactive)
REMARK    1  A    between atoms: C_1  and  C_16
REMARK    2  A    between atoms: C_2  and  C_3
REMARK    3  A    between atoms: N_7  and  C_8
REMARK    4  A    between atoms: C_8  and  C_9
REMARK                            x       y       z     vdW  Elec       q    Type
REMARK                         _______ _______ _______ _____ _____    ______ ____
ROOT
ATOM      1  C   UNL     1       2.106   3.797  17.693  0.00  0.00    +0.000 C 
ATOM      2  C   UNL     1       1.557   2.782  18.703  0.00  0.00    +0.000 C 
ATOM      3  C   UNL     1       2.226   2.926  20.068  0.00  0.00    +0.000 C 
ATOM      4  C   UNL     1       3.755   2.931  19.968  0.00  0.00    +0.000 C 
ATOM      5  N   UNL     1       4.250   3.925  19.003  0.00  0.00    +0.000 NA
ATOM      6  C   UNL     1       3.648   3.702  17.670  0.00  0.00    +0.000 C 
ENDROOT
BRANCH   1   8
ATOM      7  C   UNL     1       2.495   6.243  18.199  0.00  0.00    +0.000 C 
ATOM      8  C   UNL     1       1.657   5.213  18.002  0.00  0.00    +0.000 C 
BRANCH   7   9
ATOM      9  C   UNL     1       2.075   7.594  18.604  0.00  0.00    +0.000 A 
ATOM     10  C   UNL     1       1.691   7.796  19.939  0.00  0.00    +0.000 A 
ATOM     11  C   UNL     1       1.262   9.051  20.381  0.00  0.00    +0.000 A 
ATOM     12  C   UNL     1       1.224  10.125  19.495  0.00  0.00    +0.000 A 
ATOM     13  C   UNL     1       1.630   9.947  18.174  0.00  0.00    +0.000 A 
ATOM     14  C   UNL     1       2.058   8.692  17.733  0.00  0.00    +0.000 A 
ENDBRANCH   7   9
ENDBRANCH   1   8
BRANCH   5  15
ATOM     15  C   UNL     1       5.722   3.897  18.879  0.00  0.00    +0.000 C 
BRANCH  15  16
ATOM     16  C   UNL     1       6.347   5.212  18.460  0.00  0.00    +0.000 A 
ATOM     17  C   UNL     1       7.505   5.679  19.100  0.00  0.00    +0.000 A 
ATOM     18  C   UNL     1       8.107   6.872  18.696  0.00  0.00    +0.000 A 
ATOM     19  C   UNL     1       7.561   7.608  17.645  0.00  0.00    +0.000 A 
ATOM     20  C   UNL     1       6.414   7.152  16.999  0.00  0.00    +0.000 A 
ATOM     21  C   UNL     1       5.809   5.958  17.405  0.00  0.00    +0.000 A 
ENDBRANCH  15  16
ENDBRANCH   5  15
TORSDOF 4
ENDMDL
MODEL 8
REMARK VINA RESULT:      -7.4      2.277      4.904
REMARK  Name = 
REMARK  4 active torsions:
REMARK  status: ('A' for Active; 'I' for Inactive)
REMARK    1  A    between atoms: C_1  and  C_16
REMARK    2  A    between atoms: C_2  and  C_3
REMARK    3  A    between atoms: N_7  and  C_8
REMARK    4  A    between atoms: C_8  and  C_9
REMARK                            x       y       z     vdW  Elec       q    Type
REMARK                         _______ _______ _______ _____ _____    ______ ____
ROOT
ATOM      1  C   UNL     1       3.335   2.817  19.836  0.00  0.00    +0.000 C 
ATOM      2  C   UNL     1       2.038   1.999  19.819  0.00  0.00    +0.000 C 
ATOM      3  C   UNL     1       0.857   2.822  19.309  0.00  0.00    +0.000 C 
ATOM      4  C   UNL     1       0.729   4.165  20.038  0.00  0.00    +0.000 C 
ATOM      5  N   UNL     1       1.984   4.932  20.024  0.00  0.00    +0.000 NA
ATOM      6  C   UNL     1       3.088   4.135  20.604  0.00  0.00    +0.000 C 
ENDROOT
BRANCH   1   8
ATOM      7  C   UNL     1       4.799   4.009  18.156  0.00  0.00    +0.000 C 
ATOM      8  C   UNL     1       3.856   3.096  18.440  0.00  0.00    +0.000 C 
BRANCH   7   9
ATOM      9  C   UNL     1       5.234   4.362  16.795  0.00  0.00    +0.000 A 
ATOM     10  C   UNL     1       5.057   5.687  16.365  0.00  0.00    +0.000 A 
ATOM     11  C   UNL     1       5.429   6.080  15.077  0.00  0.00    +0.000 A 
ATOM     12  C   UNL     1       5.998   5.156  14.205  0.00  0.00    +0.000 A 
ATOM     13  C   UNL     1       6.208   3.844  14.626  0.00  0.00    +0.000 A 
ATOM     14  C   UNL     1       5.833   3.452  15.914  0.00  0.00    +0.000 A 
ENDBRANCH   7   9
ENDBRANCH   1   8
BRANCH   5  15
ATOM     15  C   UNL     1       1.867   6.206  20.763  0.00  0.00    +0.000 C 
BRANCH  15  16
ATOM     16  C   UNL     1       1.833   7.444  19.890  0.00  0.00    +0.000 A 
ATOM     17  C   UNL     1       2.433   7.430  18.622  0.00  0.00    +0.000 A 
ATOM     18  C   UNL     1       2.377   8.555  17.798  0.00  0.00    +0.000 A 
ATOM     19  C   UNL     1       1.716   9.704  18.229  0.00  0.00    +0.000 A 
ATOM     20  C   UNL     1       1.112   9.728  19.485  0.00  0.00    +0.000 A 
ATOM     21  C   UNL     1       1.170   8.602  20.312  0.00  0.00    +0.000 A 
ENDBRANCH  15  16
ENDBRANCH   5  15
TORSDOF 4
ENDMDL
MODEL 9
REMARK VINA RESULT:      -7.4      2.306      5.082
REMARK  Name = 
REMARK  4 active torsions:
REMARK  status: ('A' for Active; 'I' for Inactive)
REMARK    1  A    between atoms: C_1  and  C_16
REMARK    2  A    between atoms: C_2  and  C_3
REMARK    3  A    between atoms: N_7  and  C_8
REMARK    4  A    between atoms: C_8  and  C_9
REMARK                            x       y       z     vdW  Elec       q    Type
REMARK                         _______ _______ _______ _____ _____    ______ ____
ROOT
ATOM      1  C   UNL     1       3.353   2.659  19.838  0.00  0.00    +0.000 C 
ATOM      2  C   UNL     1       2.019   1.924  19.666  0.00  0.00    +0.000 C 
ATOM      3  C   UNL     1       0.955   2.823  19.041  0.00  0.00    +0.000 C 
ATOM      4  C   UNL     1       0.829   4.166  19.768  0.00  0.00    +0.000 C 
ATOM      5  N   UNL     1       2.123   4.853  19.903  0.00  0.00    +0.000 NA
ATOM      6  C   UNL     1       3.104   3.986  20.591  0.00  0.00    +0.000 C 
ENDROOT
BRANCH   1   8
ATOM      7  C   UNL     1       4.942   3.888  18.304  0.00  0.00    +0.000 C 
ATOM      8  C   UNL     1       4.042   2.913  18.511  0.00  0.00    +0.000 C 
BRANCH   7   9
ATOM      9  C   UNL     1       5.535   4.211  16.996  0.00  0.00    +0.000 A 
ATOM     10  C   UNL     1       6.878   4.620  16.960  0.00  0.00    +0.000 A 
ATOM     11  C   UNL     1       7.492   4.961  15.752  0.00  0.00    +0.000 A 
ATOM     12  C   UNL     1       6.775   4.886  14.561  0.00  0.00    +0.000 A 
ATOM     13  C   UNL     1       5.450   4.455  14.577  0.00  0.00    +0.000 A 
ATOM     14  C   UNL     1       4.836   4.115  15.785  0.00  0.00    +0.000 A 
ENDBRANCH   7   9
ENDBRANCH   1   8
BRANCH   5  15
ATOM     15  C   UNL     1       2.003   6.127  20.641  0.00  0.00    +0.000 C 
BRANCH  15  16
ATOM     16  C   UNL     1       1.885   7.358  19.764  0.00  0.00    +0.000 A 
ATOM     17  C   UNL     1       1.239   8.507  20.244  0.00  0.00    +0.000 A 
ATOM     18  C   UNL     1       1.157   9.656  19.455  0.00  0.00    +0.000 A 
ATOM     19  C   UNL     1       1.724   9.671  18.182  0.00  0.00    +0.000 A 
ATOM     20  C   UNL     1       2.372   8.536  17.697  0.00  0.00    +0.000 A 
ATOM     21  C   UNL     1       2.452   7.385  18.485  0.00  0.00    +0.000 A 
ENDBRANCH  15  16
ENDBRANCH   5  15
TORSDOF 4
ENDMDL
