MODEL 1
REMARK VINA RESULT:      -6.6      0.000      0.000
REMARK  Name = 
REMARK  12 active torsions:
REMARK  status: ('A' for Active; 'I' for Inactive)
REMARK    1  A    between atoms: C_1  and  C_2
REMARK    2  A    between atoms: C_2  and  C_3
REMARK    3  A    between atoms: C_2  and  O_4
REMARK    4  A    between atoms: O_4  and  C_5
REMARK    5  A    between atoms: C_5  and  O_7
REMARK    6  A    between atoms: O_7  and  C_8
REMARK    7  A    between atoms: C_8  and  C_9
REMARK    8  A    between atoms: C_8  and  O_10
REMARK    9  A    between atoms: O_10  and  C_11
REMARK   10  A    between atoms: C_11  and  C_13
REMARK   11  A    between atoms: C_16  and  C_17
REMARK   12  A    between atoms: C_17  and  N_18
REMARK                            x       y       z     vdW  Elec       q    Type
REMARK                         _______ _______ _______ _____ _____    ______ ____
ROOT
ATOM      1  C   UNL     1       6.055   5.615  19.115  0.00  0.00    +0.000 C 
ATOM      2  O   UNL     1       6.999   5.172  19.751  0.00  0.00    +0.000 OA
ENDROOT
BRANCH   1   3
ATOM      3  C   UNL     1       4.590   5.239  19.373  0.00  0.00    +0.000 C 
ATOM      4  C   UNL     1       3.647   5.544  18.200  0.00  0.00    +0.000 C 
ATOM      5  C   UNL     1       2.212   5.073  18.464  0.00  0.00    +0.000 C 
ATOM      6  C   UNL     1       2.163   3.580  18.818  0.00  0.00    +0.000 C 
ATOM      7  C   UNL     1       3.059   3.302  20.032  0.00  0.00    +0.000 C 
ATOM      8  C   UNL     1       4.497   3.764  19.785  0.00  0.00    +0.000 C 
BRANCH   6   9
ATOM      9  C   UNL     1       0.726   3.048  18.993  0.00  0.00    +0.000 C 
BRANCH   9  10
ATOM     10  N   UNL     1       0.421   1.799  18.307  0.00  0.00    +0.000 NA
ATOM     11  H   UNL     1      -0.585   1.666  18.235  0.00  0.00    +0.000 HD
ATOM     12  H   UNL     1       0.789   1.006  18.828  0.00  0.00    +0.000 HD
ENDBRANCH   9  10
ENDBRANCH   6   9
ENDBRANCH   1   3
BRANCH   1  13
ATOM     13  O   UNL     1       6.152   6.640  18.228  0.00  0.00    +0.000 OA
BRANCH  13  14
ATOM     14  C   UNL     1       7.423   6.719  17.550  0.00  0.00    +0.000 C 
ATOM     15  C   UNL     1       7.783   8.205  17.619  0.00  0.00    +0.000 C 
BRANCH  14  16
ATOM     16  O   UNL     1       7.334   6.318  16.179  0.00  0.00    +0.000 OA
BRANCH  16  17
ATOM     17  C   UNL     1       7.629   5.007  15.969  0.00  0.00    +0.000 C 
ATOM     18  O   UNL     1       8.044   4.226  16.821  0.00  0.00    +0.000 OA
BRANCH  17  19
ATOM     19  O   UNL     1       7.422   4.703  14.659  0.00  0.00    +0.000 OA
BRANCH  19  21
ATOM     20  C   UNL     1       5.017   4.520  14.900  0.00  0.00    +0.000 C 
ATOM     21  C   UNL     1       6.289   3.858  14.379  0.00  0.00    +0.000 C 
ATOM     22  C   UNL     1       6.188   3.663  12.867  0.00  0.00    +0.000 C 
ENDBRANCH  19  21
ENDBRANCH  17  19
ENDBRANCH  16  17
ENDBRANCH  14  16
ENDBRANCH  13  14
ENDBRANCH   1  13
TORSDOF 9
ENDMDL
MODEL 2
REMARK VINA RESULT:      -6.2      3.496      4.924
REMARK  Name = 
REMARK  12 active torsions:
REMARK  status: ('A' for Active; 'I' for Inactive)
REMARK    1  A    between atoms: C_1  and  C_2
REMARK    2  A    between atoms: C_2  and  C_3
REMARK    3  A    between atoms: C_2  and  O_4
REMARK    4  A    between atoms: O_4  and  C_5
REMARK    5  A    between atoms: C_5  and  O_7
REMARK    6  A    between atoms: O_7  and  C_8
REMARK    7  A    between atoms: C_8  and  C_9
REMARK    8  A    between atoms: C_8  and  O_10
REMARK    9  A    between atoms: O_10  and  C_11
REMARK   10  A    between atoms: C_11  and  C_13
REMARK   11  A    between atoms: C_16  and  C_17
REMARK   12  A    between atoms: C_17  and  N_18
REMARK                            x       y       z     vdW  Elec       q    Type
REMARK                         _______ _______ _______ _____ _____    ______ ____
ROOT
ATOM      1  C   UNL     1       2.205   4.885  19.994  0.00  0.00    +0.000 C 
ATOM      2  O   UNL     1       1.119   4.344  20.136  0.00  0.00    +0.000 OA
ENDROOT
BRANCH   1   3
ATOM      3  C   UNL     1       2.393   6.383  19.722  0.00  0.00    +0.000 C 
ATOM      4  C   UNL     1       2.289   6.771  18.239  0.00  0.00    +0.000 C 
ATOM      5  C   UNL     1       2.394   8.284  18.021  0.00  0.00    +0.000 C 
ATOM      6  C   UNL     1       1.351   9.048  18.849  0.00  0.00    +0.000 C 
ATOM      7  C   UNL     1       1.509   8.702  20.335  0.00  0.00    +0.000 C 
ATOM      8  C   UNL     1       1.405   7.193  20.572  0.00  0.00    +0.000 C 
BRANCH   6   9
ATOM      9  C   UNL     1       1.361  10.567  18.579  0.00  0.00    +0.000 C 
BRANCH   9  10
ATOM     10  N   UNL     1       2.265  11.021  17.529  0.00  0.00    +0.000 NA
ATOM     11  H   UNL     1       3.074  10.408  17.463  0.00  0.00    +0.000 HD
ATOM     12  H   UNL     1       2.615  11.954  17.739  0.00  0.00    +0.000 HD
ENDBRANCH   9  10
ENDBRANCH   6   9
ENDBRANCH   1   3
BRANCH   1  13
ATOM     13  O   UNL     1       3.394   4.277  20.248  0.00  0.00    +0.000 OA
BRANCH  13  14
ATOM     14  C   UNL     1       4.164   3.966  19.068  0.00  0.00    +0.000 C 
ATOM     15  C   UNL     1       3.660   2.580  18.657  0.00  0.00    +0.000 C 
BRANCH  14  16
ATOM     16  O   UNL     1       5.568   3.895  19.339  0.00  0.00    +0.000 OA
BRANCH  16  17
ATOM     17  C   UNL     1       6.211   5.089  19.223  0.00  0.00    +0.000 C 
ATOM     18  O   UNL     1       7.157   5.456  19.914  0.00  0.00    +0.000 OA
BRANCH  17  19
ATOM     19  O   UNL     1       5.621   5.825  18.243  0.00  0.00    +0.000 OA
BRANCH  19  21
ATOM     20  C   UNL     1       7.158   4.634  16.794  0.00  0.00    +0.000 C 
ATOM     21  C   UNL     1       6.340   5.906  16.997  0.00  0.00    +0.000 C 
ATOM     22  C   UNL     1       5.331   6.058  15.860  0.00  0.00    +0.000 C 
ENDBRANCH  19  21
ENDBRANCH  17  19
ENDBRANCH  16  17
ENDBRANCH  14  16
ENDBRANCH  13  14
ENDBRANCH   1  13
TORSDOF 9
ENDMDL
MODEL 3
REMARK VINA RESULT:      -6.1      1.762      2.872
REMARK  Name = 
REMARK  12 active torsions:
REMARK  status: ('A' for Active; 'I' for Inactive)
REMARK    1  A    between atoms: C_1  and  C_2
REMARK    2  A    between atoms: C_2  and  C_3
REMARK    3  A    between atoms: C_2  and  O_4
REMARK    4  A    between atoms: O_4  and  C_5
REMARK    5  A    between atoms: C_5  and  O_7
REMARK    6  A    between atoms: O_7  and  C_8
REMARK    7  A    between atoms: C_8  and  C_9
REMARK    8  A    between atoms: C_8  and  O_10
REMARK    9  A    between atoms: O_10  and  C_11
REMARK   10  A    between atoms: C_11  and  C_13
REMARK   11  A    between atoms: C_16  and  C_17
REMARK   12  A    between atoms: C_17  and  N_18
REMARK                            x       y       z     vdW  Elec       q    Type
REMARK                         _______ _______ _______ _____ _____    ______ ____
ROOT
ATOM      1  C   UNL     1       6.039   4.676  17.406  0.00  0.00    +0.000 C 
ATOM      2  O   UNL     1       6.669   5.646  17.799  0.00  0.00    +0.000 OA
ENDROOT
BRANCH   1   3
ATOM      3  C   UNL     1       4.660   4.270  17.941  0.00  0.00    +0.000 C 
ATOM      4  C   UNL     1       4.699   3.554  19.300  0.00  0.00    +0.000 C 
ATOM      5  C   UNL     1       3.298   3.244  19.839  0.00  0.00    +0.000 C 
ATOM      6  C   UNL     1       2.433   4.509  19.924  0.00  0.00    +0.000 C 
ATOM      7  C   UNL     1       2.349   5.177  18.546  0.00  0.00    +0.000 C 
ATOM      8  C   UNL     1       3.739   5.496  17.992  0.00  0.00    +0.000 C 
BRANCH   6   9
ATOM      9  C   UNL     1       1.049   4.252  20.556  0.00  0.00    +0.000 C 
BRANCH   9  10
ATOM     10  N   UNL     1       0.789   2.883  20.982  0.00  0.00    +0.000 NA
ATOM     11  H   UNL     1       0.241   2.873  21.840  0.00  0.00    +0.000 HD
ATOM     12  H   UNL     1       1.662   2.399  21.182  0.00  0.00    +0.000 HD
ENDBRANCH   9  10
ENDBRANCH   6   9
ENDBRANCH   1   3
BRANCH   1  13
ATOM     13  O   UNL     1       6.381   3.942  16.314  0.00  0.00    +0.000 OA
BRANCH  13  14
ATOM     14  C   UNL     1       6.681   4.727  15.142  0.00  0.00    +0.000 C 
ATOM     15  C   UNL     1       5.368   5.456  14.844  0.00  0.00    +0.000 C 
BRANCH  14  16
ATOM     16  O   UNL     1       7.034   3.913  14.018  0.00  0.00    +0.000 OA
BRANCH  16  17
ATOM     17  C   UNL     1       7.390   4.625  12.915  0.00  0.00    +0.000 C 
ATOM     18  O   UNL     1       8.068   5.648  12.918  0.00  0.00    +0.000 OA
BRANCH  17  19
ATOM     19  O   UNL     1       6.852   4.042  11.810  0.00  0.00    +0.000 OA
BRANCH  19  21
ATOM     20  C   UNL     1       4.535   3.349  11.633  0.00  0.00    +0.000 C 
ATOM     21  C   UNL     1       5.947   2.947  12.052  0.00  0.00    +0.000 C 
ATOM     22  C   UNL     1       6.407   1.744  11.232  0.00  0.00    +0.000 C 
ENDBRANCH  19  21
ENDBRANCH  17  19
ENDBRANCH  16  17
ENDBRANCH  14  16
ENDBRANCH  13  14
ENDBRANCH   1  13
TORSDOF 9
ENDMDL
MODEL 4
REMARK VINA RESULT:      -6.0      3.648      6.188
REMARK  Name = 
REMARK  12 active torsions:
REMARK  status: ('A' for Active; 'I' for Inactive)
REMARK    1  A    between atoms: C_1  and  C_2
REMARK    2  A    between atoms: C_2  and  C_3
REMARK    3  A    between atoms: C_2  and  O_4
REMARK    4  A    between atoms: O_4  and  C_5
REMARK    5  A    between atoms: C_5  and  O_7
REMARK    6  A    between atoms: O_7  and  C_8
REMARK    7  A    between atoms: C_8  and  C_9
REMARK    8  A    between atoms: C_8  and  O_10
REMARK    9  A    between atoms: O_10  and  C_11
REMARK   10  A    between atoms: C_11  and  C_13
REMARK   11  A    between atoms: C_16  and  C_17
REMARK   12  A    between atoms: C_17  and  N_18
REMARK                            x       y       z     vdW  Elec       q    Type
REMARK                         _______ _______ _______ _____ _____    ______ ____
ROOT
ATOM      1  C   UNL     1       3.092   5.953  18.401  0.00  0.00    +0.000 C 
ATOM      2  O   UNL     1       2.170   6.500  17.814  0.00  0.00    +0.000 OA
ENDROOT
BRANCH   1   3
ATOM      3  C   UNL     1       4.347   5.403  17.710  0.00  0.00    +0.000 C 
ATOM      4  C   UNL     1       4.059   4.357  16.622  0.00  0.00    +0.000 C 
ATOM      5  C   UNL     1       5.330   3.900  15.898  0.00  0.00    +0.000 C 
ATOM      6  C   UNL     1       6.103   5.089  15.309  0.00  0.00    +0.000 C 
ATOM      7  C   UNL     1       6.441   6.093  16.418  0.00  0.00    +0.000 C 
ATOM      8  C   UNL     1       5.182   6.562  17.151  0.00  0.00    +0.000 C 
BRANCH   6   9
ATOM      9  C   UNL     1       7.336   4.658  14.487  0.00  0.00    +0.000 C 
BRANCH   9  10
ATOM     10  N   UNL     1       7.804   5.615  13.492  0.00  0.00    +0.000 NA
ATOM     11  H   UNL     1       7.133   6.372  13.380  0.00  0.00    +0.000 HD
ATOM     12  H   UNL     1       7.900   5.166  12.584  0.00  0.00    +0.000 HD
ENDBRANCH   9  10
ENDBRANCH   6   9
ENDBRANCH   1   3
BRANCH   1  13
ATOM     13  O   UNL     1       3.221   5.928  19.753  0.00  0.00    +0.000 OA
BRANCH  13  14
ATOM     14  C   UNL     1       2.038   5.494  20.455  0.00  0.00    +0.000 C 
ATOM     15  C   UNL     1       1.411   6.798  20.955  0.00  0.00    +0.000 C 
BRANCH  14  16
ATOM     16  O   UNL     1       2.346   4.659  21.576  0.00  0.00    +0.000 OA
BRANCH  16  17
ATOM     17  C   UNL     1       2.202   3.329  21.327  0.00  0.00    +0.000 C 
ATOM     18  O   UNL     1       1.547   2.546  22.008  0.00  0.00    +0.000 OA
BRANCH  17  19
ATOM     19  O   UNL     1       2.924   2.997  20.222  0.00  0.00    +0.000 OA
BRANCH  19  21
ATOM     20  C   UNL     1       1.233   2.634  18.523  0.00  0.00    +0.000 C 
ATOM     21  C   UNL     1       2.338   2.000  19.363  0.00  0.00    +0.000 C 
ATOM     22  C   UNL     1       3.427   1.442  18.449  0.00  0.00    +0.000 C 
ENDBRANCH  19  21
ENDBRANCH  17  19
ENDBRANCH  16  17
ENDBRANCH  14  16
ENDBRANCH  13  14
ENDBRANCH   1  13
TORSDOF 9
ENDMDL
MODEL 5
REMARK VINA RESULT:      -6.0      4.114      6.095
REMARK  Name = 
REMARK  12 active torsions:
REMARK  status: ('A' for Active; 'I' for Inactive)
REMARK    1  A    between atoms: C_1  and  C_2
REMARK    2  A    between atoms: C_2  and  C_3
REMARK    3  A    between atoms: C_2  and  O_4
REMARK    4  A    between atoms: O_4  and  C_5
REMARK    5  A    between atoms: C_5  and  O_7
REMARK    6  A    between atoms: O_7  and  C_8
REMARK    7  A    between atoms: C_8  and  C_9
REMARK    8  A    between atoms: C_8  and  O_10
REMARK    9  A    between atoms: O_10  and  C_11
REMARK   10  A    between atoms: C_11  and  C_13
REMARK   11  A    between atoms: C_16  and  C_17
REMARK   12  A    between atoms: C_17  and  N_18
REMARK                            x       y       z     vdW  Elec       q    Type
REMARK                         _______ _______ _______ _____ _____    ______ ____
ROOT
ATOM      1  C   UNL     1       3.355   5.977  18.650  0.00  0.00    +0.000 C 
ATOM      2  O   UNL     1       4.321   5.909  19.395  0.00  0.00    +0.000 OA
ENDROOT
BRANCH   1   3
ATOM      3  C   UNL     1       2.269   7.055  18.744  0.00  0.00    +0.000 C 
ATOM      4  C   UNL     1       2.029   7.585  20.166  0.00  0.00    +0.000 C 
ATOM      5  C   UNL     1       1.001   8.721  20.203  0.00  0.00    +0.000 C 
ATOM      6  C   UNL     1       1.394   9.869  19.262  0.00  0.00    +0.000 C 
ATOM      7  C   UNL     1       1.565   9.337  17.834  0.00  0.00    +0.000 C 
ATOM      8  C   UNL     1       2.591   8.203  17.777  0.00  0.00    +0.000 C 
BRANCH   6   9
ATOM      9  C   UNL     1       0.434  11.073  19.348  0.00  0.00    +0.000 C 
BRANCH   9  10
ATOM     10  N   UNL     1      -0.313  11.380  18.134  0.00  0.00    +0.000 NA
ATOM     11  H   UNL     1      -0.560  12.366  18.104  0.00  0.00    +0.000 HD
ATOM     12  H   UNL     1      -1.186  10.855  18.110  0.00  0.00    +0.000 HD
ENDBRANCH   9  10
ENDBRANCH   6   9
ENDBRANCH   1   3
BRANCH   1  13
ATOM     13  O   UNL     1       3.213   5.228  17.525  0.00  0.00    +0.000 OA
BRANCH  13  14
ATOM     14  C   UNL     1       3.829   3.926  17.597  0.00  0.00    +0.000 C 
ATOM     15  C   UNL     1       4.748   3.889  16.372  0.00  0.00    +0.000 C 
BRANCH  14  16
ATOM     16  O   UNL     1       2.872   2.866  17.501  0.00  0.00    +0.000 OA
BRANCH  16  17
ATOM     17  C   UNL     1       2.963   1.950  18.503  0.00  0.00    +0.000 C 
ATOM     18  O   UNL     1       3.867   1.129  18.636  0.00  0.00    +0.000 OA
BRANCH  17  19
ATOM     19  O   UNL     1       1.881   2.067  19.319  0.00  0.00    +0.000 OA
BRANCH  19  21
ATOM     20  C   UNL     1       0.788   4.008  20.275  0.00  0.00    +0.000 C 
ATOM     21  C   UNL     1       1.979   3.059  20.360  0.00  0.00    +0.000 C 
ATOM     22  C   UNL     1       1.979   2.348  21.712  0.00  0.00    +0.000 C 
ENDBRANCH  19  21
ENDBRANCH  17  19
ENDBRANCH  16  17
ENDBRANCH  14  16
ENDBRANCH  13  14
ENDBRANCH   1  13
TORSDOF 9
ENDMDL
MODEL 6
REMARK VINA RESULT:      -6.0      3.211      6.087
REMARK  Name = 
REMARK  12 active torsions:
REMARK  status: ('A' for Active; 'I' for Inactive)
REMARK    1  A    between atoms: C_1  and  C_2
REMARK    2  A    between atoms: C_2  and  C_3
REMARK    3  A    between atoms: C_2  and  O_4
REMARK    4  A    between atoms: O_4  and  C_5
REMARK    5  A    between atoms: C_5  and  O_7
REMARK    6  A    between atoms: O_7  and  C_8
REMARK    7  A    between atoms: C_8  and  C_9
REMARK    8  A    between atoms: C_8  and  O_10
REMARK    9  A    between atoms: O_10  and  C_11
REMARK   10  A    between atoms: C_11  and  C_13
REMARK   11  A    between atoms: C_16  and  C_17
REMARK   12  A    between atoms: C_17  and  N_18
REMARK                            x       y       z     vdW  Elec       q    Type
REMARK                         _______ _______ _______ _____ _____    ______ ____
ROOT
ATOM      1  C   UNL     1       5.327   4.510  18.896  0.00  0.00    +0.000 C 
ATOM      2  O   UNL     1       5.162   5.359  19.759  0.00  0.00    +0.000 OA
ENDROOT
BRANCH   1   3
ATOM      3  C   UNL     1       5.633   4.824  17.426  0.00  0.00    +0.000 C 
ATOM      4  C   UNL     1       7.100   4.605  17.028  0.00  0.00    +0.000 C 
ATOM      5  C   UNL     1       7.344   4.845  15.534  0.00  0.00    +0.000 C 
ATOM      6  C   UNL     1       6.418   3.982  14.665  0.00  0.00    +0.000 C 
ATOM      7  C   UNL     1       4.954   4.260  15.028  0.00  0.00    +0.000 C 
ATOM      8  C   UNL     1       4.691   4.023  16.517  0.00  0.00    +0.000 C 
BRANCH   6   9
ATOM      9  C   UNL     1       6.703   4.123  13.155  0.00  0.00    +0.000 C 
BRANCH   9  10
ATOM     10  N   UNL     1       6.329   2.984  12.327  0.00  0.00    +0.000 NA
ATOM     11  H   UNL     1       7.131   2.644  11.801  0.00  0.00    +0.000 HD
ATOM     12  H   UNL     1       5.621   3.255  11.647  0.00  0.00    +0.000 HD
ENDBRANCH   9  10
ENDBRANCH   6   9
ENDBRANCH   1   3
BRANCH   1  13
ATOM     13  O   UNL     1       5.455   3.182  19.154  0.00  0.00    +0.000 OA
BRANCH  13  14
ATOM     14  C   UNL     1       4.355   2.613  19.894  0.00  0.00    +0.000 C 
ATOM     15  C   UNL     1       5.012   1.524  20.747  0.00  0.00    +0.000 C 
BRANCH  14  16
ATOM     16  O   UNL     1       3.376   2.014  19.038  0.00  0.00    +0.000 OA
BRANCH  16  17
ATOM     17  C   UNL     1       2.106   2.439  19.275  0.00  0.00    +0.000 C 
ATOM     18  O   UNL     1       1.091   1.958  18.777  0.00  0.00    +0.000 OA
BRANCH  17  19
ATOM     19  O   UNL     1       2.136   3.500  20.125  0.00  0.00    +0.000 OA
BRANCH  19  21
ATOM     20  C   UNL     1       1.708   5.829  20.647  0.00  0.00    +0.000 C 
ATOM     21  C   UNL     1       1.408   4.669  19.702  0.00  0.00    +0.000 C 
ATOM     22  C   UNL     1       1.849   5.031  18.284  0.00  0.00    +0.000 C 
ENDBRANCH  19  21
ENDBRANCH  17  19
ENDBRANCH  16  17
ENDBRANCH  14  16
ENDBRANCH  13  14
ENDBRANCH   1  13
TORSDOF 9
ENDMDL
MODEL 7
REMARK VINA RESULT:      -5.9      2.681      3.367
REMARK  Name = 
REMARK  12 active torsions:
REMARK  status: ('A' for Active; 'I' for Inactive)
REMARK    1  A    between atoms: C_1  and  C_2
REMARK    2  A    between atoms: C_2  and  C_3
REMARK    3  A    between atoms: C_2  and  O_4
REMARK    4  A    between atoms: O_4  and  C_5
REMARK    5  A    between atoms: C_5  and  O_7
REMARK    6  A    between atoms: O_7  and  C_8
REMARK    7  A    between atoms: C_8  and  C_9
REMARK    8  A    between atoms: C_8  and  O_10
REMARK    9  A    between atoms: O_10  and  C_11
REMARK   10  A    between atoms: C_11  and  C_13
REMARK   11  A    between atoms: C_16  and  C_17
REMARK   12  A    between atoms: C_17  and  N_18
REMARK                            x       y       z     vdW  Elec       q    Type
REMARK                         _______ _______ _______ _____ _____    ______ ____
ROOT
ATOM      1  C   UNL     1       5.129   4.644  18.427  0.00  0.00    +0.000 C 
ATOM      2  O   UNL     1       5.285   3.832  19.325  0.00  0.00    +0.000 OA
ENDROOT
BRANCH   1   3
ATOM      3  C   UNL     1       4.443   6.005  18.605  0.00  0.00    +0.000 C 
ATOM      4  C   UNL     1       4.200   6.764  17.291  0.00  0.00    +0.000 C 
ATOM      5  C   UNL     1       3.435   8.074  17.504  0.00  0.00    +0.000 C 
ATOM      6  C   UNL     1       2.109   7.841  18.243  0.00  0.00    +0.000 C 
ATOM      7  C   UNL     1       2.374   7.143  19.582  0.00  0.00    +0.000 C 
ATOM      8  C   UNL     1       3.136   5.829  19.388  0.00  0.00    +0.000 C 
BRANCH   6   9
ATOM      9  C   UNL     1       1.266   9.125  18.387  0.00  0.00    +0.000 C 
BRANCH   9  10
ATOM     10  N   UNL     1       1.682  10.256  17.567  0.00  0.00    +0.000 NA
ATOM     11  H   UNL     1       1.349  11.130  17.967  0.00  0.00    +0.000 HD
ATOM     12  H   UNL     1       1.284  10.185  16.633  0.00  0.00    +0.000 HD
ENDBRANCH   9  10
ENDBRANCH   6   9
ENDBRANCH   1   3
BRANCH   1  13
ATOM     13  O   UNL     1       5.708   4.540  17.201  0.00  0.00    +0.000 OA
BRANCH  13  14
ATOM     14  C   UNL     1       7.147   4.446  17.232  0.00  0.00    +0.000 C 
ATOM     15  C   UNL     1       7.581   5.719  17.962  0.00  0.00    +0.000 C 
BRANCH  14  16
ATOM     16  O   UNL     1       7.719   4.437  15.919  0.00  0.00    +0.000 OA
BRANCH  16  17
ATOM     17  C   UNL     1       6.849   4.798  14.938  0.00  0.00    +0.000 C 
ATOM     18  O   UNL     1       6.354   5.914  14.803  0.00  0.00    +0.000 OA
BRANCH  17  19
ATOM     19  O   UNL     1       6.588   3.722  14.148  0.00  0.00    +0.000 OA
BRANCH  19  21
ATOM     20  C   UNL     1       7.435   4.506  12.016  0.00  0.00    +0.000 C 
ATOM     21  C   UNL     1       6.214   4.014  12.787  0.00  0.00    +0.000 C 
ATOM     22  C   UNL     1       5.676   2.737  12.145  0.00  0.00    +0.000 C 
ENDBRANCH  19  21
ENDBRANCH  17  19
ENDBRANCH  16  17
ENDBRANCH  14  16
ENDBRANCH  13  14
ENDBRANCH   1  13
TORSDOF 9
ENDMDL
MODEL 8
REMARK VINA RESULT:      -5.9      1.135      1.720
REMARK  Name = 
REMARK  12 active torsions:
REMARK  status: ('A' for Active; 'I' for Inactive)
REMARK    1  A    between atoms: C_1  and  C_2
REMARK    2  A    between atoms: C_2  and  C_3
REMARK    3  A    between atoms: C_2  and  O_4
REMARK    4  A    between atoms: O_4  and  C_5
REMARK    5  A    between atoms: C_5  and  O_7
REMARK    6  A    between atoms: O_7  and  C_8
REMARK    7  A    between atoms: C_8  and  C_9
REMARK    8  A    between atoms: C_8  and  O_10
REMARK    9  A    between atoms: O_10  and  C_11
REMARK   10  A    between atoms: C_11  and  C_13
REMARK   11  A    between atoms: C_16  and  C_17
REMARK   12  A    between atoms: C_17  and  N_18
REMARK                            x       y       z     vdW  Elec       q    Type
REMARK                         _______ _______ _______ _____ _____    ______ ____
ROOT
ATOM      1  C   UNL     1       6.049   5.280  19.119  0.00  0.00    +0.000 C 
ATOM      2  O   UNL     1       6.838   4.963  19.996  0.00  0.00    +0.000 OA
ENDROOT
BRANCH   1   3
ATOM      3  C   UNL     1       4.721   4.558  18.853  0.00  0.00    +0.000 C 
ATOM      4  C   UNL     1       4.516   3.289  19.693  0.00  0.00    +0.000 C 
ATOM      5  C   UNL     1       3.143   2.649  19.462  0.00  0.00    +0.000 C 
ATOM      6  C   UNL     1       2.004   3.647  19.712  0.00  0.00    +0.000 C 
ATOM      7  C   UNL     1       2.186   4.880  18.818  0.00  0.00    +0.000 C 
ATOM      8  C   UNL     1       3.553   5.535  19.037  0.00  0.00    +0.000 C 
BRANCH   6   9
ATOM      9  C   UNL     1       0.605   3.010  19.585  0.00  0.00    +0.000 C 
BRANCH   9  10
ATOM     10  N   UNL     1       0.518   1.829  18.736  0.00  0.00    +0.000 NA
ATOM     11  H   UNL     1       0.465   2.096  17.755  0.00  0.00    +0.000 HD
ATOM     12  H   UNL     1      -0.327   1.301  18.945  0.00  0.00    +0.000 HD
ENDBRANCH   9  10
ENDBRANCH   6   9
ENDBRANCH   1   3
BRANCH   1  13
ATOM     13  O   UNL     1       6.144   6.424  18.391  0.00  0.00    +0.000 OA
BRANCH  13  14
ATOM     14  C   UNL     1       7.098   6.361  17.311  0.00  0.00    +0.000 C 
ATOM     15  C   UNL     1       7.764   7.740  17.332  0.00  0.00    +0.000 C 
BRANCH  14  16
ATOM     16  O   UNL     1       6.469   6.161  16.041  0.00  0.00    +0.000 OA
BRANCH  16  17
ATOM     17  C   UNL     1       6.613   4.900  15.549  0.00  0.00    +0.000 C 
ATOM     18  O   UNL     1       5.953   3.924  15.894  0.00  0.00    +0.000 OA
BRANCH  17  19
ATOM     19  O   UNL     1       7.623   4.884  14.639  0.00  0.00    +0.000 OA
BRANCH  19  21
ATOM     20  C   UNL     1       8.447   5.876  12.586  0.00  0.00    +0.000 C 
ATOM     21  C   UNL     1       7.259   5.224  13.286  0.00  0.00    +0.000 C 
ATOM     22  C   UNL     1       6.864   3.944  12.552  0.00  0.00    +0.000 C 
ENDBRANCH  19  21
ENDBRANCH  17  19
ENDBRANCH  16  17
ENDBRANCH  14  16
ENDBRANCH  13  14
ENDBRANCH   1  13
TORSDOF 9
ENDMDL
MODEL 9
REMARK VINA RESULT:      -5.9      2.891      6.169
REMARK  Name = 
REMARK  12 active torsions:
REMARK  status: ('A' for Active; 'I' for Inactive)
REMARK    1  A    between atoms: C_1  and  C_2
REMARK    2  A    between atoms: C_2  and  C_3
REMARK    3  A    between atoms: C_2  and  O_4
REMARK    4  A    between atoms: O_4  and  C_5
REMARK    5  A    between atoms: C_5  and  O_7
REMARK    6  A    between atoms: O_7  and  C_8
REMARK    7  A    between atoms: C_8  and  C_9
REMARK    8  A    between atoms: C_8  and  O_10
REMARK    9  A    between atoms: O_10  and  C_11
REMARK   10  A    between atoms: C_11  and  C_13
REMARK   11  A    between atoms: C_16  and  C_17
REMARK   12  A    between atoms: C_17  and  N_18
REMARK                            x       y       z     vdW  Elec       q    Type
REMARK                         _______ _______ _______ _____ _____    ______ ____
ROOT
ATOM      1  C   UNL     1       5.594   5.541  17.618  0.00  0.00    +0.000 C 
ATOM      2  O   UNL     1       5.947   4.701  18.432  0.00  0.00    +0.000 OA
ENDROOT
BRANCH   1   3
ATOM      3  C   UNL     1       5.743   5.383  16.099  0.00  0.00    +0.000 C 
ATOM      4  C   UNL     1       7.186   5.144  15.630  0.00  0.00    +0.000 C 
ATOM      5  C   UNL     1       7.279   4.905  14.119  0.00  0.00    +0.000 C 
ATOM      6  C   UNL     1       6.372   3.749  13.673  0.00  0.00    +0.000 C 
ATOM      7  C   UNL     1       4.923   4.033  14.090  0.00  0.00    +0.000 C 
ATOM      8  C   UNL     1       4.811   4.273  15.598  0.00  0.00    +0.000 C 
BRANCH   6   9
ATOM      9  C   UNL     1       6.515   3.415  12.174  0.00  0.00    +0.000 C 
BRANCH   9  10
ATOM     10  N   UNL     1       5.930   2.151  11.745  0.00  0.00    +0.000 NA
ATOM     11  H   UNL     1       5.042   1.989  12.215  0.00  0.00    +0.000 HD
ATOM     12  H   UNL     1       6.541   1.374  11.989  0.00  0.00    +0.000 HD
ENDBRANCH   9  10
ENDBRANCH   6   9
ENDBRANCH   1   3
BRANCH   1  13
ATOM     13  O   UNL     1       4.852   6.635  17.931  0.00  0.00    +0.000 OA
BRANCH  13  14
ATOM     14  C   UNL     1       3.494   6.340  18.318  0.00  0.00    +0.000 C 
ATOM     15  C   UNL     1       2.739   7.639  18.021  0.00  0.00    +0.000 C 
BRANCH  14  16
ATOM     16  O   UNL     1       3.380   6.037  19.712  0.00  0.00    +0.000 OA
BRANCH  16  17
ATOM     17  C   UNL     1       2.189   5.476  20.056  0.00  0.00    +0.000 C 
ATOM     18  O   UNL     1       1.368   5.968  20.826  0.00  0.00    +0.000 OA
BRANCH  17  19
ATOM     19  O   UNL     1       2.063   4.270  19.439  0.00  0.00    +0.000 OA
BRANCH  19  21
ATOM     20  C   UNL     1       0.680   2.354  18.896  0.00  0.00    +0.000 C 
ATOM     21  C   UNL     1       1.024   3.408  19.944  0.00  0.00    +0.000 C 
ATOM     22  C   UNL     1       1.531   2.729  21.215  0.00  0.00    +0.000 C 
ENDBRANCH  19  21
ENDBRANCH  17  19
ENDBRANCH  16  17
ENDBRANCH  14  16
ENDBRANCH  13  14
ENDBRANCH   1  13
TORSDOF 9
ENDMDL
